WARNING: physical memory size is smaller than virtual memory size.

*** ChampSim Multicore Out-of-Order Simulator ***
Warmup Instructions: 30000000
Simulation Instructions: 100000000
Number of CPUs: 1
Page size: 4096

BTB:
Basic BTB sets: 1024 ways: 8
Indirect:
history lengths: 0 0 10 16 27 44 60 96 109 219 449 487 714 1313 2146 3881 
ITTAGE tables: 64768 bytes;Region table: 240 bytes;IUM: 384 bytes;Total Storage= 65392 bytes;
RAS:
RAS size: 64
[LLC] INSTR Demand IPV: 1 2 2 1 4 Prefetch IPV: 1 2 1 1 4
[LLC] DATA  Demand IPV: 1 1 1 2 4 Prefetch IPV: 1 1 2 2 4
Berti Prefetcher
CPU 0 Entangling prefetcher
Off-chip DRAM Size: 8 GiB Channels: 2 Width: 64-bit Data Race: 6400 MT/s
[DUEL] Epoch ended. INSTR misses = 33, DATA misses = 41. Winner = INSTR
[DUEL] Epoch ended. INSTR misses = 18, DATA misses = 37. Winner = INSTR
[DUEL] Epoch ended. INSTR misses = 19, DATA misses = 37. Winner = INSTR
[DUEL] Epoch ended. INSTR misses = 16, DATA misses = 42. Winner = INSTR
[DUEL] Epoch ended. INSTR misses = 2, DATA misses = 37. Winner = INSTR
[DUEL] Epoch ended. INSTR misses = 32, DATA misses = 70. Winner = INSTR
[DUEL] Epoch ended. INSTR misses = 17, DATA misses = 50. Winner = INSTR
[DUEL] Epoch ended. INSTR misses = 32, DATA misses = 65. Winner = INSTR
[DUEL] Epoch ended. INSTR misses = 17, DATA misses = 49. Winner = INSTR
[DUEL] Epoch ended. INSTR misses = 2, DATA misses = 48. Winner = INSTR
[DUEL] Epoch ended. INSTR misses = 32, DATA misses = 63. Winner = INSTR
[DUEL] Epoch ended. INSTR misses = 47, DATA misses = 73. Winner = INSTR
[DUEL] Epoch ended. INSTR misses = 19, DATA misses = 49. Winner = INSTR
[DUEL] Epoch ended. INSTR misses = 48, DATA misses = 61. Winner = INSTR
[DUEL] Epoch ended. INSTR misses = 34, DATA misses = 59. Winner = INSTR
[DUEL] Epoch ended. INSTR misses = 49, DATA misses = 63. Winner = INSTR
[DUEL] Epoch ended. INSTR misses = 34, DATA misses = 52. Winner = INSTR
[DUEL] Epoch ended. INSTR misses = 33, DATA misses = 65. Winner = INSTR
[DUEL] Epoch ended. INSTR misses = 17, DATA misses = 50. Winner = INSTR
[DUEL] Epoch ended. INSTR misses = 33, DATA misses = 67. Winner = INSTR
[DUEL] Epoch ended. INSTR misses = 33, DATA misses = 60. Winner = INSTR
[DUEL] Epoch ended. INSTR misses = 17, DATA misses = 50. Winner = INSTR
[DUEL] Epoch ended. INSTR misses = 17, DATA misses = 51. Winner = INSTR
[DUEL] Epoch ended. INSTR misses = 17, DATA misses = 58. Winner = INSTR
[DUEL] Epoch ended. INSTR misses = 27, DATA misses = 52. Winner = INSTR
[DUEL] Epoch ended. INSTR misses = 21, DATA misses = 61. Winner = INSTR
[DUEL] Epoch ended. INSTR misses = 32, DATA misses = 42. Winner = INSTR
[DUEL] Epoch ended. INSTR misses = 16, DATA misses = 21. Winner = INSTR
[DUEL] Epoch ended. INSTR misses = 32, DATA misses = 38. Winner = INSTR
[DUEL] Epoch ended. INSTR misses = 16, DATA misses = 16. Winner = INSTR
[DUEL] Epoch ended. INSTR misses = 43, DATA misses = 49. Winner = INSTR
[DUEL] Epoch ended. INSTR misses = 16, DATA misses = 16. Winner = INSTR
[DUEL] Epoch ended. INSTR misses = 42, DATA misses = 54. Winner = INSTR
[DUEL] Epoch ended. INSTR misses = 16, DATA misses = 16. Winner = INSTR
[DUEL] Epoch ended. INSTR misses = 38, DATA misses = 46. Winner = INSTR
[DUEL] Epoch ended. INSTR misses = 16, DATA misses = 16. Winner = INSTR
[DUEL] Epoch ended. INSTR misses = 48, DATA misses = 53. Winner = INSTR
[DUEL] Epoch ended. INSTR misses = 24, DATA misses = 28. Winner = INSTR
[DUEL] Epoch ended. INSTR misses = 38, DATA misses = 46. Winner = INSTR
Heartbeat CPU 0 instructions: 10000000 cycles: 1666772 heartbeat IPC: 6 cumulative IPC: 6 (Simulation time: 00 hr 00 min 23 sec)
[DUEL] Epoch ended. INSTR misses = 24, DATA misses = 28. Winner = INSTR
[DUEL] Epoch ended. INSTR misses = 28, DATA misses = 30. Winner = INSTR
[DUEL] Epoch ended. INSTR misses = 46, DATA misses = 45. Winner = DATA
[DUEL] Epoch ended. INSTR misses = 31, DATA misses = 31. Winner = INSTR
[DUEL] Epoch ended. INSTR misses = 42, DATA misses = 46. Winner = INSTR
[DUEL] Epoch ended. INSTR misses = 28, DATA misses = 31. Winner = INSTR
[DUEL] Epoch ended. INSTR misses = 44, DATA misses = 45. Winner = INSTR
[DUEL] Epoch ended. INSTR misses = 40, DATA misses = 89. Winner = INSTR
[DUEL] Epoch ended. INSTR misses = 13, DATA misses = 59. Winner = INSTR
[DUEL] Epoch ended. INSTR misses = 17, DATA misses = 76. Winner = INSTR
[DUEL] Epoch ended. INSTR misses = 57, DATA misses = 82. Winner = INSTR
[DUEL] Epoch ended. INSTR misses = 34, DATA misses = 71. Winner = INSTR
[DUEL] Epoch ended. INSTR misses = 1, DATA misses = 52. Winner = INSTR
[DUEL] Epoch ended. INSTR misses = 34, DATA misses = 89. Winner = INSTR
[DUEL] Epoch ended. INSTR misses = 0, DATA misses = 57. Winner = INSTR
[DUEL] Epoch ended. INSTR misses = 4, DATA misses = 50. Winner = INSTR
[DUEL] Epoch ended. INSTR misses = 30, DATA misses = 86. Winner = INSTR
[DUEL] Epoch ended. INSTR misses = 33, DATA misses = 60. Winner = INSTR
[DUEL] Epoch ended. INSTR misses = 0, DATA misses = 47. Winner = INSTR
[DUEL] Epoch ended. INSTR misses = 32, DATA misses = 82. Winner = INSTR
[DUEL] Epoch ended. INSTR misses = 18, DATA misses = 67. Winner = INSTR
[DUEL] Epoch ended. INSTR misses = 48, DATA misses = 108. Winner = INSTR
[DUEL] Epoch ended. INSTR misses = 49, DATA misses = 88. Winner = INSTR
[DUEL] Epoch ended. INSTR misses = 18, DATA misses = 63. Winner = INSTR
[DUEL] Epoch ended. INSTR misses = 32, DATA misses = 65. Winner = INSTR
[DUEL] Epoch ended. INSTR misses = 21, DATA misses = 50. Winner = INSTR
[DUEL] Epoch ended. INSTR misses = 5, DATA misses = 68. Winner = INSTR
[DUEL] Epoch ended. INSTR misses = 15, DATA misses = 77. Winner = INSTR
[DUEL] Epoch ended. INSTR misses = 0, DATA misses = 74. Winner = INSTR
[DUEL] Epoch ended. INSTR misses = 49, DATA misses = 112. Winner = INSTR
[DUEL] Epoch ended. INSTR misses = 32, DATA misses = 78. Winner = INSTR
[DUEL] Epoch ended. INSTR misses = 0, DATA misses = 51. Winner = INSTR
[DUEL] Epoch ended. INSTR misses = 19, DATA misses = 69. Winner = INSTR
[DUEL] Epoch ended. INSTR misses = 14, DATA misses = 60. Winner = INSTR
[DUEL] Epoch ended. INSTR misses = 65, DATA misses = 116. Winner = INSTR
[DUEL] Epoch ended. INSTR misses = 16, DATA misses = 64. Winner = INSTR
[DUEL] Epoch ended. INSTR misses = 50, DATA misses = 81. Winner = INSTR
[DUEL] Epoch ended. INSTR misses = 17, DATA misses = 87. Winner = INSTR
[DUEL] Epoch ended. INSTR misses = 0, DATA misses = 38. Winner = INSTR
Heartbeat CPU 0 instructions: 20000001 cycles: 3333442 heartbeat IPC: 6 cumulative IPC: 6 (Simulation time: 00 hr 00 min 46 sec)
[DUEL] Epoch ended. INSTR misses = 80, DATA misses = 98. Winner = INSTR
[DUEL] Epoch ended. INSTR misses = 16, DATA misses = 57. Winner = INSTR
[DUEL] Epoch ended. INSTR misses = 17, DATA misses = 59. Winner = INSTR
[DUEL] Epoch ended. INSTR misses = 0, DATA misses = 55. Winner = INSTR
[DUEL] Epoch ended. INSTR misses = 0, DATA misses = 53. Winner = INSTR
[DUEL] Epoch ended. INSTR misses = 0, DATA misses = 48. Winner = INSTR
[DUEL] Epoch ended. INSTR misses = 1, DATA misses = 40. Winner = INSTR
[DUEL] Epoch ended. INSTR misses = 32, DATA misses = 86. Winner = INSTR
[DUEL] Epoch ended. INSTR misses = 65, DATA misses = 128. Winner = INSTR
[DUEL] Epoch ended. INSTR misses = 40, DATA misses = 89. Winner = INSTR
[DUEL] Epoch ended. INSTR misses = 1, DATA misses = 74. Winner = INSTR
[DUEL] Epoch ended. INSTR misses = 16, DATA misses = 91. Winner = INSTR
[DUEL] Epoch ended. INSTR misses = 0, DATA misses = 56. Winner = INSTR
[DUEL] Epoch ended. INSTR misses = 0, DATA misses = 90. Winner = INSTR
[DUEL] Epoch ended. INSTR misses = 65, DATA misses = 108. Winner = INSTR
[DUEL] Epoch ended. INSTR misses = 34, DATA misses = 102. Winner = INSTR
[DUEL] Epoch ended. INSTR misses = 2, DATA misses = 50. Winner = INSTR
[DUEL] Epoch ended. INSTR misses = 2, DATA misses = 60. Winner = INSTR
[DUEL] Epoch ended. INSTR misses = 48, DATA misses = 125. Winner = INSTR
[DUEL] Epoch ended. INSTR misses = 5, DATA misses = 64. Winner = INSTR
[DUEL] Epoch ended. INSTR misses = 33, DATA misses = 93. Winner = INSTR
[DUEL] Epoch ended. INSTR misses = 34, DATA misses = 87. Winner = INSTR
[DUEL] Epoch ended. INSTR misses = 72, DATA misses = 102. Winner = INSTR
[DUEL] Epoch ended. INSTR misses = 4, DATA misses = 53. Winner = INSTR
[DUEL] Epoch ended. INSTR misses = 0, DATA misses = 58. Winner = INSTR
[DUEL] Epoch ended. INSTR misses = 0, DATA misses = 55. Winner = INSTR
[DUEL] Epoch ended. INSTR misses = 0, DATA misses = 85. Winner = INSTR
[DUEL] Epoch ended. INSTR misses = 16, DATA misses = 63. Winner = INSTR
[DUEL] Epoch ended. INSTR misses = 50, DATA misses = 108. Winner = INSTR
[DUEL] Epoch ended. INSTR misses = 34, DATA misses = 75. Winner = INSTR
[DUEL] Epoch ended. INSTR misses = 16, DATA misses = 66. Winner = INSTR
[DUEL] Epoch ended. INSTR misses = 80, DATA misses = 106. Winner = INSTR
[DUEL] Epoch ended. INSTR misses = 50, DATA misses = 82. Winner = INSTR
[DUEL] Epoch ended. INSTR misses = 25, DATA misses = 49. Winner = INSTR
[DUEL] Epoch ended. INSTR misses = 2, DATA misses = 58. Winner = INSTR
[DUEL] Epoch ended. INSTR misses = 0, DATA misses = 87. Winner = INSTR
[DUEL] Epoch ended. INSTR misses = 0, DATA misses = 65. Winner = INSTR
[DUEL] Epoch ended. INSTR misses = 4, DATA misses = 40. Winner = INSTR
[DUEL] Epoch ended. INSTR misses = 12, DATA misses = 50. Winner = INSTR
Heartbeat CPU 0 instructions: 30000006 cycles: 5000111 heartbeat IPC: 6 cumulative IPC: 6 (Simulation time: 00 hr 01 min 09 sec)
Warmup finished CPU 0 instructions: 30000006 cycles: 5000112 cumulative IPC: 6 (Simulation time: 00 hr 01 min 09 sec)
Warmup complete CPU 0 instructions: 30000006 cycles: 5000112 cumulative IPC: 6 (Simulation time: 00 hr 01 min 09 sec)
*** Reached end of trace: (0, "../traces/public_traces/compute_fp/compute_fp_5.champsimtrace.xz")
[DUEL] Epoch ended. INSTR misses = 32, DATA misses = 48. Winner = INSTR
[DUEL] Epoch ended. INSTR misses = 18, DATA misses = 18. Winner = INSTR
[DUEL] Epoch ended. INSTR misses = 3, DATA misses = 6. Winner = INSTR
[DUEL] Epoch ended. INSTR misses = 32, DATA misses = 43. Winner = INSTR
[DUEL] Epoch ended. INSTR misses = 2, DATA misses = 36. Winner = INSTR
[DUEL] Epoch ended. INSTR misses = 32, DATA misses = 63. Winner = INSTR
[DUEL] Epoch ended. INSTR misses = 17, DATA misses = 54. Winner = INSTR
[DUEL] Epoch ended. INSTR misses = 32, DATA misses = 57. Winner = INSTR
[DUEL] Epoch ended. INSTR misses = 17, DATA misses = 54. Winner = INSTR
[DUEL] Epoch ended. INSTR misses = 2, DATA misses = 40. Winner = INSTR
[DUEL] Epoch ended. INSTR misses = 32, DATA misses = 72. Winner = INSTR
[DUEL] Epoch ended. INSTR misses = 32, DATA misses = 66. Winner = INSTR
[DUEL] Epoch ended. INSTR misses = 34, DATA misses = 51. Winner = INSTR
[DUEL] Epoch ended. INSTR misses = 48, DATA misses = 68. Winner = INSTR
[DUEL] Epoch ended. INSTR misses = 33, DATA misses = 49. Winner = INSTR
[DUEL] Epoch ended. INSTR misses = 49, DATA misses = 67. Winner = INSTR
[DUEL] Epoch ended. INSTR misses = 19, DATA misses = 40. Winner = INSTR
[DUEL] Epoch ended. INSTR misses = 33, DATA misses = 58. Winner = INSTR
[DUEL] Epoch ended. INSTR misses = 17, DATA misses = 49. Winner = INSTR
[DUEL] Epoch ended. INSTR misses = 33, DATA misses = 67. Winner = INSTR
[DUEL] Epoch ended. INSTR misses = 33, DATA misses = 59. Winner = INSTR
[DUEL] Epoch ended. INSTR misses = 32, DATA misses = 60. Winner = INSTR
[DUEL] Epoch ended. INSTR misses = 17, DATA misses = 50. Winner = INSTR
[DUEL] Epoch ended. INSTR misses = 2, DATA misses = 49. Winner = INSTR
[DUEL] Epoch ended. INSTR misses = 32, DATA misses = 74. Winner = INSTR
[DUEL] Epoch ended. INSTR misses = 32, DATA misses = 59. Winner = INSTR
[DUEL] Epoch ended. INSTR misses = 16, DATA misses = 26. Winner = INSTR
[DUEL] Epoch ended. INSTR misses = 11, DATA misses = 24. Winner = INSTR
[DUEL] Epoch ended. INSTR misses = 16, DATA misses = 22. Winner = INSTR
[DUEL] Epoch ended. INSTR misses = 10, DATA misses = 22. Winner = INSTR
[DUEL] Epoch ended. INSTR misses = 17, DATA misses = 24. Winner = INSTR
[DUEL] Epoch ended. INSTR misses = 27, DATA misses = 37. Winner = INSTR
[DUEL] Epoch ended. INSTR misses = 17, DATA misses = 25. Winner = INSTR
[DUEL] Epoch ended. INSTR misses = 23, DATA misses = 33. Winner = INSTR
[DUEL] Epoch ended. INSTR misses = 8, DATA misses = 12. Winner = INSTR
[DUEL] Epoch ended. INSTR misses = 26, DATA misses = 40. Winner = INSTR
[DUEL] Epoch ended. INSTR misses = 12, DATA misses = 22. Winner = INSTR
[DUEL] Epoch ended. INSTR misses = 40, DATA misses = 52. Winner = INSTR
[DUEL] Epoch ended. INSTR misses = 20, DATA misses = 26. Winner = INSTR
Heartbeat CPU 0 instructions: 40000006 cycles: 10584964 heartbeat IPC: 1.791 cumulative IPC: 1.791 (Simulation time: 00 hr 02 min 06 sec)
[DUEL] Epoch ended. INSTR misses = 31, DATA misses = 40. Winner = INSTR
[DUEL] Epoch ended. INSTR misses = 26, DATA misses = 30. Winner = INSTR
[DUEL] Epoch ended. INSTR misses = 37, DATA misses = 41. Winner = INSTR
[DUEL] Epoch ended. INSTR misses = 30, DATA misses = 28. Winner = DATA
[DUEL] Epoch ended. INSTR misses = 36, DATA misses = 41. Winner = INSTR
[DUEL] Epoch ended. INSTR misses = 27, DATA misses = 31. Winner = INSTR
[DUEL] Epoch ended. INSTR misses = 37, DATA misses = 38. Winner = INSTR
[DUEL] Epoch ended. INSTR misses = 38, DATA misses = 76. Winner = INSTR
[DUEL] Epoch ended. INSTR misses = 12, DATA misses = 62. Winner = INSTR
[DUEL] Epoch ended. INSTR misses = 17, DATA misses = 65. Winner = INSTR
[DUEL] Epoch ended. INSTR misses = 56, DATA misses = 96. Winner = INSTR
[DUEL] Epoch ended. INSTR misses = 34, DATA misses = 68. Winner = INSTR
[DUEL] Epoch ended. INSTR misses = 1, DATA misses = 47. Winner = INSTR
[DUEL] Epoch ended. INSTR misses = 33, DATA misses = 83. Winner = INSTR
[DUEL] Epoch ended. INSTR misses = 1, DATA misses = 57. Winner = INSTR
[DUEL] Epoch ended. INSTR misses = 2, DATA misses = 56. Winner = INSTR
[DUEL] Epoch ended. INSTR misses = 32, DATA misses = 78. Winner = INSTR
[DUEL] Epoch ended. INSTR misses = 17, DATA misses = 51. Winner = INSTR
[DUEL] Epoch ended. INSTR misses = 16, DATA misses = 56. Winner = INSTR
[DUEL] Epoch ended. INSTR misses = 32, DATA misses = 84. Winner = INSTR
[DUEL] Epoch ended. INSTR misses = 17, DATA misses = 60. Winner = INSTR
[DUEL] Epoch ended. INSTR misses = 32, DATA misses = 99. Winner = INSTR
[DUEL] Epoch ended. INSTR misses = 49, DATA misses = 88. Winner = INSTR
[DUEL] Epoch ended. INSTR misses = 34, DATA misses = 79. Winner = INSTR
[DUEL] Epoch ended. INSTR misses = 16, DATA misses = 53. Winner = INSTR
[DUEL] Epoch ended. INSTR misses = 35, DATA misses = 62. Winner = INSTR
[DUEL] Epoch ended. INSTR misses = 2, DATA misses = 59. Winner = INSTR
[DUEL] Epoch ended. INSTR misses = 19, DATA misses = 78. Winner = INSTR
[DUEL] Epoch ended. INSTR misses = 1, DATA misses = 69. Winner = INSTR
[DUEL] Epoch ended. INSTR misses = 33, DATA misses = 101. Winner = INSTR
[DUEL] Epoch ended. INSTR misses = 48, DATA misses = 93. Winner = INSTR
[DUEL] Epoch ended. INSTR misses = 0, DATA misses = 53. Winner = INSTR
[DUEL] Epoch ended. INSTR misses = 19, DATA misses = 71. Winner = INSTR
[DUEL] Epoch ended. INSTR misses = 11, DATA misses = 59. Winner = INSTR
[DUEL] Epoch ended. INSTR misses = 51, DATA misses = 99. Winner = INSTR
[DUEL] Epoch ended. INSTR misses = 32, DATA misses = 81. Winner = INSTR
[DUEL] Epoch ended. INSTR misses = 49, DATA misses = 77. Winner = INSTR
[DUEL] Epoch ended. INSTR misses = 17, DATA misses = 80. Winner = INSTR
[DUEL] Epoch ended. INSTR misses = 0, DATA misses = 51. Winner = INSTR
Heartbeat CPU 0 instructions: 50000009 cycles: 23083005 heartbeat IPC: 0.8001 cumulative IPC: 1.106 (Simulation time: 00 hr 03 min 48 sec)
[DUEL] Epoch ended. INSTR misses = 80, DATA misses = 92. Winner = INSTR
[DUEL] Epoch ended. INSTR misses = 0, DATA misses = 46. Winner = INSTR
[DUEL] Epoch ended. INSTR misses = 33, DATA misses = 71. Winner = INSTR
[DUEL] Epoch ended. INSTR misses = 0, DATA misses = 58. Winner = INSTR
[DUEL] Epoch ended. INSTR misses = 0, DATA misses = 48. Winner = INSTR
[DUEL] Epoch ended. INSTR misses = 0, DATA misses = 52. Winner = INSTR
[DUEL] Epoch ended. INSTR misses = 1, DATA misses = 44. Winner = INSTR
[DUEL] Epoch ended. INSTR misses = 16, DATA misses = 64. Winner = INSTR
[DUEL] Epoch ended. INSTR misses = 80, DATA misses = 131. Winner = INSTR
[DUEL] Epoch ended. INSTR misses = 37, DATA misses = 100. Winner = INSTR
[DUEL] Epoch ended. INSTR misses = 3, DATA misses = 69. Winner = INSTR
[DUEL] Epoch ended. INSTR misses = 15, DATA misses = 81. Winner = INSTR
[DUEL] Epoch ended. INSTR misses = 0, DATA misses = 66. Winner = INSTR
[DUEL] Epoch ended. INSTR misses = 0, DATA misses = 88. Winner = INSTR
[DUEL] Epoch ended. INSTR misses = 49, DATA misses = 101. Winner = INSTR
[DUEL] Epoch ended. INSTR misses = 50, DATA misses = 105. Winner = INSTR
[DUEL] Epoch ended. INSTR misses = 2, DATA misses = 66. Winner = INSTR
[DUEL] Epoch ended. INSTR misses = 2, DATA misses = 42. Winner = INSTR
[DUEL] Epoch ended. INSTR misses = 32, DATA misses = 122. Winner = INSTR
[DUEL] Epoch ended. INSTR misses = 20, DATA misses = 75. Winner = INSTR
[DUEL] Epoch ended. INSTR misses = 18, DATA misses = 81. Winner = INSTR
[DUEL] Epoch ended. INSTR misses = 50, DATA misses = 88. Winner = INSTR
[DUEL] Epoch ended. INSTR misses = 68, DATA misses = 118. Winner = INSTR
[DUEL] Epoch ended. INSTR misses = 6, DATA misses = 47. Winner = INSTR
[DUEL] Epoch ended. INSTR misses = 0, DATA misses = 61. Winner = INSTR
[DUEL] Epoch ended. INSTR misses = 0, DATA misses = 55. Winner = INSTR
[DUEL] Epoch ended. INSTR misses = 0, DATA misses = 74. Winner = INSTR
[DUEL] Epoch ended. INSTR misses = 16, DATA misses = 66. Winner = INSTR
[DUEL] Epoch ended. INSTR misses = 49, DATA misses = 108. Winner = INSTR
[DUEL] Epoch ended. INSTR misses = 35, DATA misses = 85. Winner = INSTR
[DUEL] Epoch ended. INSTR misses = 11, DATA misses = 48. Winner = INSTR
[DUEL] Epoch ended. INSTR misses = 69, DATA misses = 108. Winner = INSTR
[DUEL] Epoch ended. INSTR misses = 65, DATA misses = 94. Winner = INSTR
[DUEL] Epoch ended. INSTR misses = 23, DATA misses = 56. Winner = INSTR
[DUEL] Epoch ended. INSTR misses = 5, DATA misses = 52. Winner = INSTR
[DUEL] Epoch ended. INSTR misses = 0, DATA misses = 80. Winner = INSTR
[DUEL] Epoch ended. INSTR misses = 0, DATA misses = 75. Winner = INSTR
[DUEL] Epoch ended. INSTR misses = 0, DATA misses = 43. Winner = INSTR
[DUEL] Epoch ended. INSTR misses = 16, DATA misses = 39. Winner = INSTR
Heartbeat CPU 0 instructions: 60000006 cycles: 37406563 heartbeat IPC: 0.6982 cumulative IPC: 0.9257 (Simulation time: 00 hr 05 min 41 sec)
*** Reached end of trace: (0, "../traces/public_traces/compute_fp/compute_fp_5.champsimtrace.xz")
[DUEL] Epoch ended. INSTR misses = 16, DATA misses = 43. Winner = INSTR
[DUEL] Epoch ended. INSTR misses = 18, DATA misses = 18. Winner = INSTR
[DUEL] Epoch ended. INSTR misses = 19, DATA misses = 24. Winner = INSTR
[DUEL] Epoch ended. INSTR misses = 32, DATA misses = 43. Winner = INSTR
[DUEL] Epoch ended. INSTR misses = 2, DATA misses = 36. Winner = INSTR
[DUEL] Epoch ended. INSTR misses = 32, DATA misses = 63. Winner = INSTR
[DUEL] Epoch ended. INSTR misses = 16, DATA misses = 46. Winner = INSTR
[DUEL] Epoch ended. INSTR misses = 19, DATA misses = 43. Winner = INSTR
[DUEL] Epoch ended. INSTR misses = 30, DATA misses = 62. Winner = INSTR
[DUEL] Epoch ended. INSTR misses = 2, DATA misses = 40. Winner = INSTR
[DUEL] Epoch ended. INSTR misses = 17, DATA misses = 63. Winner = INSTR
[DUEL] Epoch ended. INSTR misses = 32, DATA misses = 66. Winner = INSTR
[DUEL] Epoch ended. INSTR misses = 49, DATA misses = 68. Winner = INSTR
[DUEL] Epoch ended. INSTR misses = 33, DATA misses = 53. Winner = INSTR
[DUEL] Epoch ended. INSTR misses = 49, DATA misses = 66. Winner = INSTR
[DUEL] Epoch ended. INSTR misses = 49, DATA misses = 69. Winner = INSTR
[DUEL] Epoch ended. INSTR misses = 19, DATA misses = 42. Winner = INSTR
[DUEL] Epoch ended. INSTR misses = 33, DATA misses = 57. Winner = INSTR
[DUEL] Epoch ended. INSTR misses = 17, DATA misses = 45. Winner = INSTR
[DUEL] Epoch ended. INSTR misses = 33, DATA misses = 62. Winner = INSTR
[DUEL] Epoch ended. INSTR misses = 33, DATA misses = 63. Winner = INSTR
[DUEL] Epoch ended. INSTR misses = 32, DATA misses = 59. Winner = INSTR
[DUEL] Epoch ended. INSTR misses = 17, DATA misses = 50. Winner = INSTR
[DUEL] Epoch ended. INSTR misses = 2, DATA misses = 49. Winner = INSTR
[DUEL] Epoch ended. INSTR misses = 32, DATA misses = 67. Winner = INSTR
[DUEL] Epoch ended. INSTR misses = 32, DATA misses = 67. Winner = INSTR
[DUEL] Epoch ended. INSTR misses = 16, DATA misses = 31. Winner = INSTR
[DUEL] Epoch ended. INSTR misses = 6, DATA misses = 22. Winner = INSTR
[DUEL] Epoch ended. INSTR misses = 16, DATA misses = 22. Winner = INSTR
[DUEL] Epoch ended. INSTR misses = 8, DATA misses = 21. Winner = INSTR
[DUEL] Epoch ended. INSTR misses = 17, DATA misses = 24. Winner = INSTR
[DUEL] Epoch ended. INSTR misses = 25, DATA misses = 33. Winner = INSTR
[DUEL] Epoch ended. INSTR misses = 17, DATA misses = 25. Winner = INSTR
[DUEL] Epoch ended. INSTR misses = 16, DATA misses = 31. Winner = INSTR
[DUEL] Epoch ended. INSTR misses = 8, DATA misses = 12. Winner = INSTR
[DUEL] Epoch ended. INSTR misses = 24, DATA misses = 39. Winner = INSTR
[DUEL] Epoch ended. INSTR misses = 12, DATA misses = 20. Winner = INSTR
[DUEL] Epoch ended. INSTR misses = 35, DATA misses = 24. Winner = DATA
[DUEL] Epoch ended. INSTR misses = 20, DATA misses = 54. Winner = INSTR
Heartbeat CPU 0 instructions: 70000011 cycles: 43192322 heartbeat IPC: 1.728 cumulative IPC: 1.047 (Simulation time: 00 hr 06 min 39 sec)
[DUEL] Epoch ended. INSTR misses = 13, DATA misses = 12. Winner = DATA
[DUEL] Epoch ended. INSTR misses = 41, DATA misses = 52. Winner = INSTR
[DUEL] Epoch ended. INSTR misses = 13, DATA misses = 15. Winner = INSTR
[DUEL] Epoch ended. INSTR misses = 50, DATA misses = 52. Winner = INSTR
[DUEL] Epoch ended. INSTR misses = 21, DATA misses = 27. Winner = INSTR
[DUEL] Epoch ended. INSTR misses = 39, DATA misses = 45. Winner = INSTR
[DUEL] Epoch ended. INSTR misses = 23, DATA misses = 25. Winner = INSTR
[DUEL] Epoch ended. INSTR misses = 49, DATA misses = 75. Winner = INSTR
[DUEL] Epoch ended. INSTR misses = 14, DATA misses = 70. Winner = INSTR
[DUEL] Epoch ended. INSTR misses = 17, DATA misses = 62. Winner = INSTR
[DUEL] Epoch ended. INSTR misses = 56, DATA misses = 99. Winner = INSTR
[DUEL] Epoch ended. INSTR misses = 34, DATA misses = 66. Winner = INSTR
[DUEL] Epoch ended. INSTR misses = 1, DATA misses = 47. Winner = INSTR
[DUEL] Epoch ended. INSTR misses = 17, DATA misses = 69. Winner = INSTR
[DUEL] Epoch ended. INSTR misses = 17, DATA misses = 70. Winner = INSTR
[DUEL] Epoch ended. INSTR misses = 2, DATA misses = 58. Winner = INSTR
[DUEL] Epoch ended. INSTR misses = 32, DATA misses = 70. Winner = INSTR
[DUEL] Epoch ended. INSTR misses = 17, DATA misses = 63. Winner = INSTR
[DUEL] Epoch ended. INSTR misses = 16, DATA misses = 50. Winner = INSTR
[DUEL] Epoch ended. INSTR misses = 32, DATA misses = 80. Winner = INSTR
[DUEL] Epoch ended. INSTR misses = 11, DATA misses = 60. Winner = INSTR
[DUEL] Epoch ended. INSTR misses = 6, DATA misses = 76. Winner = INSTR
[DUEL] Epoch ended. INSTR misses = 80, DATA misses = 117. Winner = INSTR
[DUEL] Epoch ended. INSTR misses = 35, DATA misses = 79. Winner = INSTR
[DUEL] Epoch ended. INSTR misses = 0, DATA misses = 33. Winner = INSTR
[DUEL] Epoch ended. INSTR misses = 50, DATA misses = 78. Winner = INSTR
[DUEL] Epoch ended. INSTR misses = 3, DATA misses = 55. Winner = INSTR
[DUEL] Epoch ended. INSTR misses = 18, DATA misses = 72. Winner = INSTR
[DUEL] Epoch ended. INSTR misses = 2, DATA misses = 75. Winner = INSTR
[DUEL] Epoch ended. INSTR misses = 17, DATA misses = 91. Winner = INSTR
[DUEL] Epoch ended. INSTR misses = 64, DATA misses = 109. Winner = INSTR
[DUEL] Epoch ended. INSTR misses = 0, DATA misses = 55. Winner = INSTR
[DUEL] Epoch ended. INSTR misses = 19, DATA misses = 63. Winner = INSTR
[DUEL] Epoch ended. INSTR misses = 8, DATA misses = 68. Winner = INSTR
[DUEL] Epoch ended. INSTR misses = 53, DATA misses = 97. Winner = INSTR
[DUEL] Epoch ended. INSTR misses = 33, DATA misses = 79. Winner = INSTR
[DUEL] Epoch ended. INSTR misses = 33, DATA misses = 63. Winner = INSTR
[DUEL] Epoch ended. INSTR misses = 18, DATA misses = 76. Winner = INSTR
[DUEL] Epoch ended. INSTR misses = 15, DATA misses = 69. Winner = INSTR
Heartbeat CPU 0 instructions: 80000003 cycles: 55555822 heartbeat IPC: 0.8088 cumulative IPC: 0.989 (Simulation time: 00 hr 08 min 20 sec)
[DUEL] Epoch ended. INSTR misses = 64, DATA misses = 84. Winner = INSTR
[DUEL] Epoch ended. INSTR misses = 16, DATA misses = 58. Winner = INSTR
[DUEL] Epoch ended. INSTR misses = 33, DATA misses = 67. Winner = INSTR
[DUEL] Epoch ended. INSTR misses = 0, DATA misses = 58. Winner = INSTR
[DUEL] Epoch ended. INSTR misses = 0, DATA misses = 51. Winner = INSTR
[DUEL] Epoch ended. INSTR misses = 0, DATA misses = 50. Winner = INSTR
[DUEL] Epoch ended. INSTR misses = 1, DATA misses = 45. Winner = INSTR
[DUEL] Epoch ended. INSTR misses = 16, DATA misses = 61. Winner = INSTR
[DUEL] Epoch ended. INSTR misses = 64, DATA misses = 118. Winner = INSTR
[DUEL] Epoch ended. INSTR misses = 50, DATA misses = 113. Winner = INSTR
[DUEL] Epoch ended. INSTR misses = 4, DATA misses = 63. Winner = INSTR
[DUEL] Epoch ended. INSTR misses = 0, DATA misses = 77. Winner = INSTR
[DUEL] Epoch ended. INSTR misses = 15, DATA misses = 75. Winner = INSTR
[DUEL] Epoch ended. INSTR misses = 0, DATA misses = 81. Winner = INSTR
[DUEL] Epoch ended. INSTR misses = 33, DATA misses = 100. Winner = INSTR
[DUEL] Epoch ended. INSTR misses = 65, DATA misses = 114. Winner = INSTR
[DUEL] Epoch ended. INSTR misses = 3, DATA misses = 73. Winner = INSTR
[DUEL] Epoch ended. INSTR misses = 2, DATA misses = 36. Winner = INSTR
[DUEL] Epoch ended. INSTR misses = 16, DATA misses = 100. Winner = INSTR
[DUEL] Epoch ended. INSTR misses = 35, DATA misses = 90. Winner = INSTR
[DUEL] Epoch ended. INSTR misses = 18, DATA misses = 90. Winner = INSTR
[DUEL] Epoch ended. INSTR misses = 35, DATA misses = 84. Winner = INSTR
[DUEL] Epoch ended. INSTR misses = 69, DATA misses = 102. Winner = INSTR
[DUEL] Epoch ended. INSTR misses = 21, DATA misses = 64. Winner = INSTR
[DUEL] Epoch ended. INSTR misses = 0, DATA misses = 57. Winner = INSTR
[DUEL] Epoch ended. INSTR misses = 0, DATA misses = 56. Winner = INSTR
[DUEL] Epoch ended. INSTR misses = 0, DATA misses = 80. Winner = INSTR
[DUEL] Epoch ended. INSTR misses = 16, DATA misses = 59. Winner = INSTR
[DUEL] Epoch ended. INSTR misses = 48, DATA misses = 111. Winner = INSTR
[DUEL] Epoch ended. INSTR misses = 35, DATA misses = 84. Winner = INSTR
[DUEL] Epoch ended. INSTR misses = 1, DATA misses = 56. Winner = INSTR
[DUEL] Epoch ended. INSTR misses = 80, DATA misses = 109. Winner = INSTR
[DUEL] Epoch ended. INSTR misses = 64, DATA misses = 87. Winner = INSTR
[DUEL] Epoch ended. INSTR misses = 22, DATA misses = 63. Winner = INSTR
[DUEL] Epoch ended. INSTR misses = 6, DATA misses = 41. Winner = INSTR
[DUEL] Epoch ended. INSTR misses = 0, DATA misses = 82. Winner = INSTR
[DUEL] Epoch ended. INSTR misses = 0, DATA misses = 79. Winner = INSTR
[DUEL] Epoch ended. INSTR misses = 0, DATA misses = 48. Winner = INSTR
[DUEL] Epoch ended. INSTR misses = 16, DATA misses = 34. Winner = INSTR
Heartbeat CPU 0 instructions: 90000011 cycles: 69870295 heartbeat IPC: 0.6986 cumulative IPC: 0.9249 (Simulation time: 00 hr 10 min 14 sec)
*** Reached end of trace: (0, "../traces/public_traces/compute_fp/compute_fp_5.champsimtrace.xz")
[DUEL] Epoch ended. INSTR misses = 16, DATA misses = 50. Winner = INSTR
[DUEL] Epoch ended. INSTR misses = 17, DATA misses = 18. Winner = INSTR
[DUEL] Epoch ended. INSTR misses = 19, DATA misses = 21. Winner = INSTR
[DUEL] Epoch ended. INSTR misses = 17, DATA misses = 30. Winner = INSTR
[DUEL] Epoch ended. INSTR misses = 17, DATA misses = 41. Winner = INSTR
[DUEL] Epoch ended. INSTR misses = 17, DATA misses = 52. Winner = INSTR
[DUEL] Epoch ended. INSTR misses = 32, DATA misses = 64. Winner = INSTR
[DUEL] Epoch ended. INSTR misses = 17, DATA misses = 47. Winner = INSTR
[DUEL] Epoch ended. INSTR misses = 32, DATA misses = 62. Winner = INSTR
[DUEL] Epoch ended. INSTR misses = 2, DATA misses = 40. Winner = INSTR
[DUEL] Epoch ended. INSTR misses = 17, DATA misses = 53. Winner = INSTR
[DUEL] Epoch ended. INSTR misses = 32, DATA misses = 71. Winner = INSTR
[DUEL] Epoch ended. INSTR misses = 33, DATA misses = 57. Winner = INSTR
[DUEL] Epoch ended. INSTR misses = 49, DATA misses = 61. Winner = INSTR
[DUEL] Epoch ended. INSTR misses = 33, DATA misses = 58. Winner = INSTR
[DUEL] Epoch ended. INSTR misses = 49, DATA misses = 62. Winner = INSTR
[DUEL] Epoch ended. INSTR misses = 34, DATA misses = 58. Winner = INSTR
[DUEL] Epoch ended. INSTR misses = 34, DATA misses = 57. Winner = INSTR
[DUEL] Epoch ended. INSTR misses = 17, DATA misses = 50. Winner = INSTR
[DUEL] Epoch ended. INSTR misses = 33, DATA misses = 60. Winner = INSTR
[DUEL] Epoch ended. INSTR misses = 33, DATA misses = 67. Winner = INSTR
[DUEL] Epoch ended. INSTR misses = 32, DATA misses = 59. Winner = INSTR
[DUEL] Epoch ended. INSTR misses = 17, DATA misses = 50. Winner = INSTR
[DUEL] Epoch ended. INSTR misses = 2, DATA misses = 39. Winner = INSTR
[DUEL] Epoch ended. INSTR misses = 27, DATA misses = 60. Winner = INSTR
[DUEL] Epoch ended. INSTR misses = 21, DATA misses = 61. Winner = INSTR
[DUEL] Epoch ended. INSTR misses = 32, DATA misses = 54. Winner = INSTR
[DUEL] Epoch ended. INSTR misses = 1, DATA misses = 15. Winner = INSTR
[DUEL] Epoch ended. INSTR misses = 21, DATA misses = 25. Winner = INSTR
[DUEL] Epoch ended. INSTR misses = 1, DATA misses = 13. Winner = INSTR
[DUEL] Epoch ended. INSTR misses = 23, DATA misses = 34. Winner = INSTR
[DUEL] Epoch ended. INSTR misses = 21, DATA misses = 23. Winner = INSTR
[DUEL] Epoch ended. INSTR misses = 19, DATA misses = 35. Winner = INSTR
[DUEL] Epoch ended. INSTR misses = 12, DATA misses = 20. Winner = INSTR
[DUEL] Epoch ended. INSTR misses = 10, DATA misses = 22. Winner = INSTR
[DUEL] Epoch ended. INSTR misses = 8, DATA misses = 23. Winner = INSTR
[DUEL] Epoch ended. INSTR misses = 26, DATA misses = 35. Winner = INSTR
[DUEL] Epoch ended. INSTR misses = 13, DATA misses = 24. Winner = INSTR
[DUEL] Epoch ended. INSTR misses = 41, DATA misses = 54. Winner = INSTR
Heartbeat CPU 0 instructions: 100000000 cycles: 75605862 heartbeat IPC: 1.744 cumulative IPC: 0.9914 (Simulation time: 00 hr 11 min 11 sec)
[DUEL] Epoch ended. INSTR misses = 13, DATA misses = 11. Winner = DATA
[DUEL] Epoch ended. INSTR misses = 39, DATA misses = 52. Winner = INSTR
[DUEL] Epoch ended. INSTR misses = 13, DATA misses = 15. Winner = INSTR
[DUEL] Epoch ended. INSTR misses = 50, DATA misses = 51. Winner = INSTR
[DUEL] Epoch ended. INSTR misses = 21, DATA misses = 27. Winner = INSTR
[DUEL] Epoch ended. INSTR misses = 39, DATA misses = 45. Winner = INSTR
[DUEL] Epoch ended. INSTR misses = 23, DATA misses = 25. Winner = INSTR
[DUEL] Epoch ended. INSTR misses = 46, DATA misses = 63. Winner = INSTR
[DUEL] Epoch ended. INSTR misses = 16, DATA misses = 75. Winner = INSTR
[DUEL] Epoch ended. INSTR misses = 17, DATA misses = 60. Winner = INSTR
[DUEL] Epoch ended. INSTR misses = 28, DATA misses = 75. Winner = INSTR
[DUEL] Epoch ended. INSTR misses = 61, DATA misses = 85. Winner = INSTR
[DUEL] Epoch ended. INSTR misses = 2, DATA misses = 53. Winner = INSTR
[DUEL] Epoch ended. INSTR misses = 17, DATA misses = 68. Winner = INSTR
[DUEL] Epoch ended. INSTR misses = 17, DATA misses = 69. Winner = INSTR
[DUEL] Epoch ended. INSTR misses = 1, DATA misses = 55. Winner = INSTR
[DUEL] Epoch ended. INSTR misses = 33, DATA misses = 74. Winner = INSTR
[DUEL] Epoch ended. INSTR misses = 17, DATA misses = 66. Winner = INSTR
[DUEL] Epoch ended. INSTR misses = 16, DATA misses = 47. Winner = INSTR
[DUEL] Epoch ended. INSTR misses = 32, DATA misses = 82. Winner = INSTR
[DUEL] Epoch ended. INSTR misses = 6, DATA misses = 59. Winner = INSTR
[DUEL] Epoch ended. INSTR misses = 11, DATA misses = 77. Winner = INSTR
[DUEL] Epoch ended. INSTR misses = 64, DATA misses = 103. Winner = INSTR
[DUEL] Epoch ended. INSTR misses = 51, DATA misses = 91. Winner = INSTR
[DUEL] Epoch ended. INSTR misses = 0, DATA misses = 37. Winner = INSTR
[DUEL] Epoch ended. INSTR misses = 50, DATA misses = 75. Winner = INSTR
[DUEL] Epoch ended. INSTR misses = 3, DATA misses = 50. Winner = INSTR
[DUEL] Epoch ended. INSTR misses = 17, DATA misses = 73. Winner = INSTR
[DUEL] Epoch ended. INSTR misses = 3, DATA misses = 76. Winner = INSTR
[DUEL] Epoch ended. INSTR misses = 16, DATA misses = 92. Winner = INSTR
[DUEL] Epoch ended. INSTR misses = 65, DATA misses = 112. Winner = INSTR
[DUEL] Epoch ended. INSTR misses = 0, DATA misses = 50. Winner = INSTR
[DUEL] Epoch ended. INSTR misses = 18, DATA misses = 65. Winner = INSTR
[DUEL] Epoch ended. INSTR misses = 5, DATA misses = 66. Winner = INSTR
[DUEL] Epoch ended. INSTR misses = 41, DATA misses = 86. Winner = INSTR
[DUEL] Epoch ended. INSTR misses = 49, DATA misses = 95. Winner = INSTR
[DUEL] Epoch ended. INSTR misses = 17, DATA misses = 49. Winner = INSTR
[DUEL] Epoch ended. INSTR misses = 34, DATA misses = 86. Winner = INSTR
[DUEL] Epoch ended. INSTR misses = 15, DATA misses = 72. Winner = INSTR
Heartbeat CPU 0 instructions: 110000008 cycles: 87822186 heartbeat IPC: 0.8186 cumulative IPC: 0.9659 (Simulation time: 00 hr 12 min 50 sec)
[DUEL] Epoch ended. INSTR misses = 48, DATA misses = 73. Winner = INSTR
[DUEL] Epoch ended. INSTR misses = 32, DATA misses = 68. Winner = INSTR
[DUEL] Epoch ended. INSTR misses = 33, DATA misses = 64. Winner = INSTR
[DUEL] Epoch ended. INSTR misses = 0, DATA misses = 57. Winner = INSTR
[DUEL] Epoch ended. INSTR misses = 0, DATA misses = 52. Winner = INSTR
[DUEL] Epoch ended. INSTR misses = 0, DATA misses = 58. Winner = INSTR
[DUEL] Epoch ended. INSTR misses = 1, DATA misses = 41. Winner = INSTR
[DUEL] Epoch ended. INSTR misses = 0, DATA misses = 44. Winner = INSTR
[DUEL] Epoch ended. INSTR misses = 80, DATA misses = 130. Winner = INSTR
[DUEL] Epoch ended. INSTR misses = 34, DATA misses = 102. Winner = INSTR
[DUEL] Epoch ended. INSTR misses = 20, DATA misses = 77. Winner = INSTR
[DUEL] Epoch ended. INSTR misses = 0, DATA misses = 73. Winner = INSTR
[DUEL] Epoch ended. INSTR misses = 15, DATA misses = 80. Winner = INSTR
[DUEL] Epoch ended. INSTR misses = 0, DATA misses = 75. Winner = INSTR
[DUEL] Epoch ended. INSTR misses = 32, DATA misses = 109. Winner = INSTR
[DUEL] Epoch ended. INSTR misses = 65, DATA misses = 109. Winner = INSTR
[DUEL] Epoch ended. INSTR misses = 4, DATA misses = 77. Winner = INSTR
[DUEL] Epoch ended. INSTR misses = 2, DATA misses = 33. Winner = INSTR
[DUEL] Epoch ended. INSTR misses = 16, DATA misses = 94. Winner = INSTR
[DUEL] Epoch ended. INSTR misses = 34, DATA misses = 94. Winner = INSTR
[DUEL] Epoch ended. INSTR misses = 3, DATA misses = 76. Winner = INSTR
[DUEL] Epoch ended. INSTR misses = 50, DATA misses = 98. Winner = INSTR
[DUEL] Epoch ended. INSTR misses = 65, DATA misses = 109. Winner = INSTR
[DUEL] Epoch ended. INSTR misses = 26, DATA misses = 55. Winner = INSTR
[DUEL] Epoch ended. INSTR misses = 0, DATA misses = 64. Winner = INSTR
[DUEL] Epoch ended. INSTR misses = 0, DATA misses = 56. Winner = INSTR
[DUEL] Epoch ended. INSTR misses = 0, DATA misses = 73. Winner = INSTR
[DUEL] Epoch ended. INSTR misses = 15, DATA misses = 62. Winner = INSTR
[DUEL] Epoch ended. INSTR misses = 33, DATA misses = 99. Winner = INSTR
[DUEL] Epoch ended. INSTR misses = 50, DATA misses = 99. Winner = INSTR
[DUEL] Epoch ended. INSTR misses = 2, DATA misses = 53. Winner = INSTR
[DUEL] Epoch ended. INSTR misses = 64, DATA misses = 100. Winner = INSTR
[DUEL] Epoch ended. INSTR misses = 80, DATA misses = 106. Winner = INSTR
[DUEL] Epoch ended. INSTR misses = 4, DATA misses = 41. Winner = INSTR
[DUEL] Epoch ended. INSTR misses = 23, DATA misses = 51. Winner = INSTR
[DUEL] Epoch ended. INSTR misses = 0, DATA misses = 80. Winner = INSTR
[DUEL] Epoch ended. INSTR misses = 0, DATA misses = 86. Winner = INSTR
[DUEL] Epoch ended. INSTR misses = 0, DATA misses = 48. Winner = INSTR
[DUEL] Epoch ended. INSTR misses = 16, DATA misses = 32. Winner = INSTR
Heartbeat CPU 0 instructions: 120000003 cycles: 102127327 heartbeat IPC: 0.699 cumulative IPC: 0.9266 (Simulation time: 00 hr 14 min 43 sec)
*** Reached end of trace: (0, "../traces/public_traces/compute_fp/compute_fp_5.champsimtrace.xz")
[DUEL] Epoch ended. INSTR misses = 16, DATA misses = 59. Winner = INSTR
[DUEL] Epoch ended. INSTR misses = 17, DATA misses = 18. Winner = INSTR
[DUEL] Epoch ended. INSTR misses = 18, DATA misses = 21. Winner = INSTR
[DUEL] Epoch ended. INSTR misses = 18, DATA misses = 26. Winner = INSTR
[DUEL] Epoch ended. INSTR misses = 17, DATA misses = 37. Winner = INSTR
[DUEL] Epoch ended. INSTR misses = 17, DATA misses = 48. Winner = INSTR
[DUEL] Epoch ended. INSTR misses = 32, DATA misses = 70. Winner = INSTR
[DUEL] Epoch ended. INSTR misses = 17, DATA misses = 46. Winner = INSTR
[DUEL] Epoch ended. INSTR misses = 32, DATA misses = 62. Winner = INSTR
[DUEL] Epoch ended. INSTR misses = 2, DATA misses = 40. Winner = INSTR
[DUEL] Epoch ended. INSTR misses = 17, DATA misses = 56. Winner = INSTR
[DUEL] Epoch ended. INSTR misses = 32, DATA misses = 73. Winner = INSTR
[DUEL] Epoch ended. INSTR misses = 33, DATA misses = 59. Winner = INSTR
[DUEL] Epoch ended. INSTR misses = 49, DATA misses = 61. Winner = INSTR
[DUEL] Epoch ended. INSTR misses = 33, DATA misses = 58. Winner = INSTR
[DUEL] Epoch ended. INSTR misses = 49, DATA misses = 62. Winner = INSTR
[DUEL] Epoch ended. INSTR misses = 32, DATA misses = 43. Winner = INSTR
[DUEL] Epoch ended. INSTR misses = 20, DATA misses = 50. Winner = INSTR
[DUEL] Epoch ended. INSTR misses = 32, DATA misses = 59. Winner = INSTR
[DUEL] Epoch ended. INSTR misses = 18, DATA misses = 50. Winner = INSTR
[DUEL] Epoch ended. INSTR misses = 33, DATA misses = 67. Winner = INSTR
[DUEL] Epoch ended. INSTR misses = 32, DATA misses = 59. Winner = INSTR
[DUEL] Epoch ended. INSTR misses = 17, DATA misses = 50. Winner = INSTR
[DUEL] Epoch ended. INSTR misses = 17, DATA misses = 58. Winner = INSTR
[DUEL] Epoch ended. INSTR misses = 17, DATA misses = 58. Winner = INSTR
[DUEL] Epoch ended. INSTR misses = 32, DATA misses = 67. Winner = INSTR
[DUEL] Epoch ended. INSTR misses = 32, DATA misses = 54. Winner = INSTR
[DUEL] Epoch ended. INSTR misses = 1, DATA misses = 14. Winner = INSTR
[DUEL] Epoch ended. INSTR misses = 21, DATA misses = 25. Winner = INSTR
[DUEL] Epoch ended. INSTR misses = 1, DATA misses = 13. Winner = INSTR
[DUEL] Epoch ended. INSTR misses = 23, DATA misses = 33. Winner = INSTR
[DUEL] Epoch ended. INSTR misses = 20, DATA misses = 23. Winner = INSTR
[DUEL] Epoch ended. INSTR misses = 19, DATA misses = 35. Winner = INSTR
[DUEL] Epoch ended. INSTR misses = 10, DATA misses = 19. Winner = INSTR
[DUEL] Epoch ended. INSTR misses = 9, DATA misses = 22. Winner = INSTR
[DUEL] Epoch ended. INSTR misses = 8, DATA misses = 23. Winner = INSTR
[DUEL] Epoch ended. INSTR misses = 25, DATA misses = 35. Winner = INSTR
[DUEL] Epoch ended. INSTR misses = 13, DATA misses = 24. Winner = INSTR
[DUEL] Epoch ended. INSTR misses = 40, DATA misses = 53. Winner = INSTR
Heartbeat CPU 0 instructions: 130000003 cycles: 107852628 heartbeat IPC: 1.747 cumulative IPC: 0.9723 (Simulation time: 00 hr 15 min 40 sec)
Simulation finished CPU 0 instructions: 100000009 cycles: 102852518 cumulative IPC: 0.9723 (Simulation time: 00 hr 15 min 40 sec)
Simulation complete CPU 0 instructions: 100000009 cycles: 102852518 cumulative IPC: 0.9723 (Simulation time: 00 hr 15 min 40 sec)

ChampSim completed all CPUs

=== Simulation ===
CPU 0 runs ../traces/public_traces/compute_fp/compute_fp_5.champsimtrace.xz
Region of Interest Statistics

CPU 0 cumulative IPC: 0.9723 instructions: 100000009 cycles: 102852518
CPU 0 Branch Prediction Accuracy: 100% MPKI: 0.00042 Average ROB Occupancy at Mispredict: 302
Branch type MPKI
BRANCH_DIRECT_JUMP: 0
BRANCH_INDIRECT: 5e-05
BRANCH_CONDITIONAL: 0.00033
BRANCH_DIRECT_CALL: 0
BRANCH_INDIRECT_CALL: 0
BRANCH_RETURN: 4e-05

LLC TOTAL        ACCESS:    4239165 HIT:     301780 MISS:    3937385
LLC LOAD         ACCESS:    1083452 HIT:       5987 MISS:    1077465
LLC RFO          ACCESS:     610011 HIT:     123517 MISS:     486494
LLC PREFETCH     ACCESS:    1878044 HIT:      35197 MISS:    1842847
LLC WRITE        ACCESS:     664610 HIT:     136630 MISS:     527980
LLC TRANSLATION  ACCESS:       3048 HIT:        449 MISS:       2599
LLC PREFETCH REQUESTED:          0 ISSUED:          0 USEFUL:          0 USELESS:          0
LLC AVERAGE MISS LATENCY: 491.1 cycles
cpu0_DTLB TOTAL        ACCESS:   14571512 HIT:   13481922 MISS:    1089590
cpu0_DTLB LOAD         ACCESS:   14571512 HIT:   13481922 MISS:    1089590
cpu0_DTLB RFO          ACCESS:          0 HIT:          0 MISS:          0
cpu0_DTLB PREFETCH     ACCESS:          0 HIT:          0 MISS:          0
cpu0_DTLB WRITE        ACCESS:          0 HIT:          0 MISS:          0
cpu0_DTLB TRANSLATION  ACCESS:          0 HIT:          0 MISS:          0
cpu0_DTLB PREFETCH REQUESTED:          0 ISSUED:          0 USEFUL:          0 USELESS:          0
cpu0_DTLB AVERAGE MISS LATENCY: 5.639 cycles
cpu0_ITLB TOTAL        ACCESS:       9513 HIT:       9513 MISS:          0
cpu0_ITLB LOAD         ACCESS:       9513 HIT:       9513 MISS:          0
cpu0_ITLB RFO          ACCESS:          0 HIT:          0 MISS:          0
cpu0_ITLB PREFETCH     ACCESS:          0 HIT:          0 MISS:          0
cpu0_ITLB WRITE        ACCESS:          0 HIT:          0 MISS:          0
cpu0_ITLB TRANSLATION  ACCESS:          0 HIT:          0 MISS:          0
cpu0_ITLB PREFETCH REQUESTED:          0 ISSUED:          0 USEFUL:          0 USELESS:          0
cpu0_ITLB AVERAGE MISS LATENCY: -nan cycles
cpu0_L1D TOTAL        ACCESS:   26219227 HIT:   11987469 MISS:   14231758
cpu0_L1D LOAD         ACCESS:   12102854 HIT:    4408000 MISS:    7694854
cpu0_L1D RFO          ACCESS:          0 HIT:          0 MISS:          0
cpu0_L1D PREFETCH     ACCESS:    5018700 HIT:    2687258 MISS:    2331442
cpu0_L1D WRITE        ACCESS:    8889810 HIT:    4719669 MISS:    4170141
cpu0_L1D TRANSLATION  ACCESS:     207863 HIT:     172542 MISS:      35321
cpu0_L1D PREFETCH REQUESTED:   22139614 ISSUED:    5018732 USEFUL:     320447 USELESS:        343
cpu0_L1D AVERAGE MISS LATENCY: 70.77 cycles
cpu0_L1I TOTAL        ACCESS:      13868 HIT:      13769 MISS:         99
cpu0_L1I LOAD         ACCESS:       7066 HIT:       7016 MISS:         50
cpu0_L1I RFO          ACCESS:          0 HIT:          0 MISS:          0
cpu0_L1I PREFETCH     ACCESS:       6802 HIT:       6753 MISS:         49
cpu0_L1I WRITE        ACCESS:          0 HIT:          0 MISS:          0
cpu0_L1I TRANSLATION  ACCESS:          0 HIT:          0 MISS:          0
cpu0_L1I PREFETCH REQUESTED:       7737 ISSUED:       6802 USEFUL:         25 USELESS:          3
cpu0_L1I AVERAGE MISS LATENCY: 176 cycles
cpu0_L2C TOTAL        ACCESS:   11205310 HIT:    5091147 MISS:    6114163
cpu0_L2C LOAD         ACCESS:    3038435 HIT:    1627888 MISS:    1410547
cpu0_L2C RFO          ACCESS:     644576 HIT:      34498 MISS:     610078
cpu0_L2C PREFETCH     ACCESS:    6808951 HIT:    2718469 MISS:    4090482
cpu0_L2C WRITE        ACCESS:     678412 HIT:     678404 MISS:          8
cpu0_L2C TRANSLATION  ACCESS:      34936 HIT:      31888 MISS:       3048
cpu0_L2C PREFETCH REQUESTED:    5301592 ISSUED:    4857698 USEFUL:     887812 USELESS:     507424
cpu0_L2C AVERAGE MISS LATENCY: 317.9 cycles
cpu0_STLB TOTAL        ACCESS:     463852 HIT:     256547 MISS:     207305
cpu0_STLB LOAD         ACCESS:     463852 HIT:     256547 MISS:     207305
cpu0_STLB RFO          ACCESS:          0 HIT:          0 MISS:          0
cpu0_STLB PREFETCH     ACCESS:          0 HIT:          0 MISS:          0
cpu0_STLB WRITE        ACCESS:          0 HIT:          0 MISS:          0
cpu0_STLB TRANSLATION  ACCESS:          0 HIT:          0 MISS:          0
cpu0_STLB PREFETCH REQUESTED:          0 ISSUED:          0 USEFUL:          0 USELESS:          0
cpu0_STLB AVERAGE MISS LATENCY: 21.5 cycles

DRAM Statistics

Channel 0 RQ ROW_BUFFER_HIT:     828918
  ROW_BUFFER_MISS:     891838
 AVG DBUS CONGESTED CYCLE: 3.937
WQ ROW_BUFFER_HIT: Channel 0 
  ROW_BUFFER_MISS:      78857
  FULL:     181056

Channel 1 RQ ROW_BUFFER_HIT:     828535
  ROW_BUFFER_MISS:     860105
 AVG DBUS CONGESTED CYCLE: 3.934
WQ ROW_BUFFER_HIT: Channel 1 
  ROW_BUFFER_MISS:      76956
  FULL:     200290
BERTI TO_L1: 6610147 TO_L2: 21607208 TO_L2_BC_MSHR: 11509028
BERTI AVG_LAT: 221.022 NUM_TRACK_LATENCY: 4424035 NUM_CANT_TRACK_LATENCY: 11
BERTI CROSS_PAGE 10277438 NO_CROSS_PAGE: 17939917
BERTI FOUND_BERTI: 11386507 NO_FOUND_BERTI: 11572487
BERTI AVERAGE_ISSUED: 3.59611
CPU 0 L1I Entangling prefetcher final stats
IP accesses: 579 15e40 86 / 7066
IP misses: 3847 e11c0 20 / 50
IP hits: 0 0 0 / 0
IP late: 30c7 c31c0 10 / 33
IP wrong: 507 141c0 3 / 3
miss rate: 0.00707614
coverage: 0
coverage_late: 0.660001
accuracy: 0
accuracy_late: 0.916667
discarded: 0
evicts entangled j table: 0
evicts entangled k table: 1
max bb size: 18
formats: 1 0 0 0 0 0 0 
hist_lookups: 0 0 0 0 2 1 0 0 0 0 0 0 0 0 0 0 0 213 
hist_lookups_evict: 0 %
hist_lookups_shortlat: 98.6112 %
bb_found_hist: 0 1288 476 178 64 20 50 39 0 0 0 10 6 0 0 0 0 0 3 0 0 0 0 0 0 0 0 0 0 0 0 0 0 0 0 0 0 0 0 0 0 0 0 0 0 0 0 0 0 0 0 0 0 0 0 0 0 0 0 0 0 0 0 0 
bb_found_summary: 3939 2134 1.84583
entangled_found_hist: 0 518 156 199 34 10 0 0 
entangled_found_summary: 1613 917 1.759
bb_ent_found_hist: 0 466 254 110 20 20 49 3 0 0 0 10 15 0 0 0 0 0 7 0 0 0 0 0 0 0 0 0 0 0 0 0 0 0 0 0 0 0 0 0 0 0 0 0 0 0 0 0 0 0 0 0 0 0 0 0 0 0 0 0 0 0 0 0 
bb_ent_found_summary: 2215 954 2.32181
