WARNING: physical memory size is smaller than virtual memory size.

*** ChampSim Multicore Out-of-Order Simulator ***
Warmup Instructions: 30000000
Simulation Instructions: 100000000
Number of CPUs: 1
Page size: 4096

BTB:
Basic BTB sets: 1024 ways: 8
Indirect:
history lengths: 0 0 10 16 27 44 60 96 109 219 449 487 714 1313 2146 3881 
ITTAGE tables: 64768 bytes;Region table: 240 bytes;IUM: 384 bytes;Total Storage= 65392 bytes;
RAS:
RAS size: 64
[LLC] INSTR Demand IPV: 1 2 2 1 4 Prefetch IPV: 1 2 1 1 4
[LLC] DATA  Demand IPV: 1 1 1 2 4 Prefetch IPV: 1 1 2 2 4
Berti Prefetcher
CPU 0 Entangling prefetcher
Off-chip DRAM Size: 8 GiB Channels: 2 Width: 64-bit Data Race: 6400 MT/s
[DUEL] Epoch ended. INSTR misses = 17, DATA misses = 16. Winner = DATA
[DUEL] Epoch ended. INSTR misses = 16, DATA misses = 16. Winner = INSTR
[DUEL] Epoch ended. INSTR misses = 16, DATA misses = 16. Winner = INSTR
[DUEL] Epoch ended. INSTR misses = 31, DATA misses = 31. Winner = INSTR
[DUEL] Epoch ended. INSTR misses = 79, DATA misses = 90. Winner = INSTR
[DUEL] Epoch ended. INSTR misses = 88, DATA misses = 73. Winner = DATA
[DUEL] Epoch ended. INSTR misses = 84, DATA misses = 84. Winner = INSTR
[DUEL] Epoch ended. INSTR misses = 95, DATA misses = 84. Winner = DATA
[DUEL] Epoch ended. INSTR misses = 64, DATA misses = 63. Winner = DATA
[DUEL] Epoch ended. INSTR misses = 37, DATA misses = 22. Winner = DATA
[DUEL] Epoch ended. INSTR misses = 29, DATA misses = 34. Winner = INSTR
[DUEL] Epoch ended. INSTR misses = 59, DATA misses = 67. Winner = INSTR
[DUEL] Epoch ended. INSTR misses = 34, DATA misses = 32. Winner = DATA
[DUEL] Epoch ended. INSTR misses = 26, DATA misses = 24. Winner = DATA
[DUEL] Epoch ended. INSTR misses = 23, DATA misses = 27. Winner = INSTR
[DUEL] Epoch ended. INSTR misses = 18, DATA misses = 17. Winner = DATA
[DUEL] Epoch ended. INSTR misses = 112, DATA misses = 72. Winner = DATA
[DUEL] Epoch ended. INSTR misses = 93, DATA misses = 98. Winner = INSTR
[DUEL] Epoch ended. INSTR misses = 104, DATA misses = 80. Winner = DATA
[DUEL] Epoch ended. INSTR misses = 108, DATA misses = 109. Winner = INSTR
[DUEL] Epoch ended. INSTR misses = 62, DATA misses = 77. Winner = INSTR
[DUEL] Epoch ended. INSTR misses = 36, DATA misses = 37. Winner = INSTR
[DUEL] Epoch ended. INSTR misses = 63, DATA misses = 64. Winner = INSTR
[DUEL] Epoch ended. INSTR misses = 70, DATA misses = 67. Winner = DATA
[DUEL] Epoch ended. INSTR misses = 122, DATA misses = 107. Winner = DATA
[DUEL] Epoch ended. INSTR misses = 78, DATA misses = 56. Winner = DATA
[DUEL] Epoch ended. INSTR misses = 95, DATA misses = 94. Winner = DATA
[DUEL] Epoch ended. INSTR misses = 64, DATA misses = 57. Winner = DATA
[DUEL] Epoch ended. INSTR misses = 47, DATA misses = 46. Winner = DATA
[DUEL] Epoch ended. INSTR misses = 73, DATA misses = 50. Winner = DATA
[DUEL] Epoch ended. INSTR misses = 88, DATA misses = 66. Winner = DATA
[DUEL] Epoch ended. INSTR misses = 29, DATA misses = 37. Winner = INSTR
[DUEL] Epoch ended. INSTR misses = 83, DATA misses = 77. Winner = DATA
[DUEL] Epoch ended. INSTR misses = 29, DATA misses = 9. Winner = DATA
[DUEL] Epoch ended. INSTR misses = 43, DATA misses = 39. Winner = DATA
[DUEL] Epoch ended. INSTR misses = 37, DATA misses = 38. Winner = INSTR
[DUEL] Epoch ended. INSTR misses = 61, DATA misses = 53. Winner = DATA
[DUEL] Epoch ended. INSTR misses = 35, DATA misses = 43. Winner = INSTR
[DUEL] Epoch ended. INSTR misses = 11, DATA misses = 17. Winner = INSTR
Heartbeat CPU 0 instructions: 10000003 cycles: 2118785 heartbeat IPC: 4.72 cumulative IPC: 4.72 (Simulation time: 00 hr 00 min 30 sec)
[DUEL] Epoch ended. INSTR misses = 11, DATA misses = 10. Winner = DATA
[DUEL] Epoch ended. INSTR misses = 19, DATA misses = 15. Winner = DATA
[DUEL] Epoch ended. INSTR misses = 5, DATA misses = 7. Winner = INSTR
[DUEL] Epoch ended. INSTR misses = 1, DATA misses = 5. Winner = INSTR
[DUEL] Epoch ended. INSTR misses = 6, DATA misses = 4. Winner = DATA
[DUEL] Epoch ended. INSTR misses = 3, DATA misses = 6. Winner = INSTR
[DUEL] Epoch ended. INSTR misses = 25, DATA misses = 20. Winner = DATA
[DUEL] Epoch ended. INSTR misses = 2, DATA misses = 1. Winner = DATA
[DUEL] Epoch ended. INSTR misses = 27, DATA misses = 25. Winner = DATA
[DUEL] Epoch ended. INSTR misses = 49, DATA misses = 23. Winner = DATA
[DUEL] Epoch ended. INSTR misses = 23, DATA misses = 23. Winner = INSTR
[DUEL] Epoch ended. INSTR misses = 15, DATA misses = 5. Winner = DATA
[DUEL] Epoch ended. INSTR misses = 25, DATA misses = 25. Winner = INSTR
[DUEL] Epoch ended. INSTR misses = 24, DATA misses = 29. Winner = INSTR
[DUEL] Epoch ended. INSTR misses = 11, DATA misses = 15. Winner = INSTR
[DUEL] Epoch ended. INSTR misses = 17, DATA misses = 10. Winner = DATA
[DUEL] Epoch ended. INSTR misses = 66, DATA misses = 57. Winner = DATA
[DUEL] Epoch ended. INSTR misses = 9, DATA misses = 10. Winner = INSTR
[DUEL] Epoch ended. INSTR misses = 28, DATA misses = 12. Winner = DATA
[DUEL] Epoch ended. INSTR misses = 18, DATA misses = 15. Winner = DATA
[DUEL] Epoch ended. INSTR misses = 33, DATA misses = 37. Winner = INSTR
[DUEL] Epoch ended. INSTR misses = 18, DATA misses = 18. Winner = INSTR
[DUEL] Epoch ended. INSTR misses = 22, DATA misses = 16. Winner = DATA
[DUEL] Epoch ended. INSTR misses = 36, DATA misses = 48. Winner = INSTR
[DUEL] Epoch ended. INSTR misses = 19, DATA misses = 22. Winner = INSTR
[DUEL] Epoch ended. INSTR misses = 31, DATA misses = 33. Winner = INSTR
[DUEL] Epoch ended. INSTR misses = 39, DATA misses = 37. Winner = DATA
[DUEL] Epoch ended. INSTR misses = 44, DATA misses = 39. Winner = DATA
[DUEL] Epoch ended. INSTR misses = 29, DATA misses = 25. Winner = DATA
[DUEL] Epoch ended. INSTR misses = 2, DATA misses = 5. Winner = INSTR
[DUEL] Epoch ended. INSTR misses = 26, DATA misses = 21. Winner = DATA
[DUEL] Epoch ended. INSTR misses = 4, DATA misses = 4. Winner = INSTR
[DUEL] Epoch ended. INSTR misses = 28, DATA misses = 35. Winner = INSTR
[DUEL] Epoch ended. INSTR misses = 25, DATA misses = 19. Winner = DATA
[DUEL] Epoch ended. INSTR misses = 29, DATA misses = 28. Winner = DATA
[DUEL] Epoch ended. INSTR misses = 133, DATA misses = 144. Winner = INSTR
[DUEL] Epoch ended. INSTR misses = 72, DATA misses = 67. Winner = DATA
[DUEL] Epoch ended. INSTR misses = 41, DATA misses = 50. Winner = INSTR
Heartbeat CPU 0 instructions: 20000000 cycles: 4139913 heartbeat IPC: 4.948 cumulative IPC: 4.831 (Simulation time: 00 hr 01 min 00 sec)
[DUEL] Epoch ended. INSTR misses = 24, DATA misses = 23. Winner = DATA
[DUEL] Epoch ended. INSTR misses = 20, DATA misses = 17. Winner = DATA
[DUEL] Epoch ended. INSTR misses = 15, DATA misses = 17. Winner = INSTR
[DUEL] Epoch ended. INSTR misses = 41, DATA misses = 26. Winner = DATA
[DUEL] Epoch ended. INSTR misses = 73, DATA misses = 89. Winner = INSTR
[DUEL] Epoch ended. INSTR misses = 99, DATA misses = 149. Winner = INSTR
[DUEL] Epoch ended. INSTR misses = 66, DATA misses = 82. Winner = INSTR
[DUEL] Epoch ended. INSTR misses = 66, DATA misses = 96. Winner = INSTR
[DUEL] Epoch ended. INSTR misses = 105, DATA misses = 130. Winner = INSTR
[DUEL] Epoch ended. INSTR misses = 77, DATA misses = 111. Winner = INSTR
[DUEL] Epoch ended. INSTR misses = 60, DATA misses = 67. Winner = INSTR
[DUEL] Epoch ended. INSTR misses = 7, DATA misses = 5. Winner = DATA
[DUEL] Epoch ended. INSTR misses = 19, DATA misses = 25. Winner = INSTR
[DUEL] Epoch ended. INSTR misses = 4, DATA misses = 4. Winner = INSTR
[DUEL] Epoch ended. INSTR misses = 0, DATA misses = 0. Winner = INSTR
[DUEL] Epoch ended. INSTR misses = 10, DATA misses = 22. Winner = INSTR
[DUEL] Epoch ended. INSTR misses = 14, DATA misses = 24. Winner = INSTR
[DUEL] Epoch ended. INSTR misses = 3, DATA misses = 11. Winner = INSTR
[DUEL] Epoch ended. INSTR misses = 54, DATA misses = 67. Winner = INSTR
[DUEL] Epoch ended. INSTR misses = 47, DATA misses = 54. Winner = INSTR
[DUEL] Epoch ended. INSTR misses = 74, DATA misses = 71. Winner = DATA
[DUEL] Epoch ended. INSTR misses = 70, DATA misses = 73. Winner = INSTR
[DUEL] Epoch ended. INSTR misses = 124, DATA misses = 128. Winner = INSTR
[DUEL] Epoch ended. INSTR misses = 20, DATA misses = 20. Winner = INSTR
[DUEL] Epoch ended. INSTR misses = 15, DATA misses = 15. Winner = INSTR
[DUEL] Epoch ended. INSTR misses = 90, DATA misses = 56. Winner = DATA
[DUEL] Epoch ended. INSTR misses = 30, DATA misses = 35. Winner = INSTR
[DUEL] Epoch ended. INSTR misses = 43, DATA misses = 25. Winner = DATA
[DUEL] Epoch ended. INSTR misses = 29, DATA misses = 17. Winner = DATA
[DUEL] Epoch ended. INSTR misses = 13, DATA misses = 14. Winner = INSTR
[DUEL] Epoch ended. INSTR misses = 74, DATA misses = 121. Winner = INSTR
[DUEL] Epoch ended. INSTR misses = 49, DATA misses = 62. Winner = INSTR
[DUEL] Epoch ended. INSTR misses = 13, DATA misses = 4. Winner = DATA
[DUEL] Epoch ended. INSTR misses = 28, DATA misses = 29. Winner = INSTR
[DUEL] Epoch ended. INSTR misses = 0, DATA misses = 0. Winner = INSTR
[DUEL] Epoch ended. INSTR misses = 33, DATA misses = 29. Winner = DATA
[DUEL] Epoch ended. INSTR misses = 70, DATA misses = 83. Winner = INSTR
[DUEL] Epoch ended. INSTR misses = 44, DATA misses = 105. Winner = INSTR
[DUEL] Epoch ended. INSTR misses = 39, DATA misses = 66. Winner = INSTR
Heartbeat CPU 0 instructions: 30000009 cycles: 6271326 heartbeat IPC: 4.692 cumulative IPC: 4.784 (Simulation time: 00 hr 01 min 32 sec)
Warmup finished CPU 0 instructions: 30000009 cycles: 6271327 cumulative IPC: 4.784 (Simulation time: 00 hr 01 min 32 sec)
Warmup complete CPU 0 instructions: 30000009 cycles: 6271327 cumulative IPC: 4.784 (Simulation time: 00 hr 01 min 32 sec)
[DUEL] Epoch ended. INSTR misses = 71, DATA misses = 93. Winner = INSTR
[DUEL] Epoch ended. INSTR misses = 49, DATA misses = 113. Winner = INSTR
[DUEL] Epoch ended. INSTR misses = 95, DATA misses = 92. Winner = DATA
*** Reached end of trace: (0, "../traces/public_traces/compute_fp/compute_fp_7.champsimtrace.xz")
[DUEL] Epoch ended. INSTR misses = 13, DATA misses = 10. Winner = DATA
[DUEL] Epoch ended. INSTR misses = 2, DATA misses = 7. Winner = INSTR
[DUEL] Epoch ended. INSTR misses = 1, DATA misses = 7. Winner = INSTR
[DUEL] Epoch ended. INSTR misses = 19, DATA misses = 24. Winner = INSTR
[DUEL] Epoch ended. INSTR misses = 50, DATA misses = 78. Winner = INSTR
[DUEL] Epoch ended. INSTR misses = 71, DATA misses = 67. Winner = DATA
[DUEL] Epoch ended. INSTR misses = 90, DATA misses = 94. Winner = INSTR
[DUEL] Epoch ended. INSTR misses = 97, DATA misses = 116. Winner = INSTR
[DUEL] Epoch ended. INSTR misses = 64, DATA misses = 68. Winner = INSTR
[DUEL] Epoch ended. INSTR misses = 16, DATA misses = 14. Winner = DATA
[DUEL] Epoch ended. INSTR misses = 49, DATA misses = 34. Winner = DATA
[DUEL] Epoch ended. INSTR misses = 63, DATA misses = 61. Winner = DATA
[DUEL] Epoch ended. INSTR misses = 45, DATA misses = 34. Winner = DATA
[DUEL] Epoch ended. INSTR misses = 32, DATA misses = 21. Winner = DATA
[DUEL] Epoch ended. INSTR misses = 11, DATA misses = 9. Winner = DATA
[DUEL] Epoch ended. INSTR misses = 19, DATA misses = 24. Winner = INSTR
[DUEL] Epoch ended. INSTR misses = 126, DATA misses = 82. Winner = DATA
[DUEL] Epoch ended. INSTR misses = 143, DATA misses = 132. Winner = DATA
[DUEL] Epoch ended. INSTR misses = 195, DATA misses = 133. Winner = DATA
[DUEL] Epoch ended. INSTR misses = 188, DATA misses = 197. Winner = INSTR
[DUEL] Epoch ended. INSTR misses = 68, DATA misses = 83. Winner = INSTR
[DUEL] Epoch ended. INSTR misses = 39, DATA misses = 44. Winner = INSTR
[DUEL] Epoch ended. INSTR misses = 76, DATA misses = 77. Winner = INSTR
[DUEL] Epoch ended. INSTR misses = 74, DATA misses = 61. Winner = DATA
[DUEL] Epoch ended. INSTR misses = 140, DATA misses = 111. Winner = DATA
[DUEL] Epoch ended. INSTR misses = 96, DATA misses = 77. Winner = DATA
[DUEL] Epoch ended. INSTR misses = 108, DATA misses = 97. Winner = DATA
[DUEL] Epoch ended. INSTR misses = 82, DATA misses = 83. Winner = INSTR
[DUEL] Epoch ended. INSTR misses = 64, DATA misses = 52. Winner = DATA
[DUEL] Epoch ended. INSTR misses = 103, DATA misses = 88. Winner = DATA
[DUEL] Epoch ended. INSTR misses = 115, DATA misses = 87. Winner = DATA
[DUEL] Epoch ended. INSTR misses = 57, DATA misses = 41. Winner = DATA
[DUEL] Epoch ended. INSTR misses = 100, DATA misses = 92. Winner = DATA
[DUEL] Epoch ended. INSTR misses = 39, DATA misses = 17. Winner = DATA
[DUEL] Epoch ended. INSTR misses = 45, DATA misses = 51. Winner = INSTR
[DUEL] Epoch ended. INSTR misses = 38, DATA misses = 44. Winner = INSTR
Heartbeat CPU 0 instructions: 40000000 cycles: 26311083 heartbeat IPC: 0.499 cumulative IPC: 0.499 (Simulation time: 00 hr 03 min 29 sec)
[DUEL] Epoch ended. INSTR misses = 73, DATA misses = 70. Winner = DATA
[DUEL] Epoch ended. INSTR misses = 60, DATA misses = 51. Winner = DATA
[DUEL] Epoch ended. INSTR misses = 16, DATA misses = 12. Winner = DATA
[DUEL] Epoch ended. INSTR misses = 16, DATA misses = 12. Winner = DATA
[DUEL] Epoch ended. INSTR misses = 20, DATA misses = 30. Winner = INSTR
[DUEL] Epoch ended. INSTR misses = 5, DATA misses = 9. Winner = INSTR
[DUEL] Epoch ended. INSTR misses = 5, DATA misses = 6. Winner = INSTR
[DUEL] Epoch ended. INSTR misses = 10, DATA misses = 6. Winner = DATA
[DUEL] Epoch ended. INSTR misses = 5, DATA misses = 0. Winner = DATA
[DUEL] Epoch ended. INSTR misses = 23, DATA misses = 21. Winner = DATA
[DUEL] Epoch ended. INSTR misses = 4, DATA misses = 2. Winner = DATA
[DUEL] Epoch ended. INSTR misses = 31, DATA misses = 29. Winner = DATA
[DUEL] Epoch ended. INSTR misses = 52, DATA misses = 45. Winner = DATA
[DUEL] Epoch ended. INSTR misses = 46, DATA misses = 35. Winner = DATA
[DUEL] Epoch ended. INSTR misses = 23, DATA misses = 23. Winner = INSTR
[DUEL] Epoch ended. INSTR misses = 24, DATA misses = 25. Winner = INSTR
[DUEL] Epoch ended. INSTR misses = 26, DATA misses = 29. Winner = INSTR
[DUEL] Epoch ended. INSTR misses = 13, DATA misses = 18. Winner = INSTR
[DUEL] Epoch ended. INSTR misses = 18, DATA misses = 11. Winner = DATA
[DUEL] Epoch ended. INSTR misses = 61, DATA misses = 63. Winner = INSTR
[DUEL] Epoch ended. INSTR misses = 9, DATA misses = 12. Winner = INSTR
[DUEL] Epoch ended. INSTR misses = 26, DATA misses = 11. Winner = DATA
[DUEL] Epoch ended. INSTR misses = 14, DATA misses = 17. Winner = INSTR
[DUEL] Epoch ended. INSTR misses = 38, DATA misses = 36. Winner = DATA
[DUEL] Epoch ended. INSTR misses = 16, DATA misses = 19. Winner = INSTR
[DUEL] Epoch ended. INSTR misses = 23, DATA misses = 18. Winner = DATA
[DUEL] Epoch ended. INSTR misses = 35, DATA misses = 49. Winner = INSTR
[DUEL] Epoch ended. INSTR misses = 30, DATA misses = 33. Winner = INSTR
[DUEL] Epoch ended. INSTR misses = 49, DATA misses = 58. Winner = INSTR
[DUEL] Epoch ended. INSTR misses = 38, DATA misses = 47. Winner = INSTR
[DUEL] Epoch ended. INSTR misses = 46, DATA misses = 45. Winner = DATA
[DUEL] Epoch ended. INSTR misses = 28, DATA misses = 39. Winner = INSTR
[DUEL] Epoch ended. INSTR misses = 10, DATA misses = 9. Winner = DATA
[DUEL] Epoch ended. INSTR misses = 34, DATA misses = 30. Winner = DATA
[DUEL] Epoch ended. INSTR misses = 6, DATA misses = 3. Winner = DATA
[DUEL] Epoch ended. INSTR misses = 31, DATA misses = 31. Winner = INSTR
[DUEL] Epoch ended. INSTR misses = 25, DATA misses = 17. Winner = DATA
[DUEL] Epoch ended. INSTR misses = 24, DATA misses = 27. Winner = INSTR
[DUEL] Epoch ended. INSTR misses = 129, DATA misses = 139. Winner = INSTR
Heartbeat CPU 0 instructions: 50000001 cycles: 36982993 heartbeat IPC: 0.937 cumulative IPC: 0.6512 (Simulation time: 00 hr 04 min 43 sec)
[DUEL] Epoch ended. INSTR misses = 72, DATA misses = 77. Winner = INSTR
[DUEL] Epoch ended. INSTR misses = 42, DATA misses = 42. Winner = INSTR
[DUEL] Epoch ended. INSTR misses = 31, DATA misses = 23. Winner = DATA
[DUEL] Epoch ended. INSTR misses = 19, DATA misses = 17. Winner = DATA
[DUEL] Epoch ended. INSTR misses = 16, DATA misses = 16. Winner = INSTR
[DUEL] Epoch ended. INSTR misses = 46, DATA misses = 32. Winner = DATA
[DUEL] Epoch ended. INSTR misses = 80, DATA misses = 84. Winner = INSTR
[DUEL] Epoch ended. INSTR misses = 114, DATA misses = 188. Winner = INSTR
[DUEL] Epoch ended. INSTR misses = 67, DATA misses = 90. Winner = INSTR
[DUEL] Epoch ended. INSTR misses = 74, DATA misses = 114. Winner = INSTR
[DUEL] Epoch ended. INSTR misses = 95, DATA misses = 143. Winner = INSTR
[DUEL] Epoch ended. INSTR misses = 98, DATA misses = 115. Winner = INSTR
[DUEL] Epoch ended. INSTR misses = 64, DATA misses = 83. Winner = INSTR
[DUEL] Epoch ended. INSTR misses = 6, DATA misses = 4. Winner = DATA
[DUEL] Epoch ended. INSTR misses = 17, DATA misses = 21. Winner = INSTR
[DUEL] Epoch ended. INSTR misses = 3, DATA misses = 0. Winner = DATA
[DUEL] Epoch ended. INSTR misses = 0, DATA misses = 0. Winner = INSTR
[DUEL] Epoch ended. INSTR misses = 3, DATA misses = 11. Winner = INSTR
[DUEL] Epoch ended. INSTR misses = 10, DATA misses = 17. Winner = INSTR
[DUEL] Epoch ended. INSTR misses = 3, DATA misses = 14. Winner = INSTR
[DUEL] Epoch ended. INSTR misses = 60, DATA misses = 64. Winner = INSTR
[DUEL] Epoch ended. INSTR misses = 49, DATA misses = 56. Winner = INSTR
[DUEL] Epoch ended. INSTR misses = 87, DATA misses = 94. Winner = INSTR
[DUEL] Epoch ended. INSTR misses = 80, DATA misses = 77. Winner = DATA
[DUEL] Epoch ended. INSTR misses = 140, DATA misses = 146. Winner = INSTR
[DUEL] Epoch ended. INSTR misses = 17, DATA misses = 16. Winner = DATA
[DUEL] Epoch ended. INSTR misses = 15, DATA misses = 14. Winner = DATA
[DUEL] Epoch ended. INSTR misses = 108, DATA misses = 81. Winner = DATA
[DUEL] Epoch ended. INSTR misses = 45, DATA misses = 43. Winner = DATA
[DUEL] Epoch ended. INSTR misses = 37, DATA misses = 27. Winner = DATA
[DUEL] Epoch ended. INSTR misses = 29, DATA misses = 22. Winner = DATA
[DUEL] Epoch ended. INSTR misses = 13, DATA misses = 10. Winner = DATA
[DUEL] Epoch ended. INSTR misses = 91, DATA misses = 117. Winner = INSTR
[DUEL] Epoch ended. INSTR misses = 58, DATA misses = 68. Winner = INSTR
[DUEL] Epoch ended. INSTR misses = 13, DATA misses = 4. Winner = DATA
[DUEL] Epoch ended. INSTR misses = 33, DATA misses = 29. Winner = DATA
[DUEL] Epoch ended. INSTR misses = 0, DATA misses = 0. Winner = INSTR
[DUEL] Epoch ended. INSTR misses = 49, DATA misses = 37. Winner = DATA
[DUEL] Epoch ended. INSTR misses = 68, DATA misses = 64. Winner = DATA
Heartbeat CPU 0 instructions: 60000006 cycles: 51408776 heartbeat IPC: 0.6932 cumulative IPC: 0.6646 (Simulation time: 00 hr 06 min 12 sec)
[DUEL] Epoch ended. INSTR misses = 51, DATA misses = 104. Winner = INSTR
[DUEL] Epoch ended. INSTR misses = 32, DATA misses = 62. Winner = INSTR
[DUEL] Epoch ended. INSTR misses = 73, DATA misses = 89. Winner = INSTR
[DUEL] Epoch ended. INSTR misses = 51, DATA misses = 99. Winner = INSTR
[DUEL] Epoch ended. INSTR misses = 110, DATA misses = 91. Winner = DATA
*** Reached end of trace: (0, "../traces/public_traces/compute_fp/compute_fp_7.champsimtrace.xz")
[DUEL] Epoch ended. INSTR misses = 13, DATA misses = 9. Winner = DATA
[DUEL] Epoch ended. INSTR misses = 2, DATA misses = 3. Winner = INSTR
[DUEL] Epoch ended. INSTR misses = 1, DATA misses = 7. Winner = INSTR
[DUEL] Epoch ended. INSTR misses = 18, DATA misses = 21. Winner = INSTR
[DUEL] Epoch ended. INSTR misses = 54, DATA misses = 61. Winner = INSTR
[DUEL] Epoch ended. INSTR misses = 64, DATA misses = 66. Winner = INSTR
[DUEL] Epoch ended. INSTR misses = 86, DATA misses = 92. Winner = INSTR
[DUEL] Epoch ended. INSTR misses = 96, DATA misses = 113. Winner = INSTR
[DUEL] Epoch ended. INSTR misses = 59, DATA misses = 66. Winner = INSTR
[DUEL] Epoch ended. INSTR misses = 18, DATA misses = 14. Winner = DATA
[DUEL] Epoch ended. INSTR misses = 49, DATA misses = 33. Winner = DATA
[DUEL] Epoch ended. INSTR misses = 63, DATA misses = 60. Winner = DATA
[DUEL] Epoch ended. INSTR misses = 35, DATA misses = 29. Winner = DATA
[DUEL] Epoch ended. INSTR misses = 28, DATA misses = 24. Winner = DATA
[DUEL] Epoch ended. INSTR misses = 10, DATA misses = 11. Winner = INSTR
[DUEL] Epoch ended. INSTR misses = 22, DATA misses = 23. Winner = INSTR
[DUEL] Epoch ended. INSTR misses = 124, DATA misses = 96. Winner = DATA
[DUEL] Epoch ended. INSTR misses = 144, DATA misses = 126. Winner = DATA
[DUEL] Epoch ended. INSTR misses = 162, DATA misses = 134. Winner = DATA
[DUEL] Epoch ended. INSTR misses = 180, DATA misses = 189. Winner = INSTR
[DUEL] Epoch ended. INSTR misses = 58, DATA misses = 83. Winner = INSTR
[DUEL] Epoch ended. INSTR misses = 38, DATA misses = 41. Winner = INSTR
[DUEL] Epoch ended. INSTR misses = 73, DATA misses = 81. Winner = INSTR
[DUEL] Epoch ended. INSTR misses = 71, DATA misses = 64. Winner = DATA
[DUEL] Epoch ended. INSTR misses = 158, DATA misses = 139. Winner = DATA
[DUEL] Epoch ended. INSTR misses = 87, DATA misses = 72. Winner = DATA
[DUEL] Epoch ended. INSTR misses = 108, DATA misses = 105. Winner = DATA
[DUEL] Epoch ended. INSTR misses = 76, DATA misses = 92. Winner = INSTR
[DUEL] Epoch ended. INSTR misses = 65, DATA misses = 65. Winner = INSTR
[DUEL] Epoch ended. INSTR misses = 105, DATA misses = 97. Winner = DATA
[DUEL] Epoch ended. INSTR misses = 102, DATA misses = 88. Winner = DATA
[DUEL] Epoch ended. INSTR misses = 46, DATA misses = 41. Winner = DATA
[DUEL] Epoch ended. INSTR misses = 92, DATA misses = 103. Winner = INSTR
[DUEL] Epoch ended. INSTR misses = 39, DATA misses = 29. Winner = DATA
Heartbeat CPU 0 instructions: 70000002 cycles: 71661100 heartbeat IPC: 0.4938 cumulative IPC: 0.6117 (Simulation time: 00 hr 08 min 09 sec)
[DUEL] Epoch ended. INSTR misses = 44, DATA misses = 47. Winner = INSTR
[DUEL] Epoch ended. INSTR misses = 33, DATA misses = 46. Winner = INSTR
[DUEL] Epoch ended. INSTR misses = 67, DATA misses = 75. Winner = INSTR
[DUEL] Epoch ended. INSTR misses = 49, DATA misses = 61. Winner = INSTR
[DUEL] Epoch ended. INSTR misses = 13, DATA misses = 17. Winner = INSTR
[DUEL] Epoch ended. INSTR misses = 16, DATA misses = 10. Winner = DATA
[DUEL] Epoch ended. INSTR misses = 22, DATA misses = 33. Winner = INSTR
[DUEL] Epoch ended. INSTR misses = 4, DATA misses = 9. Winner = INSTR
[DUEL] Epoch ended. INSTR misses = 2, DATA misses = 8. Winner = INSTR
[DUEL] Epoch ended. INSTR misses = 8, DATA misses = 10. Winner = INSTR
[DUEL] Epoch ended. INSTR misses = 4, DATA misses = 4. Winner = INSTR
[DUEL] Epoch ended. INSTR misses = 21, DATA misses = 22. Winner = INSTR
[DUEL] Epoch ended. INSTR misses = 5, DATA misses = 7. Winner = INSTR
[DUEL] Epoch ended. INSTR misses = 30, DATA misses = 28. Winner = DATA
[DUEL] Epoch ended. INSTR misses = 48, DATA misses = 50. Winner = INSTR
[DUEL] Epoch ended. INSTR misses = 38, DATA misses = 24. Winner = DATA
[DUEL] Epoch ended. INSTR misses = 26, DATA misses = 11. Winner = DATA
[DUEL] Epoch ended. INSTR misses = 26, DATA misses = 22. Winner = DATA
[DUEL] Epoch ended. INSTR misses = 25, DATA misses = 28. Winner = INSTR
[DUEL] Epoch ended. INSTR misses = 16, DATA misses = 19. Winner = INSTR
[DUEL] Epoch ended. INSTR misses = 17, DATA misses = 10. Winner = DATA
[DUEL] Epoch ended. INSTR misses = 69, DATA misses = 65. Winner = DATA
[DUEL] Epoch ended. INSTR misses = 14, DATA misses = 8. Winner = DATA
[DUEL] Epoch ended. INSTR misses = 26, DATA misses = 13. Winner = DATA
[DUEL] Epoch ended. INSTR misses = 15, DATA misses = 15. Winner = INSTR
[DUEL] Epoch ended. INSTR misses = 40, DATA misses = 40. Winner = INSTR
[DUEL] Epoch ended. INSTR misses = 17, DATA misses = 15. Winner = DATA
[DUEL] Epoch ended. INSTR misses = 24, DATA misses = 20. Winner = DATA
[DUEL] Epoch ended. INSTR misses = 35, DATA misses = 50. Winner = INSTR
[DUEL] Epoch ended. INSTR misses = 30, DATA misses = 31. Winner = INSTR
[DUEL] Epoch ended. INSTR misses = 52, DATA misses = 57. Winner = INSTR
[DUEL] Epoch ended. INSTR misses = 33, DATA misses = 40. Winner = INSTR
[DUEL] Epoch ended. INSTR misses = 44, DATA misses = 49. Winner = INSTR
[DUEL] Epoch ended. INSTR misses = 27, DATA misses = 36. Winner = INSTR
[DUEL] Epoch ended. INSTR misses = 12, DATA misses = 4. Winner = DATA
[DUEL] Epoch ended. INSTR misses = 39, DATA misses = 25. Winner = DATA
[DUEL] Epoch ended. INSTR misses = 5, DATA misses = 20. Winner = INSTR
[DUEL] Epoch ended. INSTR misses = 27, DATA misses = 31. Winner = INSTR
[DUEL] Epoch ended. INSTR misses = 26, DATA misses = 21. Winner = DATA
Heartbeat CPU 0 instructions: 80000001 cycles: 82090986 heartbeat IPC: 0.9588 cumulative IPC: 0.6595 (Simulation time: 00 hr 09 min 22 sec)
[DUEL] Epoch ended. INSTR misses = 23, DATA misses = 24. Winner = INSTR
[DUEL] Epoch ended. INSTR misses = 133, DATA misses = 141. Winner = INSTR
[DUEL] Epoch ended. INSTR misses = 76, DATA misses = 73. Winner = DATA
[DUEL] Epoch ended. INSTR misses = 45, DATA misses = 42. Winner = DATA
[DUEL] Epoch ended. INSTR misses = 29, DATA misses = 24. Winner = DATA
[DUEL] Epoch ended. INSTR misses = 17, DATA misses = 17. Winner = INSTR
[DUEL] Epoch ended. INSTR misses = 16, DATA misses = 16. Winner = INSTR
[DUEL] Epoch ended. INSTR misses = 56, DATA misses = 39. Winner = DATA
[DUEL] Epoch ended. INSTR misses = 82, DATA misses = 93. Winner = INSTR
[DUEL] Epoch ended. INSTR misses = 127, DATA misses = 178. Winner = INSTR
[DUEL] Epoch ended. INSTR misses = 76, DATA misses = 99. Winner = INSTR
[DUEL] Epoch ended. INSTR misses = 83, DATA misses = 119. Winner = INSTR
[DUEL] Epoch ended. INSTR misses = 107, DATA misses = 151. Winner = INSTR
[DUEL] Epoch ended. INSTR misses = 132, DATA misses = 126. Winner = DATA
[DUEL] Epoch ended. INSTR misses = 70, DATA misses = 92. Winner = INSTR
[DUEL] Epoch ended. INSTR misses = 8, DATA misses = 4. Winner = DATA
[DUEL] Epoch ended. INSTR misses = 19, DATA misses = 22. Winner = INSTR
[DUEL] Epoch ended. INSTR misses = 3, DATA misses = 0. Winner = DATA
[DUEL] Epoch ended. INSTR misses = 0, DATA misses = 0. Winner = INSTR
[DUEL] Epoch ended. INSTR misses = 6, DATA misses = 16. Winner = INSTR
[DUEL] Epoch ended. INSTR misses = 12, DATA misses = 24. Winner = INSTR
[DUEL] Epoch ended. INSTR misses = 8, DATA misses = 13. Winner = INSTR
[DUEL] Epoch ended. INSTR misses = 61, DATA misses = 62. Winner = INSTR
[DUEL] Epoch ended. INSTR misses = 52, DATA misses = 59. Winner = INSTR
[DUEL] Epoch ended. INSTR misses = 84, DATA misses = 87. Winner = INSTR
[DUEL] Epoch ended. INSTR misses = 81, DATA misses = 81. Winner = INSTR
[DUEL] Epoch ended. INSTR misses = 136, DATA misses = 150. Winner = INSTR
[DUEL] Epoch ended. INSTR misses = 20, DATA misses = 20. Winner = INSTR
[DUEL] Epoch ended. INSTR misses = 17, DATA misses = 16. Winner = DATA
[DUEL] Epoch ended. INSTR misses = 115, DATA misses = 74. Winner = DATA
[DUEL] Epoch ended. INSTR misses = 32, DATA misses = 36. Winner = INSTR
[DUEL] Epoch ended. INSTR misses = 37, DATA misses = 25. Winner = DATA
[DUEL] Epoch ended. INSTR misses = 32, DATA misses = 17. Winner = DATA
[DUEL] Epoch ended. INSTR misses = 12, DATA misses = 9. Winner = DATA
[DUEL] Epoch ended. INSTR misses = 99, DATA misses = 125. Winner = INSTR
[DUEL] Epoch ended. INSTR misses = 51, DATA misses = 68. Winner = INSTR
[DUEL] Epoch ended. INSTR misses = 13, DATA misses = 3. Winner = DATA
[DUEL] Epoch ended. INSTR misses = 29, DATA misses = 29. Winner = INSTR
[DUEL] Epoch ended. INSTR misses = 0, DATA misses = 0. Winner = INSTR
Heartbeat CPU 0 instructions: 90000004 cycles: 96376527 heartbeat IPC: 0.7 cumulative IPC: 0.6659 (Simulation time: 00 hr 10 min 52 sec)
[DUEL] Epoch ended. INSTR misses = 46, DATA misses = 47. Winner = INSTR
[DUEL] Epoch ended. INSTR misses = 68, DATA misses = 79. Winner = INSTR
[DUEL] Epoch ended. INSTR misses = 55, DATA misses = 132. Winner = INSTR
[DUEL] Epoch ended. INSTR misses = 33, DATA misses = 64. Winner = INSTR
[DUEL] Epoch ended. INSTR misses = 76, DATA misses = 101. Winner = INSTR
[DUEL] Epoch ended. INSTR misses = 51, DATA misses = 115. Winner = INSTR
[DUEL] Epoch ended. INSTR misses = 98, DATA misses = 102. Winner = INSTR
*** Reached end of trace: (0, "../traces/public_traces/compute_fp/compute_fp_7.champsimtrace.xz")
[DUEL] Epoch ended. INSTR misses = 11, DATA misses = 9. Winner = DATA
[DUEL] Epoch ended. INSTR misses = 1, DATA misses = 5. Winner = INSTR
[DUEL] Epoch ended. INSTR misses = 1, DATA misses = 10. Winner = INSTR
[DUEL] Epoch ended. INSTR misses = 20, DATA misses = 25. Winner = INSTR
[DUEL] Epoch ended. INSTR misses = 59, DATA misses = 66. Winner = INSTR
[DUEL] Epoch ended. INSTR misses = 72, DATA misses = 72. Winner = INSTR
[DUEL] Epoch ended. INSTR misses = 87, DATA misses = 92. Winner = INSTR
[DUEL] Epoch ended. INSTR misses = 99, DATA misses = 118. Winner = INSTR
[DUEL] Epoch ended. INSTR misses = 62, DATA misses = 73. Winner = INSTR
[DUEL] Epoch ended. INSTR misses = 17, DATA misses = 15. Winner = DATA
[DUEL] Epoch ended. INSTR misses = 51, DATA misses = 33. Winner = DATA
[DUEL] Epoch ended. INSTR misses = 62, DATA misses = 51. Winner = DATA
[DUEL] Epoch ended. INSTR misses = 31, DATA misses = 26. Winner = DATA
[DUEL] Epoch ended. INSTR misses = 26, DATA misses = 22. Winner = DATA
[DUEL] Epoch ended. INSTR misses = 23, DATA misses = 10. Winner = DATA
[DUEL] Epoch ended. INSTR misses = 18, DATA misses = 20. Winner = INSTR
[DUEL] Epoch ended. INSTR misses = 156, DATA misses = 104. Winner = DATA
[DUEL] Epoch ended. INSTR misses = 128, DATA misses = 118. Winner = DATA
[DUEL] Epoch ended. INSTR misses = 172, DATA misses = 141. Winner = DATA
[DUEL] Epoch ended. INSTR misses = 176, DATA misses = 173. Winner = DATA
[DUEL] Epoch ended. INSTR misses = 59, DATA misses = 84. Winner = INSTR
[DUEL] Epoch ended. INSTR misses = 38, DATA misses = 43. Winner = INSTR
[DUEL] Epoch ended. INSTR misses = 80, DATA misses = 81. Winner = INSTR
[DUEL] Epoch ended. INSTR misses = 71, DATA misses = 64. Winner = DATA
[DUEL] Epoch ended. INSTR misses = 142, DATA misses = 113. Winner = DATA
[DUEL] Epoch ended. INSTR misses = 99, DATA misses = 93. Winner = DATA
[DUEL] Epoch ended. INSTR misses = 106, DATA misses = 96. Winner = DATA
[DUEL] Epoch ended. INSTR misses = 87, DATA misses = 101. Winner = INSTR
[DUEL] Epoch ended. INSTR misses = 61, DATA misses = 52. Winner = DATA
[DUEL] Epoch ended. INSTR misses = 100, DATA misses = 90. Winner = DATA
[DUEL] Epoch ended. INSTR misses = 100, DATA misses = 75. Winner = DATA
[DUEL] Epoch ended. INSTR misses = 43, DATA misses = 45. Winner = INSTR
Heartbeat CPU 0 instructions: 100000001 cycles: 116899409 heartbeat IPC: 0.4873 cumulative IPC: 0.6328 (Simulation time: 00 hr 12 min 52 sec)
[DUEL] Epoch ended. INSTR misses = 95, DATA misses = 94. Winner = DATA
[DUEL] Epoch ended. INSTR misses = 42, DATA misses = 26. Winner = DATA
[DUEL] Epoch ended. INSTR misses = 40, DATA misses = 36. Winner = DATA
[DUEL] Epoch ended. INSTR misses = 34, DATA misses = 46. Winner = INSTR
[DUEL] Epoch ended. INSTR misses = 70, DATA misses = 63. Winner = DATA
[DUEL] Epoch ended. INSTR misses = 50, DATA misses = 57. Winner = INSTR
[DUEL] Epoch ended. INSTR misses = 11, DATA misses = 11. Winner = INSTR
[DUEL] Epoch ended. INSTR misses = 10, DATA misses = 12. Winner = INSTR
[DUEL] Epoch ended. INSTR misses = 15, DATA misses = 29. Winner = INSTR
[DUEL] Epoch ended. INSTR misses = 3, DATA misses = 9. Winner = INSTR
[DUEL] Epoch ended. INSTR misses = 4, DATA misses = 7. Winner = INSTR
[DUEL] Epoch ended. INSTR misses = 4, DATA misses = 9. Winner = INSTR
[DUEL] Epoch ended. INSTR misses = 1, DATA misses = 1. Winner = INSTR
[DUEL] Epoch ended. INSTR misses = 13, DATA misses = 17. Winner = INSTR
[DUEL] Epoch ended. INSTR misses = 4, DATA misses = 3. Winner = DATA
[DUEL] Epoch ended. INSTR misses = 21, DATA misses = 27. Winner = INSTR
[DUEL] Epoch ended. INSTR misses = 44, DATA misses = 47. Winner = INSTR
[DUEL] Epoch ended. INSTR misses = 34, DATA misses = 27. Winner = DATA
[DUEL] Epoch ended. INSTR misses = 19, DATA misses = 11. Winner = DATA
[DUEL] Epoch ended. INSTR misses = 26, DATA misses = 23. Winner = DATA
[DUEL] Epoch ended. INSTR misses = 24, DATA misses = 25. Winner = INSTR
[DUEL] Epoch ended. INSTR misses = 10, DATA misses = 21. Winner = INSTR
[DUEL] Epoch ended. INSTR misses = 20, DATA misses = 12. Winner = DATA
[DUEL] Epoch ended. INSTR misses = 65, DATA misses = 65. Winner = INSTR
[DUEL] Epoch ended. INSTR misses = 12, DATA misses = 6. Winner = DATA
[DUEL] Epoch ended. INSTR misses = 24, DATA misses = 15. Winner = DATA
[DUEL] Epoch ended. INSTR misses = 14, DATA misses = 11. Winner = DATA
[DUEL] Epoch ended. INSTR misses = 32, DATA misses = 40. Winner = INSTR
[DUEL] Epoch ended. INSTR misses = 17, DATA misses = 19. Winner = INSTR
[DUEL] Epoch ended. INSTR misses = 23, DATA misses = 18. Winner = DATA
[DUEL] Epoch ended. INSTR misses = 37, DATA misses = 44. Winner = INSTR
[DUEL] Epoch ended. INSTR misses = 27, DATA misses = 29. Winner = INSTR
[DUEL] Epoch ended. INSTR misses = 53, DATA misses = 44. Winner = DATA
[DUEL] Epoch ended. INSTR misses = 37, DATA misses = 34. Winner = DATA
[DUEL] Epoch ended. INSTR misses = 43, DATA misses = 43. Winner = INSTR
[DUEL] Epoch ended. INSTR misses = 26, DATA misses = 31. Winner = INSTR
[DUEL] Epoch ended. INSTR misses = 9, DATA misses = 5. Winner = DATA
[DUEL] Epoch ended. INSTR misses = 36, DATA misses = 23. Winner = DATA
[DUEL] Epoch ended. INSTR misses = 6, DATA misses = 7. Winner = INSTR
Heartbeat CPU 0 instructions: 110000000 cycles: 128016980 heartbeat IPC: 0.8995 cumulative IPC: 0.6571 (Simulation time: 00 hr 14 min 07 sec)
[DUEL] Epoch ended. INSTR misses = 22, DATA misses = 35. Winner = INSTR
[DUEL] Epoch ended. INSTR misses = 24, DATA misses = 18. Winner = DATA
[DUEL] Epoch ended. INSTR misses = 26, DATA misses = 24. Winner = DATA
[DUEL] Epoch ended. INSTR misses = 130, DATA misses = 140. Winner = INSTR
[DUEL] Epoch ended. INSTR misses = 76, DATA misses = 75. Winner = DATA
[DUEL] Epoch ended. INSTR misses = 44, DATA misses = 39. Winner = DATA
[DUEL] Epoch ended. INSTR misses = 33, DATA misses = 25. Winner = DATA
[DUEL] Epoch ended. INSTR misses = 14, DATA misses = 18. Winner = INSTR
[DUEL] Epoch ended. INSTR misses = 16, DATA misses = 15. Winner = DATA
[DUEL] Epoch ended. INSTR misses = 48, DATA misses = 39. Winner = DATA
[DUEL] Epoch ended. INSTR misses = 88, DATA misses = 99. Winner = INSTR
[DUEL] Epoch ended. INSTR misses = 129, DATA misses = 182. Winner = INSTR
[DUEL] Epoch ended. INSTR misses = 55, DATA misses = 88. Winner = INSTR
[DUEL] Epoch ended. INSTR misses = 63, DATA misses = 116. Winner = INSTR
[DUEL] Epoch ended. INSTR misses = 78, DATA misses = 166. Winner = INSTR
[DUEL] Epoch ended. INSTR misses = 92, DATA misses = 120. Winner = INSTR
[DUEL] Epoch ended. INSTR misses = 57, DATA misses = 91. Winner = INSTR
[DUEL] Epoch ended. INSTR misses = 3, DATA misses = 5. Winner = INSTR
[DUEL] Epoch ended. INSTR misses = 17, DATA misses = 23. Winner = INSTR
[DUEL] Epoch ended. INSTR misses = 3, DATA misses = 0. Winner = DATA
[DUEL] Epoch ended. INSTR misses = 0, DATA misses = 0. Winner = INSTR
[DUEL] Epoch ended. INSTR misses = 3, DATA misses = 15. Winner = INSTR
[DUEL] Epoch ended. INSTR misses = 6, DATA misses = 23. Winner = INSTR
[DUEL] Epoch ended. INSTR misses = 4, DATA misses = 14. Winner = INSTR
[DUEL] Epoch ended. INSTR misses = 59, DATA misses = 68. Winner = INSTR
[DUEL] Epoch ended. INSTR misses = 45, DATA misses = 46. Winner = INSTR
[DUEL] Epoch ended. INSTR misses = 84, DATA misses = 87. Winner = INSTR
[DUEL] Epoch ended. INSTR misses = 76, DATA misses = 75. Winner = DATA
[DUEL] Epoch ended. INSTR misses = 126, DATA misses = 157. Winner = INSTR
[DUEL] Epoch ended. INSTR misses = 21, DATA misses = 18. Winner = DATA
[DUEL] Epoch ended. INSTR misses = 17, DATA misses = 16. Winner = DATA
[DUEL] Epoch ended. INSTR misses = 117, DATA misses = 77. Winner = DATA
[DUEL] Epoch ended. INSTR misses = 40, DATA misses = 32. Winner = DATA
[DUEL] Epoch ended. INSTR misses = 39, DATA misses = 27. Winner = DATA
[DUEL] Epoch ended. INSTR misses = 35, DATA misses = 20. Winner = DATA
[DUEL] Epoch ended. INSTR misses = 12, DATA misses = 9. Winner = DATA
[DUEL] Epoch ended. INSTR misses = 75, DATA misses = 121. Winner = INSTR
[DUEL] Epoch ended. INSTR misses = 50, DATA misses = 67. Winner = INSTR
[DUEL] Epoch ended. INSTR misses = 14, DATA misses = 5. Winner = DATA
Heartbeat CPU 0 instructions: 120000000 cycles: 142513216 heartbeat IPC: 0.6898 cumulative IPC: 0.6606 (Simulation time: 00 hr 15 min 39 sec)
[DUEL] Epoch ended. INSTR misses = 30, DATA misses = 30. Winner = INSTR
[DUEL] Epoch ended. INSTR misses = 0, DATA misses = 0. Winner = INSTR
[DUEL] Epoch ended. INSTR misses = 41, DATA misses = 44. Winner = INSTR
[DUEL] Epoch ended. INSTR misses = 57, DATA misses = 72. Winner = INSTR
[DUEL] Epoch ended. INSTR misses = 40, DATA misses = 102. Winner = INSTR
[DUEL] Epoch ended. INSTR misses = 38, DATA misses = 69. Winner = INSTR
[DUEL] Epoch ended. INSTR misses = 63, DATA misses = 94. Winner = INSTR
[DUEL] Epoch ended. INSTR misses = 34, DATA misses = 112. Winner = INSTR
[DUEL] Epoch ended. INSTR misses = 72, DATA misses = 96. Winner = INSTR
*** Reached end of trace: (0, "../traces/public_traces/compute_fp/compute_fp_7.champsimtrace.xz")
[DUEL] Epoch ended. INSTR misses = 9, DATA misses = 8. Winner = DATA
[DUEL] Epoch ended. INSTR misses = 0, DATA misses = 5. Winner = INSTR
[DUEL] Epoch ended. INSTR misses = 0, DATA misses = 7. Winner = INSTR
[DUEL] Epoch ended. INSTR misses = 17, DATA misses = 22. Winner = INSTR
[DUEL] Epoch ended. INSTR misses = 51, DATA misses = 64. Winner = INSTR
[DUEL] Epoch ended. INSTR misses = 70, DATA misses = 65. Winner = DATA
[DUEL] Epoch ended. INSTR misses = 92, DATA misses = 92. Winner = INSTR
[DUEL] Epoch ended. INSTR misses = 90, DATA misses = 110. Winner = INSTR
[DUEL] Epoch ended. INSTR misses = 62, DATA misses = 66. Winner = INSTR
[DUEL] Epoch ended. INSTR misses = 20, DATA misses = 15. Winner = DATA
[DUEL] Epoch ended. INSTR misses = 53, DATA misses = 34. Winner = DATA
[DUEL] Epoch ended. INSTR misses = 72, DATA misses = 55. Winner = DATA
[DUEL] Epoch ended. INSTR misses = 42, DATA misses = 29. Winner = DATA
[DUEL] Epoch ended. INSTR misses = 32, DATA misses = 24. Winner = DATA
[DUEL] Epoch ended. INSTR misses = 25, DATA misses = 12. Winner = DATA
[DUEL] Epoch ended. INSTR misses = 17, DATA misses = 24. Winner = INSTR
[DUEL] Epoch ended. INSTR misses = 168, DATA misses = 89. Winner = DATA
[DUEL] Epoch ended. INSTR misses = 133, DATA misses = 126. Winner = DATA
[DUEL] Epoch ended. INSTR misses = 188, DATA misses = 145. Winner = DATA
[DUEL] Epoch ended. INSTR misses = 199, DATA misses = 191. Winner = DATA
[DUEL] Epoch ended. INSTR misses = 61, DATA misses = 84. Winner = INSTR
[DUEL] Epoch ended. INSTR misses = 37, DATA misses = 43. Winner = INSTR
[DUEL] Epoch ended. INSTR misses = 79, DATA misses = 81. Winner = INSTR
[DUEL] Epoch ended. INSTR misses = 74, DATA misses = 63. Winner = DATA
[DUEL] Epoch ended. INSTR misses = 147, DATA misses = 117. Winner = DATA
[DUEL] Epoch ended. INSTR misses = 107, DATA misses = 76. Winner = DATA
[DUEL] Epoch ended. INSTR misses = 101, DATA misses = 96. Winner = DATA
[DUEL] Epoch ended. INSTR misses = 82, DATA misses = 85. Winner = INSTR
[DUEL] Epoch ended. INSTR misses = 62, DATA misses = 54. Winner = DATA
[DUEL] Epoch ended. INSTR misses = 110, DATA misses = 91. Winner = DATA
Heartbeat CPU 0 instructions: 130000006 cycles: 162092704 heartbeat IPC: 0.5107 cumulative IPC: 0.6418 (Simulation time: 00 hr 17 min 35 sec)
Simulation finished CPU 0 instructions: 100000009 cycles: 155821379 cumulative IPC: 0.6418 (Simulation time: 00 hr 17 min 35 sec)
Simulation complete CPU 0 instructions: 100000009 cycles: 155821379 cumulative IPC: 0.6418 (Simulation time: 00 hr 17 min 35 sec)

ChampSim completed all CPUs

=== Simulation ===
CPU 0 runs ../traces/public_traces/compute_fp/compute_fp_7.champsimtrace.xz
Region of Interest Statistics

CPU 0 cumulative IPC: 0.6418 instructions: 100000009 cycles: 155821379
CPU 0 Branch Prediction Accuracy: 93.97% MPKI: 9.717 Average ROB Occupancy at Mispredict: 59.04
Branch type MPKI
BRANCH_DIRECT_JUMP: 0
BRANCH_INDIRECT: 1.87
BRANCH_CONDITIONAL: 7.85
BRANCH_DIRECT_CALL: 0
BRANCH_INDIRECT_CALL: 2e-05
BRANCH_RETURN: 4e-05

LLC TOTAL        ACCESS:    7476393 HIT:    2245383 MISS:    5231010
LLC LOAD         ACCESS:    1438937 HIT:     392007 MISS:    1046930
LLC RFO          ACCESS:     945460 HIT:     202960 MISS:     742500
LLC PREFETCH     ACCESS:    3218746 HIT:     768943 MISS:    2449803
LLC WRITE        ACCESS:    1816334 HIT:     873913 MISS:     942421
LLC TRANSLATION  ACCESS:      56916 HIT:       7560 MISS:      49356
LLC PREFETCH REQUESTED:          0 ISSUED:          0 USEFUL:          0 USELESS:          0
LLC AVERAGE MISS LATENCY: 334.3 cycles
cpu0_DTLB TOTAL        ACCESS:   31654796 HIT:   30057693 MISS:    1597103
cpu0_DTLB LOAD         ACCESS:   31654796 HIT:   30057693 MISS:    1597103
cpu0_DTLB RFO          ACCESS:          0 HIT:          0 MISS:          0
cpu0_DTLB PREFETCH     ACCESS:          0 HIT:          0 MISS:          0
cpu0_DTLB WRITE        ACCESS:          0 HIT:          0 MISS:          0
cpu0_DTLB TRANSLATION  ACCESS:          0 HIT:          0 MISS:          0
cpu0_DTLB PREFETCH REQUESTED:          0 ISSUED:          0 USEFUL:          0 USELESS:          0
cpu0_DTLB AVERAGE MISS LATENCY: 21.35 cycles
cpu0_ITLB TOTAL        ACCESS:      18058 HIT:      18058 MISS:          0
cpu0_ITLB LOAD         ACCESS:      18058 HIT:      18058 MISS:          0
cpu0_ITLB RFO          ACCESS:          0 HIT:          0 MISS:          0
cpu0_ITLB PREFETCH     ACCESS:          0 HIT:          0 MISS:          0
cpu0_ITLB WRITE        ACCESS:          0 HIT:          0 MISS:          0
cpu0_ITLB TRANSLATION  ACCESS:          0 HIT:          0 MISS:          0
cpu0_ITLB PREFETCH REQUESTED:          0 ISSUED:          0 USEFUL:          0 USELESS:          0
cpu0_ITLB AVERAGE MISS LATENCY: -nan cycles
cpu0_L1D TOTAL        ACCESS:   57763975 HIT:   40959619 MISS:   16804356
cpu0_L1D LOAD         ACCESS:   20080643 HIT:   13672132 MISS:    6408511
cpu0_L1D RFO          ACCESS:          0 HIT:          0 MISS:          0
cpu0_L1D PREFETCH     ACCESS:   26610617 HIT:   21031131 MISS:    5579486
cpu0_L1D WRITE        ACCESS:   10891434 HIT:    6215981 MISS:    4675453
cpu0_L1D TRANSLATION  ACCESS:     181281 HIT:      40375 MISS:     140906
cpu0_L1D PREFETCH REQUESTED:   85956503 ISSUED:   26610585 USEFUL:     950946 USELESS:     219965
cpu0_L1D AVERAGE MISS LATENCY: 56.44 cycles
cpu0_L1I TOTAL        ACCESS:      26539 HIT:      20948 MISS:       5591
cpu0_L1I LOAD         ACCESS:      11173 HIT:       9274 MISS:       1899
cpu0_L1I RFO          ACCESS:          0 HIT:          0 MISS:          0
cpu0_L1I PREFETCH     ACCESS:      15366 HIT:      11674 MISS:       3692
cpu0_L1I WRITE        ACCESS:          0 HIT:          0 MISS:          0
cpu0_L1I TRANSLATION  ACCESS:          0 HIT:          0 MISS:          0
cpu0_L1I PREFETCH REQUESTED:      18463 ISSUED:      15366 USEFUL:       3055 USELESS:        143
cpu0_L1I AVERAGE MISS LATENCY: 290.4 cycles
cpu0_L2C TOTAL        ACCESS:   23165562 HIT:   14420897 MISS:    8744665
cpu0_L2C LOAD         ACCESS:    4354701 HIT:    2708824 MISS:    1645877
cpu0_L2C RFO          ACCESS:    1439835 HIT:     493462 MISS:     946373
cpu0_L2C PREFETCH     ACCESS:   13958980 HIT:    7863515 MISS:    6095465
cpu0_L2C WRITE        ACCESS:    3272019 HIT:    3271990 MISS:         29
cpu0_L2C TRANSLATION  ACCESS:     140027 HIT:      83106 MISS:      56921
cpu0_L2C PREFETCH REQUESTED:   10212583 ISSUED:    8906189 USEFUL:    1113701 USELESS:    1008903
cpu0_L2C AVERAGE MISS LATENCY: 209.2 cycles
cpu0_STLB TOTAL        ACCESS:    1202996 HIT:    1022229 MISS:     180767
cpu0_STLB LOAD         ACCESS:    1202996 HIT:    1022229 MISS:     180767
cpu0_STLB RFO          ACCESS:          0 HIT:          0 MISS:          0
cpu0_STLB PREFETCH     ACCESS:          0 HIT:          0 MISS:          0
cpu0_STLB WRITE        ACCESS:          0 HIT:          0 MISS:          0
cpu0_STLB TRANSLATION  ACCESS:          0 HIT:          0 MISS:          0
cpu0_STLB PREFETCH REQUESTED:          0 ISSUED:          0 USEFUL:          0 USELESS:          0
cpu0_STLB AVERAGE MISS LATENCY: 153 cycles

DRAM Statistics

Channel 0 RQ ROW_BUFFER_HIT:     650886
  ROW_BUFFER_MISS:    1502600
 AVG DBUS CONGESTED CYCLE: 3.949
WQ ROW_BUFFER_HIT: Channel 0 
  ROW_BUFFER_MISS:      38458
  FULL:     561972

Channel 1 RQ ROW_BUFFER_HIT:     644604
  ROW_BUFFER_MISS:    1486584
 AVG DBUS CONGESTED CYCLE: 3.946
WQ ROW_BUFFER_HIT: Channel 1 
  ROW_BUFFER_MISS:      40677
  FULL:     557283
BERTI TO_L1: 66805549 TO_L2: 44064419 TO_L2_BC_MSHR: 19696160
BERTI AVG_LAT: 118.214 NUM_TRACK_LATENCY: 7117171 NUM_CANT_TRACK_LATENCY: 200
BERTI CROSS_PAGE 15871551 NO_CROSS_PAGE: 94998417
BERTI FOUND_BERTI: 28665764 NO_FOUND_BERTI: 6533866
BERTI AVERAGE_ISSUED: 4.50631
CPU 0 L1I Entangling prefetcher final stats
IP accesses: 309 c240 334 / 13801
IP misses: 309 c240 329 / 4527
IP hits: 0 0 0 / 0
IP late: 24a 9280 10 / 970
IP wrong: 361 d840 4 / 143
miss rate: 0.32802
coverage: 0
coverage_late: 0.21427
accuracy: 0
accuracy_late: 0.871519
discarded: 0
evicts entangled j table: 0
evicts entangled k table: 106
max bb size: 14
formats: 37 0 53 42 30 55 0 
hist_lookups: 46 57 50 54 39 34 34 22 17 33 24 18 21 7 0 0 12 1125 
hist_lookups_evict: 0.753296 %
hist_lookups_shortlat: 70.6215 %
bb_found_hist: 0 1620 694 420 184 94 76 45 24 7 9 18 78 0 4 0 0 0 0 0 0 0 0 0 0 0 0 0 0 0 0 0 0 0 0 0 0 0 0 0 0 0 0 0 0 0 0 0 0 0 0 0 0 0 0 0 0 0 0 0 0 0 0 0 
bb_found_summary: 7780 3273 2.37703
entangled_found_hist: 0 703 657 504 283 30 5 0 
entangled_found_summary: 4841 2182 2.21861
bb_ent_found_hist: 0 1592 800 453 238 181 116 46 6 27 19 10 17 0 2 0 0 0 0 0 0 0 0 0 0 0 0 0 0 0 0 0 0 0 0 0 0 0 0 0 0 0 0 0 0 0 0 0 0 0 0 0 0 0 0 0 0 0 0 0 0 0 0 0 
bb_ent_found_summary: 8249 3507 2.35216
