WARNING: physical memory size is smaller than virtual memory size.

*** ChampSim Multicore Out-of-Order Simulator ***
Warmup Instructions: 30000000
Simulation Instructions: 100000000
Number of CPUs: 1
Page size: 4096

BTB:
Basic BTB sets: 1024 ways: 8
Indirect:
history lengths: 0 0 10 16 27 44 60 96 109 219 449 487 714 1313 2146 3881 
ITTAGE tables: 64768 bytes;Region table: 240 bytes;IUM: 384 bytes;Total Storage= 65392 bytes;
RAS:
RAS size: 64
[LLC] INSTR Demand IPV: 1 2 2 1 4 Prefetch IPV: 1 2 1 1 4
[LLC] DATA  Demand IPV: 1 1 1 2 4 Prefetch IPV: 1 1 2 2 4
Berti Prefetcher
CPU 0 Entangling prefetcher
Off-chip DRAM Size: 8 GiB Channels: 2 Width: 64-bit Data Race: 6400 MT/s
[DUEL] Epoch ended. INSTR misses = 1, DATA misses = 0. Winner = DATA
[DUEL] Epoch ended. INSTR misses = 0, DATA misses = 0. Winner = INSTR
[DUEL] Epoch ended. INSTR misses = 0, DATA misses = 0. Winner = INSTR
[DUEL] Epoch ended. INSTR misses = 0, DATA misses = 0. Winner = INSTR
[DUEL] Epoch ended. INSTR misses = 0, DATA misses = 0. Winner = INSTR
[DUEL] Epoch ended. INSTR misses = 0, DATA misses = 0. Winner = INSTR
[DUEL] Epoch ended. INSTR misses = 0, DATA misses = 0. Winner = INSTR
[DUEL] Epoch ended. INSTR misses = 0, DATA misses = 0. Winner = INSTR
[DUEL] Epoch ended. INSTR misses = 0, DATA misses = 0. Winner = INSTR
[DUEL] Epoch ended. INSTR misses = 16, DATA misses = 16. Winner = INSTR
[DUEL] Epoch ended. INSTR misses = 10, DATA misses = 8. Winner = DATA
[DUEL] Epoch ended. INSTR misses = 35, DATA misses = 36. Winner = INSTR
[DUEL] Epoch ended. INSTR misses = 1, DATA misses = 0. Winner = DATA
[DUEL] Epoch ended. INSTR misses = 0, DATA misses = 0. Winner = INSTR
[DUEL] Epoch ended. INSTR misses = 32, DATA misses = 34. Winner = INSTR
Heartbeat CPU 0 instructions: 10000001 cycles: 1697382 heartbeat IPC: 5.891 cumulative IPC: 5.891 (Simulation time: 00 hr 00 min 18 sec)
[DUEL] Epoch ended. INSTR misses = 16, DATA misses = 16. Winner = INSTR
[DUEL] Epoch ended. INSTR misses = 32, DATA misses = 32. Winner = INSTR
[DUEL] Epoch ended. INSTR misses = 0, DATA misses = 0. Winner = INSTR
[DUEL] Epoch ended. INSTR misses = 0, DATA misses = 0. Winner = INSTR
[DUEL] Epoch ended. INSTR misses = 16, DATA misses = 16. Winner = INSTR
[DUEL] Epoch ended. INSTR misses = 16, DATA misses = 16. Winner = INSTR
Heartbeat CPU 0 instructions: 20000002 cycles: 3403452 heartbeat IPC: 5.861 cumulative IPC: 5.876 (Simulation time: 00 hr 00 min 36 sec)
[DUEL] Epoch ended. INSTR misses = 3, DATA misses = 0. Winner = DATA
[DUEL] Epoch ended. INSTR misses = 3, DATA misses = 0. Winner = DATA
[DUEL] Epoch ended. INSTR misses = 16, DATA misses = 16. Winner = INSTR
[DUEL] Epoch ended. INSTR misses = 0, DATA misses = 0. Winner = INSTR
[DUEL] Epoch ended. INSTR misses = 1, DATA misses = 0. Winner = DATA
[DUEL] Epoch ended. INSTR misses = 0, DATA misses = 0. Winner = INSTR
[DUEL] Epoch ended. INSTR misses = 0, DATA misses = 7. Winner = INSTR
[DUEL] Epoch ended. INSTR misses = 36, DATA misses = 38. Winner = INSTR
[DUEL] Epoch ended. INSTR misses = 0, DATA misses = 0. Winner = INSTR
[DUEL] Epoch ended. INSTR misses = 0, DATA misses = 0. Winner = INSTR
Heartbeat CPU 0 instructions: 30000002 cycles: 5110874 heartbeat IPC: 5.857 cumulative IPC: 5.87 (Simulation time: 00 hr 00 min 54 sec)
Warmup finished CPU 0 instructions: 30000002 cycles: 5110875 cumulative IPC: 5.87 (Simulation time: 00 hr 00 min 54 sec)
Warmup complete CPU 0 instructions: 30000002 cycles: 5110875 cumulative IPC: 5.87 (Simulation time: 00 hr 00 min 54 sec)
*** Reached end of trace: (0, "../traces/public_traces/compute_int/compute_int_11.champsimtrace.xz")
[DUEL] Epoch ended. INSTR misses = 0, DATA misses = 0. Winner = INSTR
[DUEL] Epoch ended. INSTR misses = 1, DATA misses = 0. Winner = DATA
[DUEL] Epoch ended. INSTR misses = 2, DATA misses = 9. Winner = INSTR
[DUEL] Epoch ended. INSTR misses = 0, DATA misses = 0. Winner = INSTR
[DUEL] Epoch ended. INSTR misses = 6, DATA misses = 3. Winner = DATA
Heartbeat CPU 0 instructions: 40000000 cycles: 10397204 heartbeat IPC: 1.892 cumulative IPC: 1.892 (Simulation time: 00 hr 01 min 45 sec)
[DUEL] Epoch ended. INSTR misses = 4, DATA misses = 5. Winner = INSTR
[DUEL] Epoch ended. INSTR misses = 13, DATA misses = 14. Winner = INSTR
[DUEL] Epoch ended. INSTR misses = 0, DATA misses = 0. Winner = INSTR
[DUEL] Epoch ended. INSTR misses = 0, DATA misses = 0. Winner = INSTR
[DUEL] Epoch ended. INSTR misses = 6, DATA misses = 7. Winner = INSTR
[DUEL] Epoch ended. INSTR misses = 7, DATA misses = 9. Winner = INSTR
Heartbeat CPU 0 instructions: 50000006 cycles: 15685681 heartbeat IPC: 1.891 cumulative IPC: 1.891 (Simulation time: 00 hr 02 min 36 sec)
[DUEL] Epoch ended. INSTR misses = 1, DATA misses = 0. Winner = DATA
[DUEL] Epoch ended. INSTR misses = 3, DATA misses = 0. Winner = DATA
[DUEL] Epoch ended. INSTR misses = 7, DATA misses = 6. Winner = DATA
[DUEL] Epoch ended. INSTR misses = 0, DATA misses = 0. Winner = INSTR
[DUEL] Epoch ended. INSTR misses = 0, DATA misses = 0. Winner = INSTR
[DUEL] Epoch ended. INSTR misses = 0, DATA misses = 0. Winner = INSTR
[DUEL] Epoch ended. INSTR misses = 0, DATA misses = 3. Winner = INSTR
[DUEL] Epoch ended. INSTR misses = 19, DATA misses = 18. Winner = DATA
[DUEL] Epoch ended. INSTR misses = 0, DATA misses = 0. Winner = INSTR
Heartbeat CPU 0 instructions: 60000000 cycles: 20969578 heartbeat IPC: 1.893 cumulative IPC: 1.892 (Simulation time: 00 hr 03 min 27 sec)
[DUEL] Epoch ended. INSTR misses = 0, DATA misses = 0. Winner = INSTR
*** Reached end of trace: (0, "../traces/public_traces/compute_int/compute_int_11.champsimtrace.xz")
[DUEL] Epoch ended. INSTR misses = 0, DATA misses = 0. Winner = INSTR
[DUEL] Epoch ended. INSTR misses = 0, DATA misses = 0. Winner = INSTR
[DUEL] Epoch ended. INSTR misses = 0, DATA misses = 7. Winner = INSTR
[DUEL] Epoch ended. INSTR misses = 0, DATA misses = 0. Winner = INSTR
[DUEL] Epoch ended. INSTR misses = 4, DATA misses = 3. Winner = DATA
Heartbeat CPU 0 instructions: 70000001 cycles: 26254367 heartbeat IPC: 1.892 cumulative IPC: 1.892 (Simulation time: 00 hr 04 min 18 sec)
[DUEL] Epoch ended. INSTR misses = 4, DATA misses = 3. Winner = DATA
[DUEL] Epoch ended. INSTR misses = 8, DATA misses = 7. Winner = DATA
[DUEL] Epoch ended. INSTR misses = 0, DATA misses = 0. Winner = INSTR
[DUEL] Epoch ended. INSTR misses = 0, DATA misses = 0. Winner = INSTR
[DUEL] Epoch ended. INSTR misses = 5, DATA misses = 6. Winner = INSTR
[DUEL] Epoch ended. INSTR misses = 3, DATA misses = 7. Winner = INSTR
Heartbeat CPU 0 instructions: 80000000 cycles: 31542032 heartbeat IPC: 1.891 cumulative IPC: 1.892 (Simulation time: 00 hr 05 min 09 sec)
[DUEL] Epoch ended. INSTR misses = 0, DATA misses = 0. Winner = INSTR
[DUEL] Epoch ended. INSTR misses = 2, DATA misses = 0. Winner = DATA
[DUEL] Epoch ended. INSTR misses = 5, DATA misses = 5. Winner = INSTR
[DUEL] Epoch ended. INSTR misses = 0, DATA misses = 0. Winner = INSTR
[DUEL] Epoch ended. INSTR misses = 0, DATA misses = 0. Winner = INSTR
[DUEL] Epoch ended. INSTR misses = 0, DATA misses = 0. Winner = INSTR
[DUEL] Epoch ended. INSTR misses = 0, DATA misses = 2. Winner = INSTR
[DUEL] Epoch ended. INSTR misses = 17, DATA misses = 14. Winner = DATA
[DUEL] Epoch ended. INSTR misses = 0, DATA misses = 0. Winner = INSTR
Heartbeat CPU 0 instructions: 90000002 cycles: 36822364 heartbeat IPC: 1.894 cumulative IPC: 1.892 (Simulation time: 00 hr 06 min 00 sec)
[DUEL] Epoch ended. INSTR misses = 0, DATA misses = 0. Winner = INSTR
*** Reached end of trace: (0, "../traces/public_traces/compute_int/compute_int_11.champsimtrace.xz")
[DUEL] Epoch ended. INSTR misses = 0, DATA misses = 0. Winner = INSTR
[DUEL] Epoch ended. INSTR misses = 0, DATA misses = 0. Winner = INSTR
[DUEL] Epoch ended. INSTR misses = 0, DATA misses = 6. Winner = INSTR
[DUEL] Epoch ended. INSTR misses = 0, DATA misses = 0. Winner = INSTR
[DUEL] Epoch ended. INSTR misses = 2, DATA misses = 3. Winner = INSTR
Heartbeat CPU 0 instructions: 100000000 cycles: 42104884 heartbeat IPC: 1.893 cumulative IPC: 1.892 (Simulation time: 00 hr 06 min 51 sec)
[DUEL] Epoch ended. INSTR misses = 4, DATA misses = 3. Winner = DATA
[DUEL] Epoch ended. INSTR misses = 7, DATA misses = 7. Winner = INSTR
[DUEL] Epoch ended. INSTR misses = 0, DATA misses = 0. Winner = INSTR
[DUEL] Epoch ended. INSTR misses = 0, DATA misses = 0. Winner = INSTR
[DUEL] Epoch ended. INSTR misses = 5, DATA misses = 6. Winner = INSTR
[DUEL] Epoch ended. INSTR misses = 3, DATA misses = 6. Winner = INSTR
Heartbeat CPU 0 instructions: 110000003 cycles: 47392832 heartbeat IPC: 1.891 cumulative IPC: 1.892 (Simulation time: 00 hr 07 min 42 sec)
[DUEL] Epoch ended. INSTR misses = 0, DATA misses = 0. Winner = INSTR
[DUEL] Epoch ended. INSTR misses = 2, DATA misses = 0. Winner = DATA
[DUEL] Epoch ended. INSTR misses = 4, DATA misses = 5. Winner = INSTR
[DUEL] Epoch ended. INSTR misses = 0, DATA misses = 0. Winner = INSTR
[DUEL] Epoch ended. INSTR misses = 0, DATA misses = 0. Winner = INSTR
[DUEL] Epoch ended. INSTR misses = 0, DATA misses = 0. Winner = INSTR
[DUEL] Epoch ended. INSTR misses = 0, DATA misses = 1. Winner = INSTR
[DUEL] Epoch ended. INSTR misses = 16, DATA misses = 13. Winner = DATA
[DUEL] Epoch ended. INSTR misses = 0, DATA misses = 0. Winner = INSTR
Heartbeat CPU 0 instructions: 120000000 cycles: 52671710 heartbeat IPC: 1.894 cumulative IPC: 1.892 (Simulation time: 00 hr 08 min 33 sec)
[DUEL] Epoch ended. INSTR misses = 0, DATA misses = 0. Winner = INSTR
*** Reached end of trace: (0, "../traces/public_traces/compute_int/compute_int_11.champsimtrace.xz")
[DUEL] Epoch ended. INSTR misses = 0, DATA misses = 0. Winner = INSTR
[DUEL] Epoch ended. INSTR misses = 0, DATA misses = 0. Winner = INSTR
[DUEL] Epoch ended. INSTR misses = 0, DATA misses = 6. Winner = INSTR
[DUEL] Epoch ended. INSTR misses = 0, DATA misses = 0. Winner = INSTR
[DUEL] Epoch ended. INSTR misses = 2, DATA misses = 3. Winner = INSTR
Heartbeat CPU 0 instructions: 130000000 cycles: 57954056 heartbeat IPC: 1.893 cumulative IPC: 1.892 (Simulation time: 00 hr 09 min 24 sec)
Simulation finished CPU 0 instructions: 100000001 cycles: 52843184 cumulative IPC: 1.892 (Simulation time: 00 hr 09 min 24 sec)
Simulation complete CPU 0 instructions: 100000001 cycles: 52843184 cumulative IPC: 1.892 (Simulation time: 00 hr 09 min 24 sec)

ChampSim completed all CPUs

=== Simulation ===
CPU 0 runs ../traces/public_traces/compute_int/compute_int_11.champsimtrace.xz
Region of Interest Statistics

CPU 0 cumulative IPC: 1.892 instructions: 100000001 cycles: 52843184
CPU 0 Branch Prediction Accuracy: 99.89% MPKI: 0.00466 Average ROB Occupancy at Mispredict: 229.5
Branch type MPKI
BRANCH_DIRECT_JUMP: 0
BRANCH_INDIRECT: 0.00084
BRANCH_CONDITIONAL: 0.00382
BRANCH_DIRECT_CALL: 0
BRANCH_INDIRECT_CALL: 0
BRANCH_RETURN: 0

LLC TOTAL        ACCESS:     154851 HIT:     138237 MISS:      16614
LLC LOAD         ACCESS:      13953 HIT:      12244 MISS:       1709
LLC RFO          ACCESS:       8157 HIT:       8124 MISS:         33
LLC PREFETCH     ACCESS:     124062 HIT:     109592 MISS:      14470
LLC WRITE        ACCESS:       8659 HIT:       8271 MISS:        388
LLC TRANSLATION  ACCESS:         20 HIT:          6 MISS:         14
LLC PREFETCH REQUESTED:          0 ISSUED:          0 USEFUL:          0 USELESS:          0
LLC AVERAGE MISS LATENCY: 88.64 cycles
cpu0_DTLB TOTAL        ACCESS:    7907470 HIT:    7877136 MISS:      30334
cpu0_DTLB LOAD         ACCESS:    7907470 HIT:    7877136 MISS:      30334
cpu0_DTLB RFO          ACCESS:          0 HIT:          0 MISS:          0
cpu0_DTLB PREFETCH     ACCESS:          0 HIT:          0 MISS:          0
cpu0_DTLB WRITE        ACCESS:          0 HIT:          0 MISS:          0
cpu0_DTLB TRANSLATION  ACCESS:          0 HIT:          0 MISS:          0
cpu0_DTLB PREFETCH REQUESTED:          0 ISSUED:          0 USEFUL:          0 USELESS:          0
cpu0_DTLB AVERAGE MISS LATENCY: 2.099 cycles
cpu0_ITLB TOTAL        ACCESS:      90068 HIT:      89949 MISS:        119
cpu0_ITLB LOAD         ACCESS:      90068 HIT:      89949 MISS:        119
cpu0_ITLB RFO          ACCESS:          0 HIT:          0 MISS:          0
cpu0_ITLB PREFETCH     ACCESS:          0 HIT:          0 MISS:          0
cpu0_ITLB WRITE        ACCESS:          0 HIT:          0 MISS:          0
cpu0_ITLB TRANSLATION  ACCESS:          0 HIT:          0 MISS:          0
cpu0_ITLB PREFETCH REQUESTED:          0 ISSUED:          0 USEFUL:          0 USELESS:          0
cpu0_ITLB AVERAGE MISS LATENCY: 31.34 cycles
cpu0_L1D TOTAL        ACCESS:    9084456 HIT:    7350540 MISS:    1733916
cpu0_L1D LOAD         ACCESS:    7913335 HIT:    7014033 MISS:     899302
cpu0_L1D RFO          ACCESS:          0 HIT:          0 MISS:          0
cpu0_L1D PREFETCH     ACCESS:     457149 HIT:     234132 MISS:     223017
cpu0_L1D WRITE        ACCESS:     713951 HIT:     102375 MISS:     611576
cpu0_L1D TRANSLATION  ACCESS:         21 HIT:          0 MISS:         21
cpu0_L1D PREFETCH REQUESTED:     561877 ISSUED:     457149 USEFUL:     110784 USELESS:       2043
cpu0_L1D AVERAGE MISS LATENCY: 2.914 cycles
cpu0_L1I TOTAL        ACCESS:     132751 HIT:     103970 MISS:      28781
cpu0_L1I LOAD         ACCESS:      61736 HIT:      45936 MISS:      15800
cpu0_L1I RFO          ACCESS:          0 HIT:          0 MISS:          0
cpu0_L1I PREFETCH     ACCESS:      71015 HIT:      58034 MISS:      12981
cpu0_L1I WRITE        ACCESS:          0 HIT:          0 MISS:          0
cpu0_L1I TRANSLATION  ACCESS:          0 HIT:          0 MISS:          0
cpu0_L1I PREFETCH REQUESTED:     126950 ISSUED:      71015 USEFUL:      10201 USELESS:        587
cpu0_L1I AVERAGE MISS LATENCY: 10.54 cycles
cpu0_L2C TOTAL        ACCESS:     895233 HIT:     655323 MISS:     239910
cpu0_L2C LOAD         ACCESS:     172641 HIT:     154965 MISS:      17676
cpu0_L2C RFO          ACCESS:     124785 HIT:     116627 MISS:       8158
cpu0_L2C PREFETCH     ACCESS:     469537 HIT:     255481 MISS:     214056
cpu0_L2C WRITE        ACCESS:     128249 HIT:     128249 MISS:          0
cpu0_L2C TRANSLATION  ACCESS:         21 HIT:          1 MISS:         20
cpu0_L2C PREFETCH REQUESTED:     365708 ISSUED:     276470 USEFUL:       1093 USELESS:       5590
cpu0_L2C AVERAGE MISS LATENCY: 18.05 cycles
cpu0_STLB TOTAL        ACCESS:      13083 HIT:      13069 MISS:         14
cpu0_STLB LOAD         ACCESS:      13083 HIT:      13069 MISS:         14
cpu0_STLB RFO          ACCESS:          0 HIT:          0 MISS:          0
cpu0_STLB PREFETCH     ACCESS:          0 HIT:          0 MISS:          0
cpu0_STLB WRITE        ACCESS:          0 HIT:          0 MISS:          0
cpu0_STLB TRANSLATION  ACCESS:          0 HIT:          0 MISS:          0
cpu0_STLB PREFETCH REQUESTED:          0 ISSUED:          0 USEFUL:          0 USELESS:          0
cpu0_STLB AVERAGE MISS LATENCY: 412.9 cycles

DRAM Statistics

Channel 0 RQ ROW_BUFFER_HIT:       6417
  ROW_BUFFER_MISS:       1858
 AVG DBUS CONGESTED CYCLE: 3.687
WQ ROW_BUFFER_HIT: Channel 0 
  ROW_BUFFER_MISS:         92
  FULL:         98

Channel 1 RQ ROW_BUFFER_HIT:       6119
  ROW_BUFFER_MISS:       1832
 AVG DBUS CONGESTED CYCLE: 3.633
WQ ROW_BUFFER_HIT: Channel 1 
  ROW_BUFFER_MISS:        101
  FULL:        110
BERTI TO_L1: 1577884 TO_L2: 368968 TO_L2_BC_MSHR: 85261
BERTI AVG_LAT: 27.4043 NUM_TRACK_LATENCY: 360568 NUM_CANT_TRACK_LATENCY: 0
BERTI CROSS_PAGE 428916 NO_CROSS_PAGE: 1517936
BERTI FOUND_BERTI: 675333 NO_FOUND_BERTI: 8621822
BERTI AVERAGE_ISSUED: 5.42762
CPU 0 L1I Entangling prefetcher final stats
IP accesses: 390a e4280 1088 / 62057
IP misses: 390a e4280 274 / 16121
IP hits: 0 0 0 / 0
IP late: 539 14e40 53 / 8479
IP wrong: 215 8540 54 / 569
miss rate: 0.259778
coverage: 0
coverage_late: 0.52596
accuracy: 0
accuracy_late: 0.937114
discarded: 0
evicts entangled j table: 0
evicts entangled k table: 846
max bb size: 47
formats: 98 0 697 379 219 154 0 
hist_lookups: 209 269 428 564 501 497 390 467 352 267 281 178 110 53 27 0 24 5139 
hist_lookups_evict: 0.246003 %
hist_lookups_shortlat: 52.6753 %
bb_found_hist: 0 9617 3284 2787 481 294 104 0 108 106 64 10 0 0 0 0 0 0 0 0 0 0 0 0 68 0 67 0 0 0 0 0 64 0 0 74 0 0 0 0 0 0 0 0 0 0 0 64 0 0 0 0 0 0 0 0 0 0 0 0 0 0 0 0 
bb_found_summary: 42152 17192 2.45184
entangled_found_hist: 0 4784 3629 7955 1714 366 32 0 
entangled_found_summary: 44785 18480 2.42344
bb_ent_found_hist: 0 15349 5752 5157 928 741 356 0 471 215 0 10 0 0 0 0 0 0 0 0 0 0 0 0 0 0 0 0 0 0 0 0 0 0 0 64 0 0 0 0 0 0 0 0 0 0 0 64 0 0 0 0 0 0 0 0 0 0 0 0 0 0 0 0 
bb_ent_found_summary: 62938 29107 2.1623
