WARNING: physical memory size is smaller than virtual memory size.

*** ChampSim Multicore Out-of-Order Simulator ***
Warmup Instructions: 30000000
Simulation Instructions: 100000000
Number of CPUs: 1
Page size: 4096

BTB:
Basic BTB sets: 1024 ways: 8
Indirect:
history lengths: 0 0 10 16 27 44 60 96 109 219 449 487 714 1313 2146 3881 
ITTAGE tables: 64768 bytes;Region table: 240 bytes;IUM: 384 bytes;Total Storage= 65392 bytes;
RAS:
RAS size: 64
[LLC] INSTR Demand IPV: 1 2 2 1 4 Prefetch IPV: 1 2 1 1 4
[LLC] DATA  Demand IPV: 1 1 1 2 4 Prefetch IPV: 1 1 2 2 4
Berti Prefetcher
CPU 0 Entangling prefetcher
Off-chip DRAM Size: 8 GiB Channels: 2 Width: 64-bit Data Race: 6400 MT/s
[DUEL] Epoch ended. INSTR misses = 12, DATA misses = 11. Winner = DATA
[DUEL] Epoch ended. INSTR misses = 16, DATA misses = 16. Winner = INSTR
[DUEL] Epoch ended. INSTR misses = 11, DATA misses = 11. Winner = INSTR
[DUEL] Epoch ended. INSTR misses = 0, DATA misses = 0. Winner = INSTR
[DUEL] Epoch ended. INSTR misses = 16, DATA misses = 16. Winner = INSTR
[DUEL] Epoch ended. INSTR misses = 10, DATA misses = 11. Winner = INSTR
[DUEL] Epoch ended. INSTR misses = 10, DATA misses = 10. Winner = INSTR
[DUEL] Epoch ended. INSTR misses = 46, DATA misses = 47. Winner = INSTR
[DUEL] Epoch ended. INSTR misses = 47, DATA misses = 48. Winner = INSTR
[DUEL] Epoch ended. INSTR misses = 100, DATA misses = 94. Winner = DATA
[DUEL] Epoch ended. INSTR misses = 78, DATA misses = 57. Winner = DATA
[DUEL] Epoch ended. INSTR misses = 40, DATA misses = 31. Winner = DATA
[DUEL] Epoch ended. INSTR misses = 33, DATA misses = 21. Winner = DATA
[DUEL] Epoch ended. INSTR misses = 27, DATA misses = 14. Winner = DATA
[DUEL] Epoch ended. INSTR misses = 20, DATA misses = 14. Winner = DATA
[DUEL] Epoch ended. INSTR misses = 5, DATA misses = 5. Winner = INSTR
[DUEL] Epoch ended. INSTR misses = 16, DATA misses = 2. Winner = DATA
[DUEL] Epoch ended. INSTR misses = 3, DATA misses = 19. Winner = INSTR
[DUEL] Epoch ended. INSTR misses = 2, DATA misses = 1. Winner = DATA
[DUEL] Epoch ended. INSTR misses = 18, DATA misses = 19. Winner = INSTR
[DUEL] Epoch ended. INSTR misses = 0, DATA misses = 0. Winner = INSTR
[DUEL] Epoch ended. INSTR misses = 0, DATA misses = 0. Winner = INSTR
[DUEL] Epoch ended. INSTR misses = 25, DATA misses = 26. Winner = INSTR
[DUEL] Epoch ended. INSTR misses = 23, DATA misses = 25. Winner = INSTR
[DUEL] Epoch ended. INSTR misses = 21, DATA misses = 5. Winner = DATA
[DUEL] Epoch ended. INSTR misses = 6, DATA misses = 10. Winner = INSTR
[DUEL] Epoch ended. INSTR misses = 9, DATA misses = 8. Winner = DATA
[DUEL] Epoch ended. INSTR misses = 28, DATA misses = 28. Winner = INSTR
[DUEL] Epoch ended. INSTR misses = 49, DATA misses = 29. Winner = DATA
[DUEL] Epoch ended. INSTR misses = 39, DATA misses = 13. Winner = DATA
[DUEL] Epoch ended. INSTR misses = 35, DATA misses = 10. Winner = DATA
[DUEL] Epoch ended. INSTR misses = 36, DATA misses = 17. Winner = DATA
[DUEL] Epoch ended. INSTR misses = 27, DATA misses = 16. Winner = DATA
[DUEL] Epoch ended. INSTR misses = 24, DATA misses = 22. Winner = DATA
[DUEL] Epoch ended. INSTR misses = 10, DATA misses = 5. Winner = DATA
[DUEL] Epoch ended. INSTR misses = 3, DATA misses = 0. Winner = DATA
[DUEL] Epoch ended. INSTR misses = 3, DATA misses = 5. Winner = INSTR
[DUEL] Epoch ended. INSTR misses = 16, DATA misses = 16. Winner = INSTR
[DUEL] Epoch ended. INSTR misses = 3, DATA misses = 1. Winner = DATA
Heartbeat CPU 0 instructions: 10000003 cycles: 2026916 heartbeat IPC: 4.934 cumulative IPC: 4.934 (Simulation time: 00 hr 00 min 29 sec)
[DUEL] Epoch ended. INSTR misses = 18, DATA misses = 20. Winner = INSTR
[DUEL] Epoch ended. INSTR misses = 3, DATA misses = 4. Winner = INSTR
[DUEL] Epoch ended. INSTR misses = 13, DATA misses = 24. Winner = INSTR
[DUEL] Epoch ended. INSTR misses = 24, DATA misses = 20. Winner = DATA
[DUEL] Epoch ended. INSTR misses = 14, DATA misses = 16. Winner = INSTR
[DUEL] Epoch ended. INSTR misses = 18, DATA misses = 19. Winner = INSTR
[DUEL] Epoch ended. INSTR misses = 2, DATA misses = 8. Winner = INSTR
[DUEL] Epoch ended. INSTR misses = 39, DATA misses = 35. Winner = DATA
[DUEL] Epoch ended. INSTR misses = 22, DATA misses = 19. Winner = DATA
[DUEL] Epoch ended. INSTR misses = 30, DATA misses = 25. Winner = DATA
[DUEL] Epoch ended. INSTR misses = 45, DATA misses = 26. Winner = DATA
[DUEL] Epoch ended. INSTR misses = 12, DATA misses = 20. Winner = INSTR
[DUEL] Epoch ended. INSTR misses = 11, DATA misses = 16. Winner = INSTR
[DUEL] Epoch ended. INSTR misses = 7, DATA misses = 5. Winner = DATA
[DUEL] Epoch ended. INSTR misses = 4, DATA misses = 1. Winner = DATA
[DUEL] Epoch ended. INSTR misses = 2, DATA misses = 4. Winner = INSTR
[DUEL] Epoch ended. INSTR misses = 16, DATA misses = 1. Winner = DATA
[DUEL] Epoch ended. INSTR misses = 0, DATA misses = 15. Winner = INSTR
[DUEL] Epoch ended. INSTR misses = 18, DATA misses = 21. Winner = INSTR
[DUEL] Epoch ended. INSTR misses = 6, DATA misses = 11. Winner = INSTR
[DUEL] Epoch ended. INSTR misses = 6, DATA misses = 8. Winner = INSTR
[DUEL] Epoch ended. INSTR misses = 16, DATA misses = 17. Winner = INSTR
[DUEL] Epoch ended. INSTR misses = 10, DATA misses = 11. Winner = INSTR
[DUEL] Epoch ended. INSTR misses = 44, DATA misses = 40. Winner = DATA
[DUEL] Epoch ended. INSTR misses = 31, DATA misses = 19. Winner = DATA
[DUEL] Epoch ended. INSTR misses = 48, DATA misses = 17. Winner = DATA
[DUEL] Epoch ended. INSTR misses = 37, DATA misses = 17. Winner = DATA
[DUEL] Epoch ended. INSTR misses = 26, DATA misses = 13. Winner = DATA
[DUEL] Epoch ended. INSTR misses = 22, DATA misses = 16. Winner = DATA
[DUEL] Epoch ended. INSTR misses = 0, DATA misses = 0. Winner = INSTR
[DUEL] Epoch ended. INSTR misses = 19, DATA misses = 19. Winner = INSTR
[DUEL] Epoch ended. INSTR misses = 2, DATA misses = 1. Winner = DATA
[DUEL] Epoch ended. INSTR misses = 2, DATA misses = 4. Winner = INSTR
[DUEL] Epoch ended. INSTR misses = 12, DATA misses = 6. Winner = DATA
[DUEL] Epoch ended. INSTR misses = 0, DATA misses = 0. Winner = INSTR
[DUEL] Epoch ended. INSTR misses = 5, DATA misses = 4. Winner = DATA
[DUEL] Epoch ended. INSTR misses = 13, DATA misses = 12. Winner = DATA
[DUEL] Epoch ended. INSTR misses = 16, DATA misses = 12. Winner = DATA
[DUEL] Epoch ended. INSTR misses = 13, DATA misses = 10. Winner = DATA
Heartbeat CPU 0 instructions: 20000001 cycles: 4092522 heartbeat IPC: 4.841 cumulative IPC: 4.887 (Simulation time: 00 hr 00 min 57 sec)
[DUEL] Epoch ended. INSTR misses = 34, DATA misses = 16. Winner = DATA
[DUEL] Epoch ended. INSTR misses = 14, DATA misses = 13. Winner = DATA
[DUEL] Epoch ended. INSTR misses = 0, DATA misses = 0. Winner = INSTR
[DUEL] Epoch ended. INSTR misses = 18, DATA misses = 16. Winner = DATA
[DUEL] Epoch ended. INSTR misses = 2, DATA misses = 1. Winner = DATA
[DUEL] Epoch ended. INSTR misses = 18, DATA misses = 4. Winner = DATA
[DUEL] Epoch ended. INSTR misses = 0, DATA misses = 16. Winner = INSTR
[DUEL] Epoch ended. INSTR misses = 16, DATA misses = 16. Winner = INSTR
[DUEL] Epoch ended. INSTR misses = 0, DATA misses = 0. Winner = INSTR
[DUEL] Epoch ended. INSTR misses = 5, DATA misses = 4. Winner = DATA
[DUEL] Epoch ended. INSTR misses = 21, DATA misses = 22. Winner = INSTR
[DUEL] Epoch ended. INSTR misses = 9, DATA misses = 0. Winner = DATA
[DUEL] Epoch ended. INSTR misses = 8, DATA misses = 10. Winner = INSTR
[DUEL] Epoch ended. INSTR misses = 48, DATA misses = 33. Winner = DATA
[DUEL] Epoch ended. INSTR misses = 35, DATA misses = 38. Winner = INSTR
[DUEL] Epoch ended. INSTR misses = 40, DATA misses = 21. Winner = DATA
[DUEL] Epoch ended. INSTR misses = 40, DATA misses = 15. Winner = DATA
[DUEL] Epoch ended. INSTR misses = 32, DATA misses = 12. Winner = DATA
[DUEL] Epoch ended. INSTR misses = 37, DATA misses = 15. Winner = DATA
[DUEL] Epoch ended. INSTR misses = 28, DATA misses = 15. Winner = DATA
[DUEL] Epoch ended. INSTR misses = 11, DATA misses = 2. Winner = DATA
[DUEL] Epoch ended. INSTR misses = 6, DATA misses = 5. Winner = DATA
[DUEL] Epoch ended. INSTR misses = 16, DATA misses = 15. Winner = DATA
[DUEL] Epoch ended. INSTR misses = 3, DATA misses = 5. Winner = INSTR
[DUEL] Epoch ended. INSTR misses = 2, DATA misses = 1. Winner = DATA
[DUEL] Epoch ended. INSTR misses = 17, DATA misses = 19. Winner = INSTR
[DUEL] Epoch ended. INSTR misses = 0, DATA misses = 0. Winner = INSTR
[DUEL] Epoch ended. INSTR misses = 14, DATA misses = 8. Winner = DATA
[DUEL] Epoch ended. INSTR misses = 9, DATA misses = 6. Winner = DATA
[DUEL] Epoch ended. INSTR misses = 7, DATA misses = 6. Winner = DATA
[DUEL] Epoch ended. INSTR misses = 16, DATA misses = 16. Winner = INSTR
[DUEL] Epoch ended. INSTR misses = 1, DATA misses = 1. Winner = INSTR
[DUEL] Epoch ended. INSTR misses = 8, DATA misses = 8. Winner = INSTR
[DUEL] Epoch ended. INSTR misses = 20, DATA misses = 15. Winner = DATA
[DUEL] Epoch ended. INSTR misses = 36, DATA misses = 26. Winner = DATA
[DUEL] Epoch ended. INSTR misses = 33, DATA misses = 14. Winner = DATA
[DUEL] Epoch ended. INSTR misses = 35, DATA misses = 13. Winner = DATA
[DUEL] Epoch ended. INSTR misses = 32, DATA misses = 16. Winner = DATA
[DUEL] Epoch ended. INSTR misses = 32, DATA misses = 14. Winner = DATA
Heartbeat CPU 0 instructions: 30000005 cycles: 6119582 heartbeat IPC: 4.933 cumulative IPC: 4.902 (Simulation time: 00 hr 01 min 27 sec)
Warmup finished CPU 0 instructions: 30000005 cycles: 6119583 cumulative IPC: 4.902 (Simulation time: 00 hr 01 min 27 sec)
Warmup complete CPU 0 instructions: 30000005 cycles: 6119583 cumulative IPC: 4.902 (Simulation time: 00 hr 01 min 27 sec)
[DUEL] Epoch ended. INSTR misses = 1, DATA misses = 0. Winner = DATA
[DUEL] Epoch ended. INSTR misses = 22, DATA misses = 21. Winner = DATA
[DUEL] Epoch ended. INSTR misses = 3, DATA misses = 5. Winner = INSTR
*** Reached end of trace: (0, "../traces/public_traces/compute_int/compute_int_7.champsimtrace.xz")
[DUEL] Epoch ended. INSTR misses = 0, DATA misses = 0. Winner = INSTR
[DUEL] Epoch ended. INSTR misses = 2, DATA misses = 1. Winner = DATA
[DUEL] Epoch ended. INSTR misses = 2, DATA misses = 3. Winner = INSTR
[DUEL] Epoch ended. INSTR misses = 0, DATA misses = 0. Winner = INSTR
[DUEL] Epoch ended. INSTR misses = 6, DATA misses = 12. Winner = INSTR
[DUEL] Epoch ended. INSTR misses = 5, DATA misses = 5. Winner = INSTR
[DUEL] Epoch ended. INSTR misses = 5, DATA misses = 5. Winner = INSTR
[DUEL] Epoch ended. INSTR misses = 36, DATA misses = 33. Winner = DATA
[DUEL] Epoch ended. INSTR misses = 49, DATA misses = 44. Winner = DATA
[DUEL] Epoch ended. INSTR misses = 101, DATA misses = 89. Winner = DATA
[DUEL] Epoch ended. INSTR misses = 132, DATA misses = 108. Winner = DATA
[DUEL] Epoch ended. INSTR misses = 117, DATA misses = 98. Winner = DATA
[DUEL] Epoch ended. INSTR misses = 140, DATA misses = 126. Winner = DATA
[DUEL] Epoch ended. INSTR misses = 103, DATA misses = 88. Winner = DATA
[DUEL] Epoch ended. INSTR misses = 86, DATA misses = 71. Winner = DATA
[DUEL] Epoch ended. INSTR misses = 6, DATA misses = 5. Winner = DATA
[DUEL] Epoch ended. INSTR misses = 14, DATA misses = 0. Winner = DATA
[DUEL] Epoch ended. INSTR misses = 3, DATA misses = 21. Winner = INSTR
[DUEL] Epoch ended. INSTR misses = 2, DATA misses = 1. Winner = DATA
[DUEL] Epoch ended. INSTR misses = 16, DATA misses = 19. Winner = INSTR
[DUEL] Epoch ended. INSTR misses = 0, DATA misses = 0. Winner = INSTR
[DUEL] Epoch ended. INSTR misses = 0, DATA misses = 0. Winner = INSTR
[DUEL] Epoch ended. INSTR misses = 24, DATA misses = 27. Winner = INSTR
[DUEL] Epoch ended. INSTR misses = 23, DATA misses = 25. Winner = INSTR
[DUEL] Epoch ended. INSTR misses = 17, DATA misses = 1. Winner = DATA
[DUEL] Epoch ended. INSTR misses = 8, DATA misses = 11. Winner = INSTR
[DUEL] Epoch ended. INSTR misses = 9, DATA misses = 7. Winner = DATA
[DUEL] Epoch ended. INSTR misses = 26, DATA misses = 27. Winner = INSTR
[DUEL] Epoch ended. INSTR misses = 90, DATA misses = 69. Winner = DATA
[DUEL] Epoch ended. INSTR misses = 146, DATA misses = 118. Winner = DATA
[DUEL] Epoch ended. INSTR misses = 146, DATA misses = 121. Winner = DATA
[DUEL] Epoch ended. INSTR misses = 120, DATA misses = 101. Winner = DATA
[DUEL] Epoch ended. INSTR misses = 137, DATA misses = 122. Winner = DATA
[DUEL] Epoch ended. INSTR misses = 124, DATA misses = 117. Winner = DATA
[DUEL] Epoch ended. INSTR misses = 7, DATA misses = 0. Winner = DATA
[DUEL] Epoch ended. INSTR misses = 5, DATA misses = 5. Winner = INSTR
Heartbeat CPU 0 instructions: 40000009 cycles: 12169747 heartbeat IPC: 1.653 cumulative IPC: 1.653 (Simulation time: 00 hr 02 min 35 sec)
[DUEL] Epoch ended. INSTR misses = 3, DATA misses = 5. Winner = INSTR
[DUEL] Epoch ended. INSTR misses = 15, DATA misses = 13. Winner = DATA
[DUEL] Epoch ended. INSTR misses = 3, DATA misses = 3. Winner = INSTR
[DUEL] Epoch ended. INSTR misses = 18, DATA misses = 19. Winner = INSTR
[DUEL] Epoch ended. INSTR misses = 0, DATA misses = 1. Winner = INSTR
[DUEL] Epoch ended. INSTR misses = 16, DATA misses = 21. Winner = INSTR
[DUEL] Epoch ended. INSTR misses = 24, DATA misses = 22. Winner = DATA
[DUEL] Epoch ended. INSTR misses = 13, DATA misses = 16. Winner = INSTR
[DUEL] Epoch ended. INSTR misses = 17, DATA misses = 18. Winner = INSTR
[DUEL] Epoch ended. INSTR misses = 4, DATA misses = 9. Winner = INSTR
[DUEL] Epoch ended. INSTR misses = 33, DATA misses = 33. Winner = INSTR
[DUEL] Epoch ended. INSTR misses = 22, DATA misses = 16. Winner = DATA
[DUEL] Epoch ended. INSTR misses = 27, DATA misses = 21. Winner = DATA
[DUEL] Epoch ended. INSTR misses = 99, DATA misses = 87. Winner = DATA
[DUEL] Epoch ended. INSTR misses = 6, DATA misses = 20. Winner = INSTR
[DUEL] Epoch ended. INSTR misses = 13, DATA misses = 16. Winner = INSTR
[DUEL] Epoch ended. INSTR misses = 7, DATA misses = 5. Winner = DATA
[DUEL] Epoch ended. INSTR misses = 4, DATA misses = 1. Winner = DATA
[DUEL] Epoch ended. INSTR misses = 3, DATA misses = 3. Winner = INSTR
[DUEL] Epoch ended. INSTR misses = 9, DATA misses = 0. Winner = DATA
[DUEL] Epoch ended. INSTR misses = 5, DATA misses = 16. Winner = INSTR
[DUEL] Epoch ended. INSTR misses = 15, DATA misses = 15. Winner = INSTR
[DUEL] Epoch ended. INSTR misses = 6, DATA misses = 13. Winner = INSTR
[DUEL] Epoch ended. INSTR misses = 5, DATA misses = 8. Winner = INSTR
[DUEL] Epoch ended. INSTR misses = 16, DATA misses = 17. Winner = INSTR
[DUEL] Epoch ended. INSTR misses = 9, DATA misses = 8. Winner = DATA
[DUEL] Epoch ended. INSTR misses = 40, DATA misses = 30. Winner = DATA
[DUEL] Epoch ended. INSTR misses = 70, DATA misses = 67. Winner = DATA
[DUEL] Epoch ended. INSTR misses = 127, DATA misses = 106. Winner = DATA
[DUEL] Epoch ended. INSTR misses = 122, DATA misses = 103. Winner = DATA
[DUEL] Epoch ended. INSTR misses = 104, DATA misses = 88. Winner = DATA
[DUEL] Epoch ended. INSTR misses = 20, DATA misses = 16. Winner = DATA
[DUEL] Epoch ended. INSTR misses = 0, DATA misses = 0. Winner = INSTR
[DUEL] Epoch ended. INSTR misses = 19, DATA misses = 20. Winner = INSTR
[DUEL] Epoch ended. INSTR misses = 3, DATA misses = 1. Winner = DATA
[DUEL] Epoch ended. INSTR misses = 3, DATA misses = 3. Winner = INSTR
[DUEL] Epoch ended. INSTR misses = 6, DATA misses = 5. Winner = DATA
[DUEL] Epoch ended. INSTR misses = 0, DATA misses = 0. Winner = INSTR
[DUEL] Epoch ended. INSTR misses = 5, DATA misses = 5. Winner = INSTR
Heartbeat CPU 0 instructions: 50000001 cycles: 16655109 heartbeat IPC: 2.229 cumulative IPC: 1.898 (Simulation time: 00 hr 03 min 23 sec)
[DUEL] Epoch ended. INSTR misses = 12, DATA misses = 14. Winner = INSTR
[DUEL] Epoch ended. INSTR misses = 14, DATA misses = 14. Winner = INSTR
[DUEL] Epoch ended. INSTR misses = 18, DATA misses = 12. Winner = DATA
[DUEL] Epoch ended. INSTR misses = 97, DATA misses = 83. Winner = DATA
[DUEL] Epoch ended. INSTR misses = 16, DATA misses = 10. Winner = DATA
[DUEL] Epoch ended. INSTR misses = 0, DATA misses = 0. Winner = INSTR
[DUEL] Epoch ended. INSTR misses = 15, DATA misses = 10. Winner = DATA
[DUEL] Epoch ended. INSTR misses = 3, DATA misses = 1. Winner = DATA
[DUEL] Epoch ended. INSTR misses = 18, DATA misses = 5. Winner = DATA
[DUEL] Epoch ended. INSTR misses = 1, DATA misses = 14. Winner = INSTR
[DUEL] Epoch ended. INSTR misses = 16, DATA misses = 16. Winner = INSTR
[DUEL] Epoch ended. INSTR misses = 0, DATA misses = 0. Winner = INSTR
[DUEL] Epoch ended. INSTR misses = 5, DATA misses = 5. Winner = INSTR
[DUEL] Epoch ended. INSTR misses = 21, DATA misses = 22. Winner = INSTR
[DUEL] Epoch ended. INSTR misses = 7, DATA misses = 0. Winner = DATA
[DUEL] Epoch ended. INSTR misses = 8, DATA misses = 12. Winner = INSTR
[DUEL] Epoch ended. INSTR misses = 37, DATA misses = 30. Winner = DATA
[DUEL] Epoch ended. INSTR misses = 75, DATA misses = 76. Winner = INSTR
[DUEL] Epoch ended. INSTR misses = 128, DATA misses = 111. Winner = DATA
[DUEL] Epoch ended. INSTR misses = 143, DATA misses = 119. Winner = DATA
[DUEL] Epoch ended. INSTR misses = 121, DATA misses = 107. Winner = DATA
[DUEL] Epoch ended. INSTR misses = 128, DATA misses = 109. Winner = DATA
[DUEL] Epoch ended. INSTR misses = 106, DATA misses = 101. Winner = DATA
[DUEL] Epoch ended. INSTR misses = 47, DATA misses = 32. Winner = DATA
[DUEL] Epoch ended. INSTR misses = 6, DATA misses = 5. Winner = DATA
[DUEL] Epoch ended. INSTR misses = 15, DATA misses = 16. Winner = INSTR
[DUEL] Epoch ended. INSTR misses = 3, DATA misses = 5. Winner = INSTR
[DUEL] Epoch ended. INSTR misses = 3, DATA misses = 1. Winner = DATA
[DUEL] Epoch ended. INSTR misses = 18, DATA misses = 19. Winner = INSTR
[DUEL] Epoch ended. INSTR misses = 0, DATA misses = 0. Winner = INSTR
[DUEL] Epoch ended. INSTR misses = 11, DATA misses = 6. Winner = DATA
[DUEL] Epoch ended. INSTR misses = 9, DATA misses = 5. Winner = DATA
[DUEL] Epoch ended. INSTR misses = 7, DATA misses = 7. Winner = INSTR
[DUEL] Epoch ended. INSTR misses = 16, DATA misses = 15. Winner = DATA
[DUEL] Epoch ended. INSTR misses = 0, DATA misses = 1. Winner = INSTR
[DUEL] Epoch ended. INSTR misses = 9, DATA misses = 8. Winner = DATA
[DUEL] Epoch ended. INSTR misses = 19, DATA misses = 15. Winner = DATA
[DUEL] Epoch ended. INSTR misses = 71, DATA misses = 69. Winner = DATA
[DUEL] Epoch ended. INSTR misses = 138, DATA misses = 117. Winner = DATA
Heartbeat CPU 0 instructions: 60000001 cycles: 22075064 heartbeat IPC: 1.845 cumulative IPC: 1.88 (Simulation time: 00 hr 04 min 24 sec)
[DUEL] Epoch ended. INSTR misses = 115, DATA misses = 97. Winner = DATA
[DUEL] Epoch ended. INSTR misses = 114, DATA misses = 100. Winner = DATA
[DUEL] Epoch ended. INSTR misses = 127, DATA misses = 108. Winner = DATA
[DUEL] Epoch ended. INSTR misses = 1, DATA misses = 0. Winner = DATA
[DUEL] Epoch ended. INSTR misses = 19, DATA misses = 21. Winner = INSTR
[DUEL] Epoch ended. INSTR misses = 3, DATA misses = 5. Winner = INSTR
*** Reached end of trace: (0, "../traces/public_traces/compute_int/compute_int_7.champsimtrace.xz")
[DUEL] Epoch ended. INSTR misses = 0, DATA misses = 0. Winner = INSTR
[DUEL] Epoch ended. INSTR misses = 3, DATA misses = 1. Winner = DATA
[DUEL] Epoch ended. INSTR misses = 3, DATA misses = 3. Winner = INSTR
[DUEL] Epoch ended. INSTR misses = 0, DATA misses = 0. Winner = INSTR
[DUEL] Epoch ended. INSTR misses = 7, DATA misses = 12. Winner = INSTR
[DUEL] Epoch ended. INSTR misses = 5, DATA misses = 5. Winner = INSTR
[DUEL] Epoch ended. INSTR misses = 5, DATA misses = 5. Winner = INSTR
[DUEL] Epoch ended. INSTR misses = 38, DATA misses = 33. Winner = DATA
[DUEL] Epoch ended. INSTR misses = 39, DATA misses = 37. Winner = DATA
[DUEL] Epoch ended. INSTR misses = 102, DATA misses = 89. Winner = DATA
[DUEL] Epoch ended. INSTR misses = 131, DATA misses = 111. Winner = DATA
[DUEL] Epoch ended. INSTR misses = 110, DATA misses = 96. Winner = DATA
[DUEL] Epoch ended. INSTR misses = 139, DATA misses = 125. Winner = DATA
[DUEL] Epoch ended. INSTR misses = 114, DATA misses = 94. Winner = DATA
[DUEL] Epoch ended. INSTR misses = 83, DATA misses = 70. Winner = DATA
[DUEL] Epoch ended. INSTR misses = 6, DATA misses = 5. Winner = DATA
[DUEL] Epoch ended. INSTR misses = 11, DATA misses = 0. Winner = DATA
[DUEL] Epoch ended. INSTR misses = 7, DATA misses = 21. Winner = INSTR
[DUEL] Epoch ended. INSTR misses = 3, DATA misses = 1. Winner = DATA
[DUEL] Epoch ended. INSTR misses = 17, DATA misses = 19. Winner = INSTR
[DUEL] Epoch ended. INSTR misses = 0, DATA misses = 0. Winner = INSTR
[DUEL] Epoch ended. INSTR misses = 0, DATA misses = 0. Winner = INSTR
[DUEL] Epoch ended. INSTR misses = 23, DATA misses = 26. Winner = INSTR
[DUEL] Epoch ended. INSTR misses = 28, DATA misses = 27. Winner = DATA
[DUEL] Epoch ended. INSTR misses = 23, DATA misses = 1. Winner = DATA
[DUEL] Epoch ended. INSTR misses = 5, DATA misses = 11. Winner = INSTR
[DUEL] Epoch ended. INSTR misses = 8, DATA misses = 7. Winner = DATA
[DUEL] Epoch ended. INSTR misses = 26, DATA misses = 27. Winner = INSTR
[DUEL] Epoch ended. INSTR misses = 85, DATA misses = 68. Winner = DATA
[DUEL] Epoch ended. INSTR misses = 144, DATA misses = 117. Winner = DATA
[DUEL] Epoch ended. INSTR misses = 140, DATA misses = 119. Winner = DATA
[DUEL] Epoch ended. INSTR misses = 106, DATA misses = 93. Winner = DATA
[DUEL] Epoch ended. INSTR misses = 133, DATA misses = 120. Winner = DATA
Heartbeat CPU 0 instructions: 70000000 cycles: 28643967 heartbeat IPC: 1.522 cumulative IPC: 1.776 (Simulation time: 00 hr 05 min 37 sec)
[DUEL] Epoch ended. INSTR misses = 127, DATA misses = 122. Winner = DATA
[DUEL] Epoch ended. INSTR misses = 9, DATA misses = 0. Winner = DATA
[DUEL] Epoch ended. INSTR misses = 5, DATA misses = 5. Winner = INSTR
[DUEL] Epoch ended. INSTR misses = 3, DATA misses = 5. Winner = INSTR
[DUEL] Epoch ended. INSTR misses = 15, DATA misses = 7. Winner = DATA
[DUEL] Epoch ended. INSTR misses = 3, DATA misses = 9. Winner = INSTR
[DUEL] Epoch ended. INSTR misses = 18, DATA misses = 19. Winner = INSTR
[DUEL] Epoch ended. INSTR misses = 0, DATA misses = 2. Winner = INSTR
[DUEL] Epoch ended. INSTR misses = 16, DATA misses = 22. Winner = INSTR
[DUEL] Epoch ended. INSTR misses = 24, DATA misses = 22. Winner = DATA
[DUEL] Epoch ended. INSTR misses = 14, DATA misses = 13. Winner = DATA
[DUEL] Epoch ended. INSTR misses = 15, DATA misses = 20. Winner = INSTR
[DUEL] Epoch ended. INSTR misses = 4, DATA misses = 7. Winner = INSTR
[DUEL] Epoch ended. INSTR misses = 35, DATA misses = 35. Winner = INSTR
[DUEL] Epoch ended. INSTR misses = 24, DATA misses = 18. Winner = DATA
[DUEL] Epoch ended. INSTR misses = 25, DATA misses = 21. Winner = DATA
[DUEL] Epoch ended. INSTR misses = 95, DATA misses = 87. Winner = DATA
[DUEL] Epoch ended. INSTR misses = 5, DATA misses = 9. Winner = INSTR
[DUEL] Epoch ended. INSTR misses = 14, DATA misses = 26. Winner = INSTR
[DUEL] Epoch ended. INSTR misses = 6, DATA misses = 5. Winner = DATA
[DUEL] Epoch ended. INSTR misses = 4, DATA misses = 1. Winner = DATA
[DUEL] Epoch ended. INSTR misses = 3, DATA misses = 3. Winner = INSTR
[DUEL] Epoch ended. INSTR misses = 11, DATA misses = 0. Winner = DATA
[DUEL] Epoch ended. INSTR misses = 3, DATA misses = 16. Winner = INSTR
[DUEL] Epoch ended. INSTR misses = 11, DATA misses = 6. Winner = DATA
[DUEL] Epoch ended. INSTR misses = 6, DATA misses = 11. Winner = INSTR
[DUEL] Epoch ended. INSTR misses = 5, DATA misses = 12. Winner = INSTR
[DUEL] Epoch ended. INSTR misses = 16, DATA misses = 17. Winner = INSTR
[DUEL] Epoch ended. INSTR misses = 8, DATA misses = 6. Winner = DATA
[DUEL] Epoch ended. INSTR misses = 44, DATA misses = 32. Winner = DATA
[DUEL] Epoch ended. INSTR misses = 67, DATA misses = 66. Winner = DATA
[DUEL] Epoch ended. INSTR misses = 125, DATA misses = 105. Winner = DATA
[DUEL] Epoch ended. INSTR misses = 123, DATA misses = 104. Winner = DATA
[DUEL] Epoch ended. INSTR misses = 101, DATA misses = 87. Winner = DATA
[DUEL] Epoch ended. INSTR misses = 21, DATA misses = 15. Winner = DATA
[DUEL] Epoch ended. INSTR misses = 0, DATA misses = 0. Winner = INSTR
[DUEL] Epoch ended. INSTR misses = 18, DATA misses = 21. Winner = INSTR
[DUEL] Epoch ended. INSTR misses = 3, DATA misses = 1. Winner = DATA
[DUEL] Epoch ended. INSTR misses = 3, DATA misses = 3. Winner = INSTR
Heartbeat CPU 0 instructions: 80000006 cycles: 33352479 heartbeat IPC: 2.124 cumulative IPC: 1.836 (Simulation time: 00 hr 06 min 30 sec)
[DUEL] Epoch ended. INSTR misses = 8, DATA misses = 5. Winner = DATA
[DUEL] Epoch ended. INSTR misses = 0, DATA misses = 0. Winner = INSTR
[DUEL] Epoch ended. INSTR misses = 5, DATA misses = 5. Winner = INSTR
[DUEL] Epoch ended. INSTR misses = 11, DATA misses = 12. Winner = INSTR
[DUEL] Epoch ended. INSTR misses = 20, DATA misses = 16. Winner = DATA
[DUEL] Epoch ended. INSTR misses = 12, DATA misses = 10. Winner = DATA
[DUEL] Epoch ended. INSTR misses = 95, DATA misses = 82. Winner = DATA
[DUEL] Epoch ended. INSTR misses = 19, DATA misses = 12. Winner = DATA
[DUEL] Epoch ended. INSTR misses = 0, DATA misses = 0. Winner = INSTR
[DUEL] Epoch ended. INSTR misses = 19, DATA misses = 17. Winner = DATA
[DUEL] Epoch ended. INSTR misses = 3, DATA misses = 1. Winner = DATA
[DUEL] Epoch ended. INSTR misses = 19, DATA misses = 3. Winner = DATA
[DUEL] Epoch ended. INSTR misses = 0, DATA misses = 16. Winner = INSTR
[DUEL] Epoch ended. INSTR misses = 16, DATA misses = 16. Winner = INSTR
[DUEL] Epoch ended. INSTR misses = 0, DATA misses = 0. Winner = INSTR
[DUEL] Epoch ended. INSTR misses = 5, DATA misses = 5. Winner = INSTR
[DUEL] Epoch ended. INSTR misses = 21, DATA misses = 22. Winner = INSTR
[DUEL] Epoch ended. INSTR misses = 8, DATA misses = 0. Winner = DATA
[DUEL] Epoch ended. INSTR misses = 9, DATA misses = 12. Winner = INSTR
[DUEL] Epoch ended. INSTR misses = 40, DATA misses = 31. Winner = DATA
[DUEL] Epoch ended. INSTR misses = 71, DATA misses = 75. Winner = INSTR
[DUEL] Epoch ended. INSTR misses = 128, DATA misses = 110. Winner = DATA
[DUEL] Epoch ended. INSTR misses = 143, DATA misses = 120. Winner = DATA
[DUEL] Epoch ended. INSTR misses = 119, DATA misses = 103. Winner = DATA
[DUEL] Epoch ended. INSTR misses = 127, DATA misses = 108. Winner = DATA
[DUEL] Epoch ended. INSTR misses = 106, DATA misses = 100. Winner = DATA
[DUEL] Epoch ended. INSTR misses = 45, DATA misses = 32. Winner = DATA
[DUEL] Epoch ended. INSTR misses = 6, DATA misses = 5. Winner = DATA
[DUEL] Epoch ended. INSTR misses = 15, DATA misses = 16. Winner = INSTR
[DUEL] Epoch ended. INSTR misses = 3, DATA misses = 5. Winner = INSTR
[DUEL] Epoch ended. INSTR misses = 3, DATA misses = 1. Winner = DATA
[DUEL] Epoch ended. INSTR misses = 18, DATA misses = 19. Winner = INSTR
[DUEL] Epoch ended. INSTR misses = 0, DATA misses = 0. Winner = INSTR
[DUEL] Epoch ended. INSTR misses = 9, DATA misses = 6. Winner = DATA
[DUEL] Epoch ended. INSTR misses = 9, DATA misses = 6. Winner = DATA
[DUEL] Epoch ended. INSTR misses = 6, DATA misses = 6. Winner = INSTR
[DUEL] Epoch ended. INSTR misses = 17, DATA misses = 15. Winner = DATA
[DUEL] Epoch ended. INSTR misses = 0, DATA misses = 1. Winner = INSTR
[DUEL] Epoch ended. INSTR misses = 10, DATA misses = 8. Winner = DATA
Heartbeat CPU 0 instructions: 90000000 cycles: 38099125 heartbeat IPC: 2.107 cumulative IPC: 1.876 (Simulation time: 00 hr 07 min 24 sec)
[DUEL] Epoch ended. INSTR misses = 19, DATA misses = 15. Winner = DATA
[DUEL] Epoch ended. INSTR misses = 73, DATA misses = 68. Winner = DATA
[DUEL] Epoch ended. INSTR misses = 134, DATA misses = 117. Winner = DATA
[DUEL] Epoch ended. INSTR misses = 112, DATA misses = 92. Winner = DATA
[DUEL] Epoch ended. INSTR misses = 114, DATA misses = 100. Winner = DATA
[DUEL] Epoch ended. INSTR misses = 127, DATA misses = 108. Winner = DATA
[DUEL] Epoch ended. INSTR misses = 1, DATA misses = 0. Winner = DATA
[DUEL] Epoch ended. INSTR misses = 22, DATA misses = 21. Winner = DATA
[DUEL] Epoch ended. INSTR misses = 3, DATA misses = 5. Winner = INSTR
*** Reached end of trace: (0, "../traces/public_traces/compute_int/compute_int_7.champsimtrace.xz")
[DUEL] Epoch ended. INSTR misses = 0, DATA misses = 0. Winner = INSTR
[DUEL] Epoch ended. INSTR misses = 3, DATA misses = 1. Winner = DATA
[DUEL] Epoch ended. INSTR misses = 3, DATA misses = 3. Winner = INSTR
[DUEL] Epoch ended. INSTR misses = 0, DATA misses = 0. Winner = INSTR
[DUEL] Epoch ended. INSTR misses = 7, DATA misses = 12. Winner = INSTR
[DUEL] Epoch ended. INSTR misses = 5, DATA misses = 5. Winner = INSTR
[DUEL] Epoch ended. INSTR misses = 5, DATA misses = 5. Winner = INSTR
[DUEL] Epoch ended. INSTR misses = 38, DATA misses = 33. Winner = DATA
[DUEL] Epoch ended. INSTR misses = 39, DATA misses = 33. Winner = DATA
[DUEL] Epoch ended. INSTR misses = 102, DATA misses = 87. Winner = DATA
[DUEL] Epoch ended. INSTR misses = 132, DATA misses = 110. Winner = DATA
[DUEL] Epoch ended. INSTR misses = 111, DATA misses = 96. Winner = DATA
[DUEL] Epoch ended. INSTR misses = 139, DATA misses = 125. Winner = DATA
[DUEL] Epoch ended. INSTR misses = 108, DATA misses = 87. Winner = DATA
[DUEL] Epoch ended. INSTR misses = 89, DATA misses = 76. Winner = DATA
[DUEL] Epoch ended. INSTR misses = 6, DATA misses = 5. Winner = DATA
[DUEL] Epoch ended. INSTR misses = 11, DATA misses = 0. Winner = DATA
[DUEL] Epoch ended. INSTR misses = 7, DATA misses = 21. Winner = INSTR
[DUEL] Epoch ended. INSTR misses = 3, DATA misses = 1. Winner = DATA
[DUEL] Epoch ended. INSTR misses = 17, DATA misses = 19. Winner = INSTR
[DUEL] Epoch ended. INSTR misses = 0, DATA misses = 0. Winner = INSTR
[DUEL] Epoch ended. INSTR misses = 0, DATA misses = 0. Winner = INSTR
[DUEL] Epoch ended. INSTR misses = 24, DATA misses = 24. Winner = INSTR
[DUEL] Epoch ended. INSTR misses = 15, DATA misses = 19. Winner = INSTR
[DUEL] Epoch ended. INSTR misses = 31, DATA misses = 9. Winner = DATA
[DUEL] Epoch ended. INSTR misses = 6, DATA misses = 12. Winner = INSTR
[DUEL] Epoch ended. INSTR misses = 10, DATA misses = 6. Winner = DATA
[DUEL] Epoch ended. INSTR misses = 25, DATA misses = 30. Winner = INSTR
[DUEL] Epoch ended. INSTR misses = 86, DATA misses = 68. Winner = DATA
[DUEL] Epoch ended. INSTR misses = 138, DATA misses = 111. Winner = DATA
Heartbeat CPU 0 instructions: 100000000 cycles: 44556116 heartbeat IPC: 1.549 cumulative IPC: 1.821 (Simulation time: 00 hr 08 min 34 sec)
[DUEL] Epoch ended. INSTR misses = 139, DATA misses = 120. Winner = DATA
[DUEL] Epoch ended. INSTR misses = 116, DATA misses = 102. Winner = DATA
[DUEL] Epoch ended. INSTR misses = 133, DATA misses = 120. Winner = DATA
[DUEL] Epoch ended. INSTR misses = 127, DATA misses = 122. Winner = DATA
[DUEL] Epoch ended. INSTR misses = 7, DATA misses = 0. Winner = DATA
[DUEL] Epoch ended. INSTR misses = 5, DATA misses = 5. Winner = INSTR
[DUEL] Epoch ended. INSTR misses = 3, DATA misses = 5. Winner = INSTR
[DUEL] Epoch ended. INSTR misses = 15, DATA misses = 7. Winner = DATA
[DUEL] Epoch ended. INSTR misses = 3, DATA misses = 9. Winner = INSTR
[DUEL] Epoch ended. INSTR misses = 18, DATA misses = 19. Winner = INSTR
[DUEL] Epoch ended. INSTR misses = 0, DATA misses = 3. Winner = INSTR
[DUEL] Epoch ended. INSTR misses = 16, DATA misses = 21. Winner = INSTR
[DUEL] Epoch ended. INSTR misses = 27, DATA misses = 21. Winner = DATA
[DUEL] Epoch ended. INSTR misses = 13, DATA misses = 17. Winner = INSTR
[DUEL] Epoch ended. INSTR misses = 18, DATA misses = 6. Winner = DATA
[DUEL] Epoch ended. INSTR misses = 2, DATA misses = 19. Winner = INSTR
[DUEL] Epoch ended. INSTR misses = 35, DATA misses = 34. Winner = DATA
[DUEL] Epoch ended. INSTR misses = 21, DATA misses = 18. Winner = DATA
[DUEL] Epoch ended. INSTR misses = 25, DATA misses = 19. Winner = DATA
[DUEL] Epoch ended. INSTR misses = 96, DATA misses = 87. Winner = DATA
[DUEL] Epoch ended. INSTR misses = 5, DATA misses = 6. Winner = INSTR
[DUEL] Epoch ended. INSTR misses = 14, DATA misses = 31. Winner = INSTR
[DUEL] Epoch ended. INSTR misses = 6, DATA misses = 5. Winner = DATA
[DUEL] Epoch ended. INSTR misses = 4, DATA misses = 1. Winner = DATA
[DUEL] Epoch ended. INSTR misses = 3, DATA misses = 3. Winner = INSTR
[DUEL] Epoch ended. INSTR misses = 1, DATA misses = 0. Winner = DATA
[DUEL] Epoch ended. INSTR misses = 12, DATA misses = 16. Winner = INSTR
[DUEL] Epoch ended. INSTR misses = 15, DATA misses = 20. Winner = INSTR
[DUEL] Epoch ended. INSTR misses = 6, DATA misses = 12. Winner = INSTR
[DUEL] Epoch ended. INSTR misses = 5, DATA misses = 7. Winner = INSTR
[DUEL] Epoch ended. INSTR misses = 16, DATA misses = 17. Winner = INSTR
[DUEL] Epoch ended. INSTR misses = 11, DATA misses = 7. Winner = DATA
[DUEL] Epoch ended. INSTR misses = 40, DATA misses = 31. Winner = DATA
[DUEL] Epoch ended. INSTR misses = 59, DATA misses = 57. Winner = DATA
[DUEL] Epoch ended. INSTR misses = 126, DATA misses = 108. Winner = DATA
[DUEL] Epoch ended. INSTR misses = 123, DATA misses = 105. Winner = DATA
[DUEL] Epoch ended. INSTR misses = 107, DATA misses = 92. Winner = DATA
[DUEL] Epoch ended. INSTR misses = 22, DATA misses = 15. Winner = DATA
[DUEL] Epoch ended. INSTR misses = 0, DATA misses = 0. Winner = INSTR
Heartbeat CPU 0 instructions: 110000002 cycles: 49993442 heartbeat IPC: 1.839 cumulative IPC: 1.823 (Simulation time: 00 hr 09 min 33 sec)
[DUEL] Epoch ended. INSTR misses = 19, DATA misses = 21. Winner = INSTR
[DUEL] Epoch ended. INSTR misses = 3, DATA misses = 1. Winner = DATA
[DUEL] Epoch ended. INSTR misses = 3, DATA misses = 3. Winner = INSTR
[DUEL] Epoch ended. INSTR misses = 6, DATA misses = 5. Winner = DATA
[DUEL] Epoch ended. INSTR misses = 0, DATA misses = 0. Winner = INSTR
[DUEL] Epoch ended. INSTR misses = 5, DATA misses = 5. Winner = INSTR
[DUEL] Epoch ended. INSTR misses = 13, DATA misses = 14. Winner = INSTR
[DUEL] Epoch ended. INSTR misses = 13, DATA misses = 11. Winner = DATA
[DUEL] Epoch ended. INSTR misses = 17, DATA misses = 13. Winner = DATA
[DUEL] Epoch ended. INSTR misses = 97, DATA misses = 83. Winner = DATA
[DUEL] Epoch ended. INSTR misses = 10, DATA misses = 8. Winner = DATA
[DUEL] Epoch ended. INSTR misses = 5, DATA misses = 5. Winner = INSTR
[DUEL] Epoch ended. INSTR misses = 19, DATA misses = 16. Winner = DATA
[DUEL] Epoch ended. INSTR misses = 3, DATA misses = 1. Winner = DATA
[DUEL] Epoch ended. INSTR misses = 19, DATA misses = 4. Winner = DATA
[DUEL] Epoch ended. INSTR misses = 0, DATA misses = 15. Winner = INSTR
[DUEL] Epoch ended. INSTR misses = 16, DATA misses = 16. Winner = INSTR
[DUEL] Epoch ended. INSTR misses = 0, DATA misses = 0. Winner = INSTR
[DUEL] Epoch ended. INSTR misses = 5, DATA misses = 5. Winner = INSTR
[DUEL] Epoch ended. INSTR misses = 21, DATA misses = 22. Winner = INSTR
[DUEL] Epoch ended. INSTR misses = 0, DATA misses = 0. Winner = INSTR
[DUEL] Epoch ended. INSTR misses = 16, DATA misses = 12. Winner = DATA
[DUEL] Epoch ended. INSTR misses = 34, DATA misses = 31. Winner = DATA
[DUEL] Epoch ended. INSTR misses = 78, DATA misses = 74. Winner = DATA
[DUEL] Epoch ended. INSTR misses = 122, DATA misses = 104. Winner = DATA
[DUEL] Epoch ended. INSTR misses = 143, DATA misses = 120. Winner = DATA
[DUEL] Epoch ended. INSTR misses = 126, DATA misses = 111. Winner = DATA
[DUEL] Epoch ended. INSTR misses = 118, DATA misses = 103. Winner = DATA
[DUEL] Epoch ended. INSTR misses = 108, DATA misses = 93. Winner = DATA
[DUEL] Epoch ended. INSTR misses = 53, DATA misses = 41. Winner = DATA
[DUEL] Epoch ended. INSTR misses = 6, DATA misses = 5. Winner = DATA
[DUEL] Epoch ended. INSTR misses = 15, DATA misses = 16. Winner = INSTR
[DUEL] Epoch ended. INSTR misses = 3, DATA misses = 5. Winner = INSTR
[DUEL] Epoch ended. INSTR misses = 3, DATA misses = 1. Winner = DATA
[DUEL] Epoch ended. INSTR misses = 17, DATA misses = 18. Winner = INSTR
[DUEL] Epoch ended. INSTR misses = 0, DATA misses = 0. Winner = INSTR
[DUEL] Epoch ended. INSTR misses = 13, DATA misses = 8. Winner = DATA
[DUEL] Epoch ended. INSTR misses = 9, DATA misses = 5. Winner = DATA
[DUEL] Epoch ended. INSTR misses = 7, DATA misses = 7. Winner = INSTR
Heartbeat CPU 0 instructions: 120000005 cycles: 54741962 heartbeat IPC: 2.106 cumulative IPC: 1.851 (Simulation time: 00 hr 10 min 26 sec)
[DUEL] Epoch ended. INSTR misses = 16, DATA misses = 15. Winner = DATA
[DUEL] Epoch ended. INSTR misses = 0, DATA misses = 1. Winner = INSTR
[DUEL] Epoch ended. INSTR misses = 10, DATA misses = 8. Winner = DATA
[DUEL] Epoch ended. INSTR misses = 19, DATA misses = 15. Winner = DATA
[DUEL] Epoch ended. INSTR misses = 73, DATA misses = 68. Winner = DATA
[DUEL] Epoch ended. INSTR misses = 133, DATA misses = 116. Winner = DATA
[DUEL] Epoch ended. INSTR misses = 110, DATA misses = 90. Winner = DATA
[DUEL] Epoch ended. INSTR misses = 120, DATA misses = 106. Winner = DATA
[DUEL] Epoch ended. INSTR misses = 124, DATA misses = 108. Winner = DATA
[DUEL] Epoch ended. INSTR misses = 1, DATA misses = 0. Winner = DATA
[DUEL] Epoch ended. INSTR misses = 21, DATA misses = 20. Winner = DATA
[DUEL] Epoch ended. INSTR misses = 3, DATA misses = 5. Winner = INSTR
*** Reached end of trace: (0, "../traces/public_traces/compute_int/compute_int_7.champsimtrace.xz")
[DUEL] Epoch ended. INSTR misses = 0, DATA misses = 0. Winner = INSTR
[DUEL] Epoch ended. INSTR misses = 3, DATA misses = 1. Winner = DATA
[DUEL] Epoch ended. INSTR misses = 3, DATA misses = 3. Winner = INSTR
[DUEL] Epoch ended. INSTR misses = 0, DATA misses = 0. Winner = INSTR
[DUEL] Epoch ended. INSTR misses = 7, DATA misses = 10. Winner = INSTR
[DUEL] Epoch ended. INSTR misses = 5, DATA misses = 7. Winner = INSTR
[DUEL] Epoch ended. INSTR misses = 5, DATA misses = 5. Winner = INSTR
[DUEL] Epoch ended. INSTR misses = 38, DATA misses = 33. Winner = DATA
[DUEL] Epoch ended. INSTR misses = 39, DATA misses = 37. Winner = DATA
[DUEL] Epoch ended. INSTR misses = 104, DATA misses = 88. Winner = DATA
[DUEL] Epoch ended. INSTR misses = 129, DATA misses = 106. Winner = DATA
[DUEL] Epoch ended. INSTR misses = 106, DATA misses = 100. Winner = DATA
[DUEL] Epoch ended. INSTR misses = 134, DATA misses = 117. Winner = DATA
[DUEL] Epoch ended. INSTR misses = 116, DATA misses = 96. Winner = DATA
[DUEL] Epoch ended. INSTR misses = 89, DATA misses = 76. Winner = DATA
[DUEL] Epoch ended. INSTR misses = 6, DATA misses = 5. Winner = DATA
[DUEL] Epoch ended. INSTR misses = 11, DATA misses = 0. Winner = DATA
[DUEL] Epoch ended. INSTR misses = 7, DATA misses = 21. Winner = INSTR
[DUEL] Epoch ended. INSTR misses = 3, DATA misses = 1. Winner = DATA
[DUEL] Epoch ended. INSTR misses = 17, DATA misses = 19. Winner = INSTR
[DUEL] Epoch ended. INSTR misses = 0, DATA misses = 0. Winner = INSTR
[DUEL] Epoch ended. INSTR misses = 0, DATA misses = 0. Winner = INSTR
[DUEL] Epoch ended. INSTR misses = 23, DATA misses = 24. Winner = INSTR
[DUEL] Epoch ended. INSTR misses = 15, DATA misses = 16. Winner = INSTR
[DUEL] Epoch ended. INSTR misses = 23, DATA misses = 8. Winner = DATA
[DUEL] Epoch ended. INSTR misses = 9, DATA misses = 13. Winner = INSTR
[DUEL] Epoch ended. INSTR misses = 8, DATA misses = 6. Winner = DATA
Heartbeat CPU 0 instructions: 130000000 cycles: 60621310 heartbeat IPC: 1.701 cumulative IPC: 1.835 (Simulation time: 00 hr 11 min 30 sec)
Simulation finished CPU 0 instructions: 100000007 cycles: 54501729 cumulative IPC: 1.835 (Simulation time: 00 hr 11 min 30 sec)
Simulation complete CPU 0 instructions: 100000007 cycles: 54501729 cumulative IPC: 1.835 (Simulation time: 00 hr 11 min 30 sec)

ChampSim completed all CPUs

=== Simulation ===
CPU 0 runs ../traces/public_traces/compute_int/compute_int_7.champsimtrace.xz
Region of Interest Statistics

CPU 0 cumulative IPC: 1.835 instructions: 100000007 cycles: 54501729
CPU 0 Branch Prediction Accuracy: 98.71% MPKI: 1.656 Average ROB Occupancy at Mispredict: 69.68
Branch type MPKI
BRANCH_DIRECT_JUMP: 0
BRANCH_INDIRECT: 0.839
BRANCH_CONDITIONAL: 0.817
BRANCH_DIRECT_CALL: 0
BRANCH_INDIRECT_CALL: 0
BRANCH_RETURN: 0

LLC TOTAL        ACCESS:    6566485 HIT:    2733707 MISS:    3832778
LLC LOAD         ACCESS:    2955349 HIT:    1343732 MISS:    1611617
LLC RFO          ACCESS:        219 HIT:        135 MISS:         84
LLC PREFETCH     ACCESS:    3455962 HIT:    1331846 MISS:    2124116
LLC WRITE        ACCESS:     151187 HIT:      57422 MISS:      93765
LLC TRANSLATION  ACCESS:       3768 HIT:        572 MISS:       3196
LLC PREFETCH REQUESTED:          0 ISSUED:          0 USEFUL:          0 USELESS:          0
LLC AVERAGE MISS LATENCY: 199.8 cycles
cpu0_DTLB TOTAL        ACCESS:   22121183 HIT:   21835047 MISS:     286136
cpu0_DTLB LOAD         ACCESS:   22121183 HIT:   21835047 MISS:     286136
cpu0_DTLB RFO          ACCESS:          0 HIT:          0 MISS:          0
cpu0_DTLB PREFETCH     ACCESS:          0 HIT:          0 MISS:          0
cpu0_DTLB WRITE        ACCESS:          0 HIT:          0 MISS:          0
cpu0_DTLB TRANSLATION  ACCESS:          0 HIT:          0 MISS:          0
cpu0_DTLB PREFETCH REQUESTED:          0 ISSUED:          0 USEFUL:          0 USELESS:          0
cpu0_DTLB AVERAGE MISS LATENCY: 6.764 cycles
cpu0_ITLB TOTAL        ACCESS:      10210 HIT:      10210 MISS:          0
cpu0_ITLB LOAD         ACCESS:      10210 HIT:      10210 MISS:          0
cpu0_ITLB RFO          ACCESS:          0 HIT:          0 MISS:          0
cpu0_ITLB PREFETCH     ACCESS:          0 HIT:          0 MISS:          0
cpu0_ITLB WRITE        ACCESS:          0 HIT:          0 MISS:          0
cpu0_ITLB TRANSLATION  ACCESS:          0 HIT:          0 MISS:          0
cpu0_ITLB PREFETCH REQUESTED:          0 ISSUED:          0 USEFUL:          0 USELESS:          0
cpu0_ITLB AVERAGE MISS LATENCY: -nan cycles
cpu0_L1D TOTAL        ACCESS:   44620079 HIT:   35904613 MISS:    8715466
cpu0_L1D LOAD         ACCESS:   14892369 HIT:   11027220 MISS:    3865149
cpu0_L1D RFO          ACCESS:          0 HIT:          0 MISS:          0
cpu0_L1D PREFETCH     ACCESS:   13096111 HIT:    8256753 MISS:    4839358
cpu0_L1D WRITE        ACCESS:   16611092 HIT:   16610093 MISS:        999
cpu0_L1D TRANSLATION  ACCESS:      20507 HIT:      10547 MISS:       9960
cpu0_L1D PREFETCH REQUESTED:  275634728 ISSUED:   13096105 USEFUL:     989594 USELESS:      60937
cpu0_L1D AVERAGE MISS LATENCY: 55.43 cycles
cpu0_L1I TOTAL        ACCESS:      14514 HIT:      14514 MISS:          0
cpu0_L1I LOAD         ACCESS:       7279 HIT:       7279 MISS:          0
cpu0_L1I RFO          ACCESS:          0 HIT:          0 MISS:          0
cpu0_L1I PREFETCH     ACCESS:       7235 HIT:       7235 MISS:          0
cpu0_L1I WRITE        ACCESS:          0 HIT:          0 MISS:          0
cpu0_L1I TRANSLATION  ACCESS:          0 HIT:          0 MISS:          0
cpu0_L1I PREFETCH REQUESTED:       9039 ISSUED:       7235 USEFUL:          0 USELESS:          0
cpu0_L1I AVERAGE MISS LATENCY: -nan cycles
cpu0_L2C TOTAL        ACCESS:   16307259 HIT:    8230384 MISS:    8076875
cpu0_L2C LOAD         ACCESS:    3471171 HIT:     387702 MISS:    3083469
cpu0_L2C RFO          ACCESS:        309 HIT:         77 MISS:        232
cpu0_L2C PREFETCH     ACCESS:   12659070 HIT:    7670046 MISS:    4989024
cpu0_L2C WRITE        ACCESS:     166750 HIT:     166368 MISS:        382
cpu0_L2C TRANSLATION  ACCESS:       9959 HIT:       6191 MISS:       3768
cpu0_L2C PREFETCH REQUESTED:    8264997 ISSUED:    7911899 USEFUL:     544120 USELESS:    1871626
cpu0_L2C AVERAGE MISS LATENCY: 110.5 cycles
cpu0_STLB TOTAL        ACCESS:     142834 HIT:     122430 MISS:      20404
cpu0_STLB LOAD         ACCESS:     142834 HIT:     122430 MISS:      20404
cpu0_STLB RFO          ACCESS:          0 HIT:          0 MISS:          0
cpu0_STLB PREFETCH     ACCESS:          0 HIT:          0 MISS:          0
cpu0_STLB WRITE        ACCESS:          0 HIT:          0 MISS:          0
cpu0_STLB TRANSLATION  ACCESS:          0 HIT:          0 MISS:          0
cpu0_STLB PREFETCH REQUESTED:          0 ISSUED:          0 USEFUL:          0 USELESS:          0
cpu0_STLB AVERAGE MISS LATENCY: 95.36 cycles

DRAM Statistics

Channel 0 RQ ROW_BUFFER_HIT:    1610543
  ROW_BUFFER_MISS:     265675
 AVG DBUS CONGESTED CYCLE: 3.966
WQ ROW_BUFFER_HIT: Channel 0 
  ROW_BUFFER_MISS:       8811
  FULL:      46809

Channel 1 RQ ROW_BUFFER_HIT:    1595933
  ROW_BUFFER_MISS:     266303
 AVG DBUS CONGESTED CYCLE: 3.963
WQ ROW_BUFFER_HIT: Channel 1 
  ROW_BUFFER_MISS:      10910
  FULL:      61682
BERTI TO_L1: 14804142 TO_L2: 276681177 TO_L2_BC_MSHR: 164101649
BERTI AVG_LAT: 109.946 NUM_TRACK_LATENCY: 5892734 NUM_CANT_TRACK_LATENCY: 172
BERTI CROSS_PAGE 95773370 NO_CROSS_PAGE: 195711949
BERTI FOUND_BERTI: 42873603 NO_FOUND_BERTI: 1766313
BERTI AVERAGE_ISSUED: 3.00044
CPU 0 L1I Entangling prefetcher final stats
IP accesses: 92 2480 273 / 7279
IP misses: 0 0 0 / 0
IP hits: 0 0 0 / 0
IP late: 0 0 0 / 0
IP wrong: 0 0 0 / 0
miss rate: 0
coverage: -nan
coverage_late: -nan
accuracy: -nan
accuracy_late: -nan
discarded: 0
evicts entangled j table: 0
evicts entangled k table: 0
max bb size: 11
formats: 0 0 0 0 0 0 0 
hist_lookups: 0 0 0 0 0 0 0 0 0 0 0 0 0 0 0 0 0 84 
hist_lookups_evict: 0 %
hist_lookups_shortlat: 100 %
bb_found_hist: 0 1293 452 345 40 20 50 0 0 0 0 10 0 0 0 0 0 0 0 0 0 0 0 0 0 0 0 0 0 0 0 0 0 0 0 0 0 0 0 0 0 0 0 0 0 0 0 0 0 0 0 0 0 0 0 0 0 0 0 0 0 0 0 0 
bb_found_summary: 3902 2210 1.76562
entangled_found_hist: 0 580 422 180 70 10 0 0 
entangled_found_summary: 2294 1262 1.81775
bb_ent_found_hist: 0 837 380 180 21 10 77 0 0 0 0 10 0 0 0 0 0 0 0 0 0 0 0 0 0 0 0 0 0 0 0 0 0 0 0 0 0 0 0 0 0 0 0 0 0 0 0 0 0 0 0 0 0 0 0 0 0 0 0 0 0 0 0 0 
bb_ent_found_summary: 2843 1515 1.87657
