WARNING: physical memory size is smaller than virtual memory size.

*** ChampSim Multicore Out-of-Order Simulator ***
Warmup Instructions: 30000000
Simulation Instructions: 100000000
Number of CPUs: 1
Page size: 4096

BTB:
Basic BTB sets: 1024 ways: 8
Indirect:
history lengths: 0 0 10 16 27 44 60 96 109 219 449 487 714 1313 2146 3881 
ITTAGE tables: 64768 bytes;Region table: 240 bytes;IUM: 384 bytes;Total Storage= 65392 bytes;
RAS:
RAS size: 64
[LLC] INSTR Demand IPV: 1 2 2 1 4 Prefetch IPV: 1 2 1 1 4
[LLC] DATA  Demand IPV: 1 1 1 2 4 Prefetch IPV: 1 1 2 2 4
Berti Prefetcher
CPU 0 Entangling prefetcher
Off-chip DRAM Size: 8 GiB Channels: 2 Width: 64-bit Data Race: 6400 MT/s
[DUEL] Epoch ended. INSTR misses = 161, DATA misses = 160. Winner = DATA
[DUEL] Epoch ended. INSTR misses = 209, DATA misses = 208. Winner = DATA
[DUEL] Epoch ended. INSTR misses = 276, DATA misses = 276. Winner = INSTR
[DUEL] Epoch ended. INSTR misses = 220, DATA misses = 217. Winner = DATA
[DUEL] Epoch ended. INSTR misses = 284, DATA misses = 284. Winner = INSTR
[DUEL] Epoch ended. INSTR misses = 253, DATA misses = 250. Winner = DATA
[DUEL] Epoch ended. INSTR misses = 237, DATA misses = 238. Winner = INSTR
[DUEL] Epoch ended. INSTR misses = 287, DATA misses = 286. Winner = DATA
[DUEL] Epoch ended. INSTR misses = 268, DATA misses = 269. Winner = INSTR
[DUEL] Epoch ended. INSTR misses = 207, DATA misses = 208. Winner = INSTR
[DUEL] Epoch ended. INSTR misses = 319, DATA misses = 320. Winner = INSTR
[DUEL] Epoch ended. INSTR misses = 241, DATA misses = 243. Winner = INSTR
[DUEL] Epoch ended. INSTR misses = 223, DATA misses = 224. Winner = INSTR
[DUEL] Epoch ended. INSTR misses = 319, DATA misses = 319. Winner = INSTR
[DUEL] Epoch ended. INSTR misses = 223, DATA misses = 223. Winner = INSTR
[DUEL] Epoch ended. INSTR misses = 240, DATA misses = 240. Winner = INSTR
[DUEL] Epoch ended. INSTR misses = 319, DATA misses = 319. Winner = INSTR
[DUEL] Epoch ended. INSTR misses = 206, DATA misses = 208. Winner = INSTR
[DUEL] Epoch ended. INSTR misses = 272, DATA misses = 272. Winner = INSTR
[DUEL] Epoch ended. INSTR misses = 287, DATA misses = 288. Winner = INSTR
[DUEL] Epoch ended. INSTR misses = 240, DATA misses = 239. Winner = DATA
[DUEL] Epoch ended. INSTR misses = 256, DATA misses = 256. Winner = INSTR
[DUEL] Epoch ended. INSTR misses = 304, DATA misses = 303. Winner = DATA
[DUEL] Epoch ended. INSTR misses = 207, DATA misses = 208. Winner = INSTR
[DUEL] Epoch ended. INSTR misses = 272, DATA misses = 272. Winner = INSTR
[DUEL] Epoch ended. INSTR misses = 288, DATA misses = 288. Winner = INSTR
[DUEL] Epoch ended. INSTR misses = 208, DATA misses = 208. Winner = INSTR
[DUEL] Epoch ended. INSTR misses = 304, DATA misses = 304. Winner = INSTR
[DUEL] Epoch ended. INSTR misses = 256, DATA misses = 255. Winner = DATA
[DUEL] Epoch ended. INSTR misses = 240, DATA misses = 240. Winner = INSTR
[DUEL] Epoch ended. INSTR misses = 288, DATA misses = 288. Winner = INSTR
[DUEL] Epoch ended. INSTR misses = 224, DATA misses = 224. Winner = INSTR
[DUEL] Epoch ended. INSTR misses = 241, DATA misses = 240. Winner = DATA
[DUEL] Epoch ended. INSTR misses = 318, DATA misses = 319. Winner = INSTR
[DUEL] Epoch ended. INSTR misses = 256, DATA misses = 255. Winner = DATA
[DUEL] Epoch ended. INSTR misses = 240, DATA misses = 240. Winner = INSTR
[DUEL] Epoch ended. INSTR misses = 336, DATA misses = 335. Winner = DATA
[DUEL] Epoch ended. INSTR misses = 224, DATA misses = 224. Winner = INSTR
[DUEL] Epoch ended. INSTR misses = 272, DATA misses = 272. Winner = INSTR
Heartbeat CPU 0 instructions: 10000001 cycles: 3332887 heartbeat IPC: 3 cumulative IPC: 3 (Simulation time: 00 hr 00 min 41 sec)
[DUEL] Epoch ended. INSTR misses = 304, DATA misses = 304. Winner = INSTR
[DUEL] Epoch ended. INSTR misses = 222, DATA misses = 222. Winner = INSTR
[DUEL] Epoch ended. INSTR misses = 288, DATA misses = 288. Winner = INSTR
[DUEL] Epoch ended. INSTR misses = 288, DATA misses = 288. Winner = INSTR
[DUEL] Epoch ended. INSTR misses = 256, DATA misses = 256. Winner = INSTR
[DUEL] Epoch ended. INSTR misses = 272, DATA misses = 272. Winner = INSTR
[DUEL] Epoch ended. INSTR misses = 304, DATA misses = 304. Winner = INSTR
[DUEL] Epoch ended. INSTR misses = 224, DATA misses = 224. Winner = INSTR
[DUEL] Epoch ended. INSTR misses = 288, DATA misses = 288. Winner = INSTR
[DUEL] Epoch ended. INSTR misses = 287, DATA misses = 288. Winner = INSTR
[DUEL] Epoch ended. INSTR misses = 224, DATA misses = 224. Winner = INSTR
[DUEL] Epoch ended. INSTR misses = 320, DATA misses = 320. Winner = INSTR
[DUEL] Epoch ended. INSTR misses = 256, DATA misses = 256. Winner = INSTR
[DUEL] Epoch ended. INSTR misses = 256, DATA misses = 256. Winner = INSTR
[DUEL] Epoch ended. INSTR misses = 304, DATA misses = 304. Winner = INSTR
[DUEL] Epoch ended. INSTR misses = 272, DATA misses = 272. Winner = INSTR
[DUEL] Epoch ended. INSTR misses = 224, DATA misses = 224. Winner = INSTR
[DUEL] Epoch ended. INSTR misses = 320, DATA misses = 320. Winner = INSTR
[DUEL] Epoch ended. INSTR misses = 224, DATA misses = 224. Winner = INSTR
[DUEL] Epoch ended. INSTR misses = 241, DATA misses = 240. Winner = DATA
[DUEL] Epoch ended. INSTR misses = 320, DATA misses = 320. Winner = INSTR
[DUEL] Epoch ended. INSTR misses = 208, DATA misses = 208. Winner = INSTR
[DUEL] Epoch ended. INSTR misses = 272, DATA misses = 272. Winner = INSTR
[DUEL] Epoch ended. INSTR misses = 288, DATA misses = 288. Winner = INSTR
[DUEL] Epoch ended. INSTR misses = 208, DATA misses = 208. Winner = INSTR
[DUEL] Epoch ended. INSTR misses = 288, DATA misses = 288. Winner = INSTR
[DUEL] Epoch ended. INSTR misses = 272, DATA misses = 272. Winner = INSTR
[DUEL] Epoch ended. INSTR misses = 240, DATA misses = 240. Winner = INSTR
[DUEL] Epoch ended. INSTR misses = 272, DATA misses = 272. Winner = INSTR
[DUEL] Epoch ended. INSTR misses = 288, DATA misses = 288. Winner = INSTR
[DUEL] Epoch ended. INSTR misses = 208, DATA misses = 208. Winner = INSTR
[DUEL] Epoch ended. INSTR misses = 304, DATA misses = 304. Winner = INSTR
[DUEL] Epoch ended. INSTR misses = 256, DATA misses = 256. Winner = INSTR
[DUEL] Epoch ended. INSTR misses = 208, DATA misses = 208. Winner = INSTR
[DUEL] Epoch ended. INSTR misses = 320, DATA misses = 319. Winner = DATA
[DUEL] Epoch ended. INSTR misses = 240, DATA misses = 240. Winner = INSTR
[DUEL] Epoch ended. INSTR misses = 240, DATA misses = 240. Winner = INSTR
[DUEL] Epoch ended. INSTR misses = 304, DATA misses = 304. Winner = INSTR
[DUEL] Epoch ended. INSTR misses = 256, DATA misses = 256. Winner = INSTR
Heartbeat CPU 0 instructions: 20000001 cycles: 6666221 heartbeat IPC: 3 cumulative IPC: 3 (Simulation time: 00 hr 01 min 23 sec)
[DUEL] Epoch ended. INSTR misses = 224, DATA misses = 224. Winner = INSTR
[DUEL] Epoch ended. INSTR misses = 304, DATA misses = 304. Winner = INSTR
[DUEL] Epoch ended. INSTR misses = 240, DATA misses = 240. Winner = INSTR
[DUEL] Epoch ended. INSTR misses = 225, DATA misses = 224. Winner = DATA
[DUEL] Epoch ended. INSTR misses = 320, DATA misses = 320. Winner = INSTR
[DUEL] Epoch ended. INSTR misses = 224, DATA misses = 224. Winner = INSTR
[DUEL] Epoch ended. INSTR misses = 288, DATA misses = 288. Winner = INSTR
[DUEL] Epoch ended. INSTR misses = 288, DATA misses = 288. Winner = INSTR
[DUEL] Epoch ended. INSTR misses = 224, DATA misses = 224. Winner = INSTR
[DUEL] Epoch ended. INSTR misses = 304, DATA misses = 304. Winner = INSTR
[DUEL] Epoch ended. INSTR misses = 272, DATA misses = 272. Winner = INSTR
[DUEL] Epoch ended. INSTR misses = 256, DATA misses = 256. Winner = INSTR
[DUEL] Epoch ended. INSTR misses = 288, DATA misses = 288. Winner = INSTR
[DUEL] Epoch ended. INSTR misses = 288, DATA misses = 288. Winner = INSTR
[DUEL] Epoch ended. INSTR misses = 224, DATA misses = 224. Winner = INSTR
[DUEL] Epoch ended. INSTR misses = 320, DATA misses = 320. Winner = INSTR
[DUEL] Epoch ended. INSTR misses = 256, DATA misses = 256. Winner = INSTR
[DUEL] Epoch ended. INSTR misses = 224, DATA misses = 224. Winner = INSTR
[DUEL] Epoch ended. INSTR misses = 336, DATA misses = 336. Winner = INSTR
[DUEL] Epoch ended. INSTR misses = 240, DATA misses = 240. Winner = INSTR
[DUEL] Epoch ended. INSTR misses = 256, DATA misses = 256. Winner = INSTR
[DUEL] Epoch ended. INSTR misses = 320, DATA misses = 320. Winner = INSTR
[DUEL] Epoch ended. INSTR misses = 256, DATA misses = 256. Winner = INSTR
[DUEL] Epoch ended. INSTR misses = 240, DATA misses = 240. Winner = INSTR
[DUEL] Epoch ended. INSTR misses = 309, DATA misses = 304. Winner = DATA
[DUEL] Epoch ended. INSTR misses = 252, DATA misses = 258. Winner = INSTR
[DUEL] Epoch ended. INSTR misses = 256, DATA misses = 256. Winner = INSTR
[DUEL] Epoch ended. INSTR misses = 304, DATA misses = 307. Winner = INSTR
[DUEL] Epoch ended. INSTR misses = 208, DATA misses = 208. Winner = INSTR
[DUEL] Epoch ended. INSTR misses = 289, DATA misses = 288. Winner = DATA
[DUEL] Epoch ended. INSTR misses = 272, DATA misses = 272. Winner = INSTR
[DUEL] Epoch ended. INSTR misses = 240, DATA misses = 240. Winner = INSTR
[DUEL] Epoch ended. INSTR misses = 272, DATA misses = 272. Winner = INSTR
[DUEL] Epoch ended. INSTR misses = 256, DATA misses = 256. Winner = INSTR
[DUEL] Epoch ended. INSTR misses = 240, DATA misses = 240. Winner = INSTR
[DUEL] Epoch ended. INSTR misses = 288, DATA misses = 288. Winner = INSTR
[DUEL] Epoch ended. INSTR misses = 272, DATA misses = 272. Winner = INSTR
[DUEL] Epoch ended. INSTR misses = 208, DATA misses = 208. Winner = INSTR
[DUEL] Epoch ended. INSTR misses = 320, DATA misses = 320. Winner = INSTR
Heartbeat CPU 0 instructions: 30000005 cycles: 9999555 heartbeat IPC: 3 cumulative IPC: 3 (Simulation time: 00 hr 02 min 04 sec)
Warmup finished CPU 0 instructions: 30000005 cycles: 9999556 cumulative IPC: 3 (Simulation time: 00 hr 02 min 04 sec)
Warmup complete CPU 0 instructions: 30000005 cycles: 9999556 cumulative IPC: 3 (Simulation time: 00 hr 02 min 04 sec)
[DUEL] Epoch ended. INSTR misses = 240, DATA misses = 240. Winner = INSTR
[DUEL] Epoch ended. INSTR misses = 224, DATA misses = 224. Winner = INSTR
[DUEL] Epoch ended. INSTR misses = 320, DATA misses = 320. Winner = INSTR
[DUEL] Epoch ended. INSTR misses = 224, DATA misses = 224. Winner = INSTR
[DUEL] Epoch ended. INSTR misses = 256, DATA misses = 256. Winner = INSTR
[DUEL] Epoch ended. INSTR misses = 304, DATA misses = 304. Winner = INSTR
[DUEL] Epoch ended. INSTR misses = 240, DATA misses = 240. Winner = INSTR
[DUEL] Epoch ended. INSTR misses = 240, DATA misses = 240. Winner = INSTR
[DUEL] Epoch ended. INSTR misses = 320, DATA misses = 320. Winner = INSTR
[DUEL] Epoch ended. INSTR misses = 208, DATA misses = 208. Winner = INSTR
[DUEL] Epoch ended. INSTR misses = 256, DATA misses = 256. Winner = INSTR
[DUEL] Epoch ended. INSTR misses = 304, DATA misses = 304. Winner = INSTR
[DUEL] Epoch ended. INSTR misses = 208, DATA misses = 208. Winner = INSTR
[DUEL] Epoch ended. INSTR misses = 274, DATA misses = 272. Winner = DATA
[DUEL] Epoch ended. INSTR misses = 273, DATA misses = 272. Winner = DATA
[DUEL] Epoch ended. INSTR misses = 255, DATA misses = 256. Winner = INSTR
[DUEL] Epoch ended. INSTR misses = 290, DATA misses = 288. Winner = DATA
[DUEL] Epoch ended. INSTR misses = 176, DATA misses = 176. Winner = INSTR
[DUEL] Epoch ended. INSTR misses = 272, DATA misses = 272. Winner = INSTR
[DUEL] Epoch ended. INSTR misses = 176, DATA misses = 176. Winner = INSTR
[DUEL] Epoch ended. INSTR misses = 256, DATA misses = 256. Winner = INSTR
[DUEL] Epoch ended. INSTR misses = 256, DATA misses = 256. Winner = INSTR
[DUEL] Epoch ended. INSTR misses = 192, DATA misses = 192. Winner = INSTR
*** Reached end of trace: (0, "../traces/public_traces/compute_int/compute_int_45.champsimtrace.xz")
[DUEL] Epoch ended. INSTR misses = 208, DATA misses = 208. Winner = INSTR
[DUEL] Epoch ended. INSTR misses = 70, DATA misses = 69. Winner = DATA
[DUEL] Epoch ended. INSTR misses = 191, DATA misses = 190. Winner = DATA
[DUEL] Epoch ended. INSTR misses = 307, DATA misses = 304. Winner = DATA
[DUEL] Epoch ended. INSTR misses = 244, DATA misses = 241. Winner = DATA
[DUEL] Epoch ended. INSTR misses = 217, DATA misses = 216. Winner = DATA
[DUEL] Epoch ended. INSTR misses = 300, DATA misses = 296. Winner = DATA
[DUEL] Epoch ended. INSTR misses = 250, DATA misses = 251. Winner = INSTR
[DUEL] Epoch ended. INSTR misses = 220, DATA misses = 220. Winner = INSTR
[DUEL] Epoch ended. INSTR misses = 298, DATA misses = 301. Winner = INSTR
[DUEL] Epoch ended. INSTR misses = 238, DATA misses = 240. Winner = INSTR
[DUEL] Epoch ended. INSTR misses = 237, DATA misses = 240. Winner = INSTR
[DUEL] Epoch ended. INSTR misses = 319, DATA misses = 320. Winner = INSTR
[DUEL] Epoch ended. INSTR misses = 207, DATA misses = 206. Winner = DATA
[DUEL] Epoch ended. INSTR misses = 254, DATA misses = 256. Winner = INSTR
[DUEL] Epoch ended. INSTR misses = 303, DATA misses = 302. Winner = DATA
Heartbeat CPU 0 instructions: 40000007 cycles: 43199926 heartbeat IPC: 0.3012 cumulative IPC: 0.3012 (Simulation time: 00 hr 06 min 18 sec)
[DUEL] Epoch ended. INSTR misses = 206, DATA misses = 206. Winner = INSTR
[DUEL] Epoch ended. INSTR misses = 286, DATA misses = 288. Winner = INSTR
[DUEL] Epoch ended. INSTR misses = 270, DATA misses = 272. Winner = INSTR
[DUEL] Epoch ended. INSTR misses = 238, DATA misses = 240. Winner = INSTR
[DUEL] Epoch ended. INSTR misses = 272, DATA misses = 271. Winner = DATA
[DUEL] Epoch ended. INSTR misses = 286, DATA misses = 266. Winner = DATA
[DUEL] Epoch ended. INSTR misses = 210, DATA misses = 228. Winner = INSTR
[DUEL] Epoch ended. INSTR misses = 288, DATA misses = 287. Winner = DATA
[DUEL] Epoch ended. INSTR misses = 270, DATA misses = 272. Winner = INSTR
[DUEL] Epoch ended. INSTR misses = 208, DATA misses = 208. Winner = INSTR
[DUEL] Epoch ended. INSTR misses = 320, DATA misses = 320. Winner = INSTR
[DUEL] Epoch ended. INSTR misses = 240, DATA misses = 240. Winner = INSTR
[DUEL] Epoch ended. INSTR misses = 240, DATA misses = 239. Winner = DATA
[DUEL] Epoch ended. INSTR misses = 304, DATA misses = 303. Winner = DATA
[DUEL] Epoch ended. INSTR misses = 224, DATA misses = 224. Winner = INSTR
[DUEL] Epoch ended. INSTR misses = 256, DATA misses = 256. Winner = INSTR
[DUEL] Epoch ended. INSTR misses = 289, DATA misses = 288. Winner = DATA
[DUEL] Epoch ended. INSTR misses = 238, DATA misses = 238. Winner = INSTR
[DUEL] Epoch ended. INSTR misses = 256, DATA misses = 255. Winner = DATA
[DUEL] Epoch ended. INSTR misses = 320, DATA misses = 319. Winner = DATA
[DUEL] Epoch ended. INSTR misses = 224, DATA misses = 223. Winner = DATA
[DUEL] Epoch ended. INSTR misses = 288, DATA misses = 287. Winner = DATA
[DUEL] Epoch ended. INSTR misses = 288, DATA misses = 288. Winner = INSTR
[DUEL] Epoch ended. INSTR misses = 224, DATA misses = 224. Winner = INSTR
[DUEL] Epoch ended. INSTR misses = 302, DATA misses = 302. Winner = INSTR
[DUEL] Epoch ended. INSTR misses = 270, DATA misses = 270. Winner = INSTR
[DUEL] Epoch ended. INSTR misses = 256, DATA misses = 256. Winner = INSTR
[DUEL] Epoch ended. INSTR misses = 288, DATA misses = 288. Winner = INSTR
[DUEL] Epoch ended. INSTR misses = 288, DATA misses = 288. Winner = INSTR
[DUEL] Epoch ended. INSTR misses = 224, DATA misses = 224. Winner = INSTR
[DUEL] Epoch ended. INSTR misses = 304, DATA misses = 304. Winner = INSTR
[DUEL] Epoch ended. INSTR misses = 272, DATA misses = 272. Winner = INSTR
[DUEL] Epoch ended. INSTR misses = 223, DATA misses = 224. Winner = INSTR
[DUEL] Epoch ended. INSTR misses = 335, DATA misses = 336. Winner = INSTR
[DUEL] Epoch ended. INSTR misses = 240, DATA misses = 240. Winner = INSTR
[DUEL] Epoch ended. INSTR misses = 256, DATA misses = 256. Winner = INSTR
[DUEL] Epoch ended. INSTR misses = 320, DATA misses = 320. Winner = INSTR
[DUEL] Epoch ended. INSTR misses = 256, DATA misses = 246. Winner = DATA
[DUEL] Epoch ended. INSTR misses = 240, DATA misses = 250. Winner = INSTR
Heartbeat CPU 0 instructions: 50000003 cycles: 76755750 heartbeat IPC: 0.298 cumulative IPC: 0.2996 (Simulation time: 00 hr 10 min 36 sec)
[DUEL] Epoch ended. INSTR misses = 304, DATA misses = 304. Winner = INSTR
[DUEL] Epoch ended. INSTR misses = 256, DATA misses = 256. Winner = INSTR
[DUEL] Epoch ended. INSTR misses = 240, DATA misses = 240. Winner = INSTR
[DUEL] Epoch ended. INSTR misses = 305, DATA misses = 304. Winner = DATA
[DUEL] Epoch ended. INSTR misses = 208, DATA misses = 208. Winner = INSTR
[DUEL] Epoch ended. INSTR misses = 288, DATA misses = 288. Winner = INSTR
[DUEL] Epoch ended. INSTR misses = 272, DATA misses = 272. Winner = INSTR
[DUEL] Epoch ended. INSTR misses = 208, DATA misses = 208. Winner = INSTR
[DUEL] Epoch ended. INSTR misses = 304, DATA misses = 304. Winner = INSTR
[DUEL] Epoch ended. INSTR misses = 256, DATA misses = 256. Winner = INSTR
[DUEL] Epoch ended. INSTR misses = 240, DATA misses = 240. Winner = INSTR
[DUEL] Epoch ended. INSTR misses = 288, DATA misses = 288. Winner = INSTR
[DUEL] Epoch ended. INSTR misses = 272, DATA misses = 272. Winner = INSTR
[DUEL] Epoch ended. INSTR misses = 208, DATA misses = 208. Winner = INSTR
[DUEL] Epoch ended. INSTR misses = 320, DATA misses = 320. Winner = INSTR
[DUEL] Epoch ended. INSTR misses = 240, DATA misses = 240. Winner = INSTR
[DUEL] Epoch ended. INSTR misses = 224, DATA misses = 224. Winner = INSTR
[DUEL] Epoch ended. INSTR misses = 320, DATA misses = 320. Winner = INSTR
[DUEL] Epoch ended. INSTR misses = 224, DATA misses = 222. Winner = DATA
[DUEL] Epoch ended. INSTR misses = 256, DATA misses = 256. Winner = INSTR
[DUEL] Epoch ended. INSTR misses = 304, DATA misses = 304. Winner = INSTR
[DUEL] Epoch ended. INSTR misses = 240, DATA misses = 240. Winner = INSTR
[DUEL] Epoch ended. INSTR misses = 240, DATA misses = 240. Winner = INSTR
[DUEL] Epoch ended. INSTR misses = 288, DATA misses = 288. Winner = INSTR
[DUEL] Epoch ended. INSTR misses = 240, DATA misses = 240. Winner = INSTR
[DUEL] Epoch ended. INSTR misses = 256, DATA misses = 256. Winner = INSTR
[DUEL] Epoch ended. INSTR misses = 274, DATA misses = 272. Winner = DATA
[DUEL] Epoch ended. INSTR misses = 226, DATA misses = 224. Winner = DATA
[DUEL] Epoch ended. INSTR misses = 303, DATA misses = 304. Winner = INSTR
[DUEL] Epoch ended. INSTR misses = 272, DATA misses = 272. Winner = INSTR
[DUEL] Epoch ended. INSTR misses = 256, DATA misses = 256. Winner = INSTR
[DUEL] Epoch ended. INSTR misses = 288, DATA misses = 288. Winner = INSTR
[DUEL] Epoch ended. INSTR misses = 256, DATA misses = 256. Winner = INSTR
[DUEL] Epoch ended. INSTR misses = 256, DATA misses = 256. Winner = INSTR
[DUEL] Epoch ended. INSTR misses = 304, DATA misses = 304. Winner = INSTR
[DUEL] Epoch ended. INSTR misses = 272, DATA misses = 272. Winner = INSTR
[DUEL] Epoch ended. INSTR misses = 224, DATA misses = 224. Winner = INSTR
[DUEL] Epoch ended. INSTR misses = 336, DATA misses = 336. Winner = INSTR
[DUEL] Epoch ended. INSTR misses = 240, DATA misses = 240. Winner = INSTR
Heartbeat CPU 0 instructions: 60000011 cycles: 109831287 heartbeat IPC: 0.3023 cumulative IPC: 0.3005 (Simulation time: 00 hr 14 min 57 sec)
[DUEL] Epoch ended. INSTR misses = 240, DATA misses = 240. Winner = INSTR
[DUEL] Epoch ended. INSTR misses = 336, DATA misses = 336. Winner = INSTR
[DUEL] Epoch ended. INSTR misses = 224, DATA misses = 224. Winner = INSTR
[DUEL] Epoch ended. INSTR misses = 272, DATA misses = 272. Winner = INSTR
[DUEL] Epoch ended. INSTR misses = 304, DATA misses = 304. Winner = INSTR
[DUEL] Epoch ended. INSTR misses = 256, DATA misses = 256. Winner = INSTR
[DUEL] Epoch ended. INSTR misses = 256, DATA misses = 256. Winner = INSTR
[DUEL] Epoch ended. INSTR misses = 320, DATA misses = 320. Winner = INSTR
[DUEL] Epoch ended. INSTR misses = 224, DATA misses = 224. Winner = INSTR
[DUEL] Epoch ended. INSTR misses = 272, DATA misses = 272. Winner = INSTR
[DUEL] Epoch ended. INSTR misses = 304, DATA misses = 304. Winner = INSTR
[DUEL] Epoch ended. INSTR misses = 224, DATA misses = 224. Winner = INSTR
[DUEL] Epoch ended. INSTR misses = 288, DATA misses = 288. Winner = INSTR
[DUEL] Epoch ended. INSTR misses = 258, DATA misses = 256. Winner = DATA
[DUEL] Epoch ended. INSTR misses = 239, DATA misses = 240. Winner = INSTR
[DUEL] Epoch ended. INSTR misses = 288, DATA misses = 288. Winner = INSTR
[DUEL] Epoch ended. INSTR misses = 240, DATA misses = 240. Winner = INSTR
[DUEL] Epoch ended. INSTR misses = 240, DATA misses = 240. Winner = INSTR
[DUEL] Epoch ended. INSTR misses = 304, DATA misses = 304. Winner = INSTR
[DUEL] Epoch ended. INSTR misses = 256, DATA misses = 256. Winner = INSTR
[DUEL] Epoch ended. INSTR misses = 224, DATA misses = 224. Winner = INSTR
[DUEL] Epoch ended. INSTR misses = 320, DATA misses = 320. Winner = INSTR
[DUEL] Epoch ended. INSTR misses = 224, DATA misses = 224. Winner = INSTR
[DUEL] Epoch ended. INSTR misses = 256, DATA misses = 256. Winner = INSTR
[DUEL] Epoch ended. INSTR misses = 304, DATA misses = 304. Winner = INSTR
[DUEL] Epoch ended. INSTR misses = 208, DATA misses = 208. Winner = INSTR
[DUEL] Epoch ended. INSTR misses = 272, DATA misses = 272. Winner = INSTR
[DUEL] Epoch ended. INSTR misses = 288, DATA misses = 288. Winner = INSTR
[DUEL] Epoch ended. INSTR misses = 240, DATA misses = 240. Winner = INSTR
[DUEL] Epoch ended. INSTR misses = 256, DATA misses = 256. Winner = INSTR
[DUEL] Epoch ended. INSTR misses = 304, DATA misses = 304. Winner = INSTR
[DUEL] Epoch ended. INSTR misses = 208, DATA misses = 208. Winner = INSTR
[DUEL] Epoch ended. INSTR misses = 272, DATA misses = 272. Winner = INSTR
[DUEL] Epoch ended. INSTR misses = 288, DATA misses = 288. Winner = INSTR
[DUEL] Epoch ended. INSTR misses = 208, DATA misses = 208. Winner = INSTR
[DUEL] Epoch ended. INSTR misses = 304, DATA misses = 304. Winner = INSTR
[DUEL] Epoch ended. INSTR misses = 241, DATA misses = 240. Winner = DATA
[DUEL] Epoch ended. INSTR misses = 241, DATA misses = 240. Winner = DATA
[DUEL] Epoch ended. INSTR misses = 304, DATA misses = 304. Winner = INSTR
Heartbeat CPU 0 instructions: 70000007 cycles: 142926025 heartbeat IPC: 0.3022 cumulative IPC: 0.3009 (Simulation time: 00 hr 19 min 19 sec)
[DUEL] Epoch ended. INSTR misses = 272, DATA misses = 272. Winner = INSTR
[DUEL] Epoch ended. INSTR misses = 242, DATA misses = 240. Winner = DATA
[DUEL] Epoch ended. INSTR misses = 160, DATA misses = 160. Winner = INSTR
[DUEL] Epoch ended. INSTR misses = 272, DATA misses = 272. Winner = INSTR
[DUEL] Epoch ended. INSTR misses = 240, DATA misses = 240. Winner = INSTR
[DUEL] Epoch ended. INSTR misses = 192, DATA misses = 192. Winner = INSTR
[DUEL] Epoch ended. INSTR misses = 256, DATA misses = 256. Winner = INSTR
[DUEL] Epoch ended. INSTR misses = 224, DATA misses = 224. Winner = INSTR
*** Reached end of trace: (0, "../traces/public_traces/compute_int/compute_int_45.champsimtrace.xz")
[DUEL] Epoch ended. INSTR misses = 112, DATA misses = 112. Winner = INSTR
[DUEL] Epoch ended. INSTR misses = 162, DATA misses = 160. Winner = DATA
[DUEL] Epoch ended. INSTR misses = 217, DATA misses = 216. Winner = DATA
[DUEL] Epoch ended. INSTR misses = 249, DATA misses = 247. Winner = DATA
[DUEL] Epoch ended. INSTR misses = 310, DATA misses = 307. Winner = DATA
[DUEL] Epoch ended. INSTR misses = 214, DATA misses = 211. Winner = DATA
[DUEL] Epoch ended. INSTR misses = 238, DATA misses = 237. Winner = DATA
[DUEL] Epoch ended. INSTR misses = 317, DATA misses = 316. Winner = DATA
[DUEL] Epoch ended. INSTR misses = 200, DATA misses = 202. Winner = INSTR
[DUEL] Epoch ended. INSTR misses = 254, DATA misses = 256. Winner = INSTR
[DUEL] Epoch ended. INSTR misses = 302, DATA misses = 304. Winner = INSTR
[DUEL] Epoch ended. INSTR misses = 202, DATA misses = 208. Winner = INSTR
[DUEL] Epoch ended. INSTR misses = 278, DATA misses = 271. Winner = DATA
[DUEL] Epoch ended. INSTR misses = 282, DATA misses = 287. Winner = INSTR
[DUEL] Epoch ended. INSTR misses = 206, DATA misses = 207. Winner = INSTR
[DUEL] Epoch ended. INSTR misses = 303, DATA misses = 303. Winner = INSTR
[DUEL] Epoch ended. INSTR misses = 255, DATA misses = 254. Winner = DATA
[DUEL] Epoch ended. INSTR misses = 238, DATA misses = 240. Winner = INSTR
[DUEL] Epoch ended. INSTR misses = 286, DATA misses = 288. Winner = INSTR
[DUEL] Epoch ended. INSTR misses = 270, DATA misses = 272. Winner = INSTR
[DUEL] Epoch ended. INSTR misses = 208, DATA misses = 207. Winner = DATA
[DUEL] Epoch ended. INSTR misses = 304, DATA misses = 303. Winner = DATA
[DUEL] Epoch ended. INSTR misses = 256, DATA misses = 254. Winner = DATA
[DUEL] Epoch ended. INSTR misses = 223, DATA misses = 224. Winner = INSTR
[DUEL] Epoch ended. INSTR misses = 319, DATA misses = 320. Winner = INSTR
[DUEL] Epoch ended. INSTR misses = 224, DATA misses = 224. Winner = INSTR
[DUEL] Epoch ended. INSTR misses = 256, DATA misses = 256. Winner = INSTR
[DUEL] Epoch ended. INSTR misses = 304, DATA misses = 304. Winner = INSTR
[DUEL] Epoch ended. INSTR misses = 208, DATA misses = 206. Winner = DATA
[DUEL] Epoch ended. INSTR misses = 272, DATA misses = 272. Winner = INSTR
[DUEL] Epoch ended. INSTR misses = 288, DATA misses = 288. Winner = INSTR
Heartbeat CPU 0 instructions: 80000002 cycles: 175505446 heartbeat IPC: 0.3069 cumulative IPC: 0.3021 (Simulation time: 00 hr 23 min 33 sec)
[DUEL] Epoch ended. INSTR misses = 240, DATA misses = 240. Winner = INSTR
[DUEL] Epoch ended. INSTR misses = 240, DATA misses = 239. Winner = DATA
[DUEL] Epoch ended. INSTR misses = 304, DATA misses = 303. Winner = DATA
[DUEL] Epoch ended. INSTR misses = 224, DATA misses = 222. Winner = DATA
[DUEL] Epoch ended. INSTR misses = 304, DATA misses = 304. Winner = INSTR
[DUEL] Epoch ended. INSTR misses = 272, DATA misses = 271. Winner = DATA
[DUEL] Epoch ended. INSTR misses = 224, DATA misses = 223. Winner = DATA
[DUEL] Epoch ended. INSTR misses = 320, DATA misses = 320. Winner = INSTR
[DUEL] Epoch ended. INSTR misses = 256, DATA misses = 256. Winner = INSTR
[DUEL] Epoch ended. INSTR misses = 253, DATA misses = 253. Winner = INSTR
[DUEL] Epoch ended. INSTR misses = 303, DATA misses = 303. Winner = INSTR
[DUEL] Epoch ended. INSTR misses = 272, DATA misses = 272. Winner = INSTR
[DUEL] Epoch ended. INSTR misses = 224, DATA misses = 224. Winner = INSTR
[DUEL] Epoch ended. INSTR misses = 320, DATA misses = 320. Winner = INSTR
[DUEL] Epoch ended. INSTR misses = 256, DATA misses = 256. Winner = INSTR
[DUEL] Epoch ended. INSTR misses = 240, DATA misses = 240. Winner = INSTR
[DUEL] Epoch ended. INSTR misses = 336, DATA misses = 336. Winner = INSTR
[DUEL] Epoch ended. INSTR misses = 222, DATA misses = 224. Winner = INSTR
[DUEL] Epoch ended. INSTR misses = 272, DATA misses = 272. Winner = INSTR
[DUEL] Epoch ended. INSTR misses = 304, DATA misses = 304. Winner = INSTR
[DUEL] Epoch ended. INSTR misses = 256, DATA misses = 256. Winner = INSTR
[DUEL] Epoch ended. INSTR misses = 256, DATA misses = 256. Winner = INSTR
[DUEL] Epoch ended. INSTR misses = 288, DATA misses = 288. Winner = INSTR
[DUEL] Epoch ended. INSTR misses = 256, DATA misses = 256. Winner = INSTR
[DUEL] Epoch ended. INSTR misses = 272, DATA misses = 272. Winner = INSTR
[DUEL] Epoch ended. INSTR misses = 289, DATA misses = 288. Winner = DATA
[DUEL] Epoch ended. INSTR misses = 207, DATA misses = 208. Winner = INSTR
[DUEL] Epoch ended. INSTR misses = 305, DATA misses = 304. Winner = DATA
[DUEL] Epoch ended. INSTR misses = 256, DATA misses = 256. Winner = INSTR
[DUEL] Epoch ended. INSTR misses = 212, DATA misses = 208. Winner = DATA
[DUEL] Epoch ended. INSTR misses = 316, DATA misses = 320. Winner = INSTR
[DUEL] Epoch ended. INSTR misses = 240, DATA misses = 240. Winner = INSTR
[DUEL] Epoch ended. INSTR misses = 240, DATA misses = 240. Winner = INSTR
[DUEL] Epoch ended. INSTR misses = 304, DATA misses = 304. Winner = INSTR
[DUEL] Epoch ended. INSTR misses = 256, DATA misses = 256. Winner = INSTR
[DUEL] Epoch ended. INSTR misses = 224, DATA misses = 224. Winner = INSTR
[DUEL] Epoch ended. INSTR misses = 320, DATA misses = 320. Winner = INSTR
[DUEL] Epoch ended. INSTR misses = 224, DATA misses = 224. Winner = INSTR
[DUEL] Epoch ended. INSTR misses = 240, DATA misses = 240. Winner = INSTR
Heartbeat CPU 0 instructions: 90000000 cycles: 208568886 heartbeat IPC: 0.3024 cumulative IPC: 0.3022 (Simulation time: 00 hr 27 min 46 sec)
[DUEL] Epoch ended. INSTR misses = 320, DATA misses = 320. Winner = INSTR
[DUEL] Epoch ended. INSTR misses = 208, DATA misses = 208. Winner = INSTR
[DUEL] Epoch ended. INSTR misses = 272, DATA misses = 271. Winner = DATA
[DUEL] Epoch ended. INSTR misses = 288, DATA misses = 287. Winner = DATA
[DUEL] Epoch ended. INSTR misses = 240, DATA misses = 240. Winner = INSTR
[DUEL] Epoch ended. INSTR misses = 256, DATA misses = 256. Winner = INSTR
[DUEL] Epoch ended. INSTR misses = 274, DATA misses = 272. Winner = DATA
[DUEL] Epoch ended. INSTR misses = 238, DATA misses = 240. Winner = INSTR
[DUEL] Epoch ended. INSTR misses = 272, DATA misses = 272. Winner = INSTR
[DUEL] Epoch ended. INSTR misses = 288, DATA misses = 288. Winner = INSTR
[DUEL] Epoch ended. INSTR misses = 208, DATA misses = 208. Winner = INSTR
[DUEL] Epoch ended. INSTR misses = 290, DATA misses = 288. Winner = DATA
[DUEL] Epoch ended. INSTR misses = 257, DATA misses = 256. Winner = DATA
[DUEL] Epoch ended. INSTR misses = 256, DATA misses = 256. Winner = INSTR
[DUEL] Epoch ended. INSTR misses = 304, DATA misses = 304. Winner = INSTR
[DUEL] Epoch ended. INSTR misses = 240, DATA misses = 240. Winner = INSTR
[DUEL] Epoch ended. INSTR misses = 256, DATA misses = 256. Winner = INSTR
[DUEL] Epoch ended. INSTR misses = 320, DATA misses = 320. Winner = INSTR
[DUEL] Epoch ended. INSTR misses = 256, DATA misses = 256. Winner = INSTR
[DUEL] Epoch ended. INSTR misses = 240, DATA misses = 240. Winner = INSTR
[DUEL] Epoch ended. INSTR misses = 336, DATA misses = 336. Winner = INSTR
[DUEL] Epoch ended. INSTR misses = 224, DATA misses = 224. Winner = INSTR
[DUEL] Epoch ended. INSTR misses = 272, DATA misses = 271. Winner = DATA
[DUEL] Epoch ended. INSTR misses = 304, DATA misses = 305. Winner = INSTR
[DUEL] Epoch ended. INSTR misses = 224, DATA misses = 224. Winner = INSTR
[DUEL] Epoch ended. INSTR misses = 288, DATA misses = 288. Winner = INSTR
[DUEL] Epoch ended. INSTR misses = 288, DATA misses = 288. Winner = INSTR
[DUEL] Epoch ended. INSTR misses = 256, DATA misses = 256. Winner = INSTR
[DUEL] Epoch ended. INSTR misses = 272, DATA misses = 272. Winner = INSTR
[DUEL] Epoch ended. INSTR misses = 304, DATA misses = 304. Winner = INSTR
[DUEL] Epoch ended. INSTR misses = 224, DATA misses = 224. Winner = INSTR
[DUEL] Epoch ended. INSTR misses = 288, DATA misses = 288. Winner = INSTR
[DUEL] Epoch ended. INSTR misses = 288, DATA misses = 288. Winner = INSTR
[DUEL] Epoch ended. INSTR misses = 224, DATA misses = 224. Winner = INSTR
[DUEL] Epoch ended. INSTR misses = 320, DATA misses = 320. Winner = INSTR
[DUEL] Epoch ended. INSTR misses = 256, DATA misses = 256. Winner = INSTR
[DUEL] Epoch ended. INSTR misses = 224, DATA misses = 224. Winner = INSTR
[DUEL] Epoch ended. INSTR misses = 305, DATA misses = 304. Winner = DATA
[DUEL] Epoch ended. INSTR misses = 256, DATA misses = 251. Winner = DATA
Heartbeat CPU 0 instructions: 100000006 cycles: 241656011 heartbeat IPC: 0.3022 cumulative IPC: 0.3022 (Simulation time: 00 hr 32 min 00 sec)
[DUEL] Epoch ended. INSTR misses = 224, DATA misses = 229. Winner = INSTR
[DUEL] Epoch ended. INSTR misses = 304, DATA misses = 304. Winner = INSTR
[DUEL] Epoch ended. INSTR misses = 240, DATA misses = 240. Winner = INSTR
[DUEL] Epoch ended. INSTR misses = 240, DATA misses = 240. Winner = INSTR
[DUEL] Epoch ended. INSTR misses = 320, DATA misses = 320. Winner = INSTR
[DUEL] Epoch ended. INSTR misses = 208, DATA misses = 208. Winner = INSTR
[DUEL] Epoch ended. INSTR misses = 272, DATA misses = 272. Winner = INSTR
[DUEL] Epoch ended. INSTR misses = 288, DATA misses = 288. Winner = INSTR
[DUEL] Epoch ended. INSTR misses = 208, DATA misses = 208. Winner = INSTR
[DUEL] Epoch ended. INSTR misses = 288, DATA misses = 288. Winner = INSTR
[DUEL] Epoch ended. INSTR misses = 272, DATA misses = 272. Winner = INSTR
[DUEL] Epoch ended. INSTR misses = 240, DATA misses = 240. Winner = INSTR
[DUEL] Epoch ended. INSTR misses = 272, DATA misses = 272. Winner = INSTR
[DUEL] Epoch ended. INSTR misses = 288, DATA misses = 288. Winner = INSTR
[DUEL] Epoch ended. INSTR misses = 208, DATA misses = 208. Winner = INSTR
[DUEL] Epoch ended. INSTR misses = 304, DATA misses = 304. Winner = INSTR
[DUEL] Epoch ended. INSTR misses = 256, DATA misses = 256. Winner = INSTR
[DUEL] Epoch ended. INSTR misses = 208, DATA misses = 208. Winner = INSTR
[DUEL] Epoch ended. INSTR misses = 320, DATA misses = 320. Winner = INSTR
[DUEL] Epoch ended. INSTR misses = 240, DATA misses = 240. Winner = INSTR
[DUEL] Epoch ended. INSTR misses = 240, DATA misses = 240. Winner = INSTR
[DUEL] Epoch ended. INSTR misses = 289, DATA misses = 288. Winner = DATA
[DUEL] Epoch ended. INSTR misses = 258, DATA misses = 256. Winner = DATA
[DUEL] Epoch ended. INSTR misses = 240, DATA misses = 240. Winner = INSTR
[DUEL] Epoch ended. INSTR misses = 304, DATA misses = 304. Winner = INSTR
[DUEL] Epoch ended. INSTR misses = 210, DATA misses = 208. Winner = DATA
[DUEL] Epoch ended. INSTR misses = 224, DATA misses = 224. Winner = INSTR
[DUEL] Epoch ended. INSTR misses = 208, DATA misses = 208. Winner = INSTR
[DUEL] Epoch ended. INSTR misses = 256, DATA misses = 256. Winner = INSTR
[DUEL] Epoch ended. INSTR misses = 208, DATA misses = 208. Winner = INSTR
[DUEL] Epoch ended. INSTR misses = 224, DATA misses = 224. Winner = INSTR
*** Reached end of trace: (0, "../traces/public_traces/compute_int/compute_int_45.champsimtrace.xz")
[DUEL] Epoch ended. INSTR misses = 256, DATA misses = 256. Winner = INSTR
[DUEL] Epoch ended. INSTR misses = 39, DATA misses = 36. Winner = DATA
[DUEL] Epoch ended. INSTR misses = 194, DATA misses = 195. Winner = INSTR
[DUEL] Epoch ended. INSTR misses = 289, DATA misses = 287. Winner = DATA
[DUEL] Epoch ended. INSTR misses = 244, DATA misses = 239. Winner = DATA
[DUEL] Epoch ended. INSTR misses = 234, DATA misses = 234. Winner = INSTR
[DUEL] Epoch ended. INSTR misses = 297, DATA misses = 294. Winner = DATA
[DUEL] Epoch ended. INSTR misses = 203, DATA misses = 202. Winner = DATA
Heartbeat CPU 0 instructions: 110000007 cycles: 274297685 heartbeat IPC: 0.3064 cumulative IPC: 0.3027 (Simulation time: 00 hr 36 min 13 sec)
[DUEL] Epoch ended. INSTR misses = 270, DATA misses = 269. Winner = DATA
[DUEL] Epoch ended. INSTR misses = 280, DATA misses = 284. Winner = INSTR
[DUEL] Epoch ended. INSTR misses = 206, DATA misses = 208. Winner = INSTR
[DUEL] Epoch ended. INSTR misses = 302, DATA misses = 304. Winner = INSTR
[DUEL] Epoch ended. INSTR misses = 253, DATA misses = 256. Winner = INSTR
[DUEL] Epoch ended. INSTR misses = 208, DATA misses = 207. Winner = DATA
[DUEL] Epoch ended. INSTR misses = 318, DATA misses = 319. Winner = INSTR
[DUEL] Epoch ended. INSTR misses = 238, DATA misses = 238. Winner = INSTR
[DUEL] Epoch ended. INSTR misses = 239, DATA misses = 239. Winner = INSTR
[DUEL] Epoch ended. INSTR misses = 303, DATA misses = 303. Winner = INSTR
[DUEL] Epoch ended. INSTR misses = 252, DATA misses = 256. Winner = INSTR
[DUEL] Epoch ended. INSTR misses = 223, DATA misses = 224. Winner = INSTR
[DUEL] Epoch ended. INSTR misses = 303, DATA misses = 304. Winner = INSTR
[DUEL] Epoch ended. INSTR misses = 240, DATA misses = 238. Winner = DATA
[DUEL] Epoch ended. INSTR misses = 240, DATA misses = 239. Winner = DATA
[DUEL] Epoch ended. INSTR misses = 320, DATA misses = 319. Winner = DATA
[DUEL] Epoch ended. INSTR misses = 206, DATA misses = 208. Winner = INSTR
[DUEL] Epoch ended. INSTR misses = 272, DATA misses = 272. Winner = INSTR
[DUEL] Epoch ended. INSTR misses = 288, DATA misses = 288. Winner = INSTR
[DUEL] Epoch ended. INSTR misses = 240, DATA misses = 240. Winner = INSTR
[DUEL] Epoch ended. INSTR misses = 256, DATA misses = 256. Winner = INSTR
[DUEL] Epoch ended. INSTR misses = 272, DATA misses = 270. Winner = DATA
[DUEL] Epoch ended. INSTR misses = 240, DATA misses = 240. Winner = INSTR
[DUEL] Epoch ended. INSTR misses = 272, DATA misses = 272. Winner = INSTR
[DUEL] Epoch ended. INSTR misses = 258, DATA misses = 256. Winner = DATA
[DUEL] Epoch ended. INSTR misses = 221, DATA misses = 222. Winner = INSTR
[DUEL] Epoch ended. INSTR misses = 321, DATA misses = 319. Winner = DATA
[DUEL] Epoch ended. INSTR misses = 256, DATA misses = 255. Winner = DATA
[DUEL] Epoch ended. INSTR misses = 224, DATA misses = 224. Winner = INSTR
[DUEL] Epoch ended. INSTR misses = 336, DATA misses = 334. Winner = DATA
[DUEL] Epoch ended. INSTR misses = 240, DATA misses = 240. Winner = INSTR
[DUEL] Epoch ended. INSTR misses = 256, DATA misses = 256. Winner = INSTR
[DUEL] Epoch ended. INSTR misses = 320, DATA misses = 320. Winner = INSTR
[DUEL] Epoch ended. INSTR misses = 252, DATA misses = 252. Winner = INSTR
[DUEL] Epoch ended. INSTR misses = 240, DATA misses = 240. Winner = INSTR
[DUEL] Epoch ended. INSTR misses = 336, DATA misses = 336. Winner = INSTR
[DUEL] Epoch ended. INSTR misses = 224, DATA misses = 224. Winner = INSTR
[DUEL] Epoch ended. INSTR misses = 256, DATA misses = 256. Winner = INSTR
[DUEL] Epoch ended. INSTR misses = 320, DATA misses = 320. Winner = INSTR
Heartbeat CPU 0 instructions: 120000009 cycles: 306968907 heartbeat IPC: 0.3061 cumulative IPC: 0.3031 (Simulation time: 00 hr 40 min 24 sec)
[DUEL] Epoch ended. INSTR misses = 224, DATA misses = 224. Winner = INSTR
[DUEL] Epoch ended. INSTR misses = 287, DATA misses = 288. Winner = INSTR
[DUEL] Epoch ended. INSTR misses = 287, DATA misses = 288. Winner = INSTR
[DUEL] Epoch ended. INSTR misses = 256, DATA misses = 256. Winner = INSTR
[DUEL] Epoch ended. INSTR misses = 272, DATA misses = 272. Winner = INSTR
[DUEL] Epoch ended. INSTR misses = 272, DATA misses = 272. Winner = INSTR
[DUEL] Epoch ended. INSTR misses = 256, DATA misses = 256. Winner = INSTR
[DUEL] Epoch ended. INSTR misses = 288, DATA misses = 288. Winner = INSTR
[DUEL] Epoch ended. INSTR misses = 288, DATA misses = 288. Winner = INSTR
[DUEL] Epoch ended. INSTR misses = 224, DATA misses = 224. Winner = INSTR
[DUEL] Epoch ended. INSTR misses = 304, DATA misses = 304. Winner = INSTR
[DUEL] Epoch ended. INSTR misses = 242, DATA misses = 240. Winner = DATA
[DUEL] Epoch ended. INSTR misses = 239, DATA misses = 240. Winner = INSTR
[DUEL] Epoch ended. INSTR misses = 304, DATA misses = 304. Winner = INSTR
[DUEL] Epoch ended. INSTR misses = 224, DATA misses = 224. Winner = INSTR
[DUEL] Epoch ended. INSTR misses = 256, DATA misses = 256. Winner = INSTR
[DUEL] Epoch ended. INSTR misses = 304, DATA misses = 304. Winner = INSTR
[DUEL] Epoch ended. INSTR misses = 240, DATA misses = 240. Winner = INSTR
[DUEL] Epoch ended. INSTR misses = 240, DATA misses = 240. Winner = INSTR
[DUEL] Epoch ended. INSTR misses = 320, DATA misses = 320. Winner = INSTR
[DUEL] Epoch ended. INSTR misses = 208, DATA misses = 208. Winner = INSTR
[DUEL] Epoch ended. INSTR misses = 256, DATA misses = 256. Winner = INSTR
[DUEL] Epoch ended. INSTR misses = 304, DATA misses = 304. Winner = INSTR
[DUEL] Epoch ended. INSTR misses = 208, DATA misses = 208. Winner = INSTR
[DUEL] Epoch ended. INSTR misses = 288, DATA misses = 288. Winner = INSTR
[DUEL] Epoch ended. INSTR misses = 272, DATA misses = 272. Winner = INSTR
[DUEL] Epoch ended. INSTR misses = 240, DATA misses = 238. Winner = DATA
[DUEL] Epoch ended. INSTR misses = 272, DATA misses = 272. Winner = INSTR
[DUEL] Epoch ended. INSTR misses = 288, DATA misses = 288. Winner = INSTR
[DUEL] Epoch ended. INSTR misses = 208, DATA misses = 208. Winner = INSTR
[DUEL] Epoch ended. INSTR misses = 288, DATA misses = 288. Winner = INSTR
[DUEL] Epoch ended. INSTR misses = 272, DATA misses = 272. Winner = INSTR
[DUEL] Epoch ended. INSTR misses = 208, DATA misses = 208. Winner = INSTR
[DUEL] Epoch ended. INSTR misses = 320, DATA misses = 320. Winner = INSTR
[DUEL] Epoch ended. INSTR misses = 225, DATA misses = 224. Winner = DATA
[DUEL] Epoch ended. INSTR misses = 241, DATA misses = 240. Winner = DATA
[DUEL] Epoch ended. INSTR misses = 324, DATA misses = 320. Winner = DATA
[DUEL] Epoch ended. INSTR misses = 224, DATA misses = 224. Winner = INSTR
[DUEL] Epoch ended. INSTR misses = 272, DATA misses = 272. Winner = INSTR
Heartbeat CPU 0 instructions: 130000005 cycles: 339957088 heartbeat IPC: 0.3031 cumulative IPC: 0.3031 (Simulation time: 00 hr 44 min 37 sec)
Simulation finished CPU 0 instructions: 100000000 cycles: 329957533 cumulative IPC: 0.3031 (Simulation time: 00 hr 44 min 37 sec)
Simulation complete CPU 0 instructions: 100000000 cycles: 329957533 cumulative IPC: 0.3031 (Simulation time: 00 hr 44 min 37 sec)

ChampSim completed all CPUs

=== Simulation ===
CPU 0 runs ../traces/public_traces/compute_int/compute_int_45.champsimtrace.xz
Region of Interest Statistics

CPU 0 cumulative IPC: 0.3031 instructions: 100000000 cycles: 329957533
CPU 0 Branch Prediction Accuracy: 100% MPKI: 0.00027 Average ROB Occupancy at Mispredict: 185.7
Branch type MPKI
BRANCH_DIRECT_JUMP: 0
BRANCH_INDIRECT: 3e-05
BRANCH_CONDITIONAL: 0.00024
BRANCH_DIRECT_CALL: 0
BRANCH_INDIRECT_CALL: 0
BRANCH_RETURN: 0

LLC TOTAL        ACCESS:   24996929 HIT:     359642 MISS:   24637287
LLC LOAD         ACCESS:    5778144 HIT:          6 MISS:    5778138
LLC RFO          ACCESS:    8331223 HIT:     116363 MISS:    8214860
LLC PREFETCH     ACCESS:    2554494 HIT:         12 MISS:    2554482
LLC WRITE        ACCESS:    8331484 HIT:     242751 MISS:    8088733
LLC TRANSLATION  ACCESS:       1584 HIT:        510 MISS:       1074
LLC PREFETCH REQUESTED:          0 ISSUED:          0 USEFUL:          0 USELESS:          0
LLC AVERAGE MISS LATENCY: 200.7 cycles
cpu0_DTLB TOTAL        ACCESS:   25439274 HIT:   23097363 MISS:    2341911
cpu0_DTLB LOAD         ACCESS:   25439274 HIT:   23097363 MISS:    2341911
cpu0_DTLB RFO          ACCESS:          0 HIT:          0 MISS:          0
cpu0_DTLB PREFETCH     ACCESS:          0 HIT:          0 MISS:          0
cpu0_DTLB WRITE        ACCESS:          0 HIT:          0 MISS:          0
cpu0_DTLB TRANSLATION  ACCESS:          0 HIT:          0 MISS:          0
cpu0_DTLB PREFETCH REQUESTED:          0 ISSUED:          0 USEFUL:          0 USELESS:          0
cpu0_DTLB AVERAGE MISS LATENCY: 9.141 cycles
cpu0_ITLB TOTAL        ACCESS:       5724 HIT:       5724 MISS:          0
cpu0_ITLB LOAD         ACCESS:       5724 HIT:       5724 MISS:          0
cpu0_ITLB RFO          ACCESS:          0 HIT:          0 MISS:          0
cpu0_ITLB PREFETCH     ACCESS:          0 HIT:          0 MISS:          0
cpu0_ITLB WRITE        ACCESS:          0 HIT:          0 MISS:          0
cpu0_ITLB TRANSLATION  ACCESS:          0 HIT:          0 MISS:          0
cpu0_ITLB PREFETCH REQUESTED:          0 ISSUED:          0 USEFUL:          0 USELESS:          0
cpu0_ITLB AVERAGE MISS LATENCY: -nan cycles
cpu0_L1D TOTAL        ACCESS:   43782789 HIT:    2300622 MISS:   41482167
cpu0_L1D LOAD         ACCESS:    8638286 HIT:     136504 MISS:    8501782
cpu0_L1D RFO          ACCESS:          0 HIT:          0 MISS:          0
cpu0_L1D PREFETCH     ACCESS:    1555555 HIT:    1280016 MISS:     275539
cpu0_L1D WRITE        ACCESS:   33327727 HIT:     624485 MISS:   32703242
cpu0_L1D TRANSLATION  ACCESS:     261221 HIT:     259617 MISS:       1604
cpu0_L1D PREFETCH REQUESTED: 1174632537 ISSUED:    1555555 USEFUL:       8538 USELESS:        273
cpu0_L1D AVERAGE MISS LATENCY: 123.9 cycles
cpu0_L1I TOTAL        ACCESS:       8165 HIT:       8165 MISS:          0
cpu0_L1I LOAD         ACCESS:       4299 HIT:       4299 MISS:          0
cpu0_L1I RFO          ACCESS:          0 HIT:          0 MISS:          0
cpu0_L1I PREFETCH     ACCESS:       3866 HIT:       3866 MISS:          0
cpu0_L1I WRITE        ACCESS:          0 HIT:          0 MISS:          0
cpu0_L1I TRANSLATION  ACCESS:          0 HIT:          0 MISS:          0
cpu0_L1I PREFETCH REQUESTED:       4436 ISSUED:       3866 USEFUL:          0 USELESS:          0
cpu0_L1I AVERAGE MISS LATENCY: -nan cycles
cpu0_L2C TOTAL        ACCESS:   33689888 HIT:    8979609 MISS:   24710279
cpu0_L2C LOAD         ACCESS:    8323316 HIT:     269616 MISS:    8053700
cpu0_L2C RFO          ACCESS:    8331253 HIT:         27 MISS:    8331226
cpu0_L2C PREFETCH     ACCESS:    8702157 HIT:     378388 MISS:    8323769
cpu0_L2C WRITE        ACCESS:    8331571 HIT:    8331571 MISS:          0
cpu0_L2C TRANSLATION  ACCESS:       1591 HIT:          7 MISS:       1584
cpu0_L2C PREFETCH REQUESTED:    8512722 ISSUED:    8512722 USEFUL:    2504453 USELESS:       3144
cpu0_L2C AVERAGE MISS LATENCY: 207.9 cycles
cpu0_STLB TOTAL        ACCESS:     260636 HIT:          0 MISS:     260636
cpu0_STLB LOAD         ACCESS:     260636 HIT:          0 MISS:     260636
cpu0_STLB RFO          ACCESS:          0 HIT:          0 MISS:          0
cpu0_STLB PREFETCH     ACCESS:          0 HIT:          0 MISS:          0
cpu0_STLB WRITE        ACCESS:          0 HIT:          0 MISS:          0
cpu0_STLB TRANSLATION  ACCESS:          0 HIT:          0 MISS:          0
cpu0_STLB PREFETCH REQUESTED:          0 ISSUED:          0 USEFUL:          0 USELESS:          0
cpu0_STLB AVERAGE MISS LATENCY: 109.6 cycles

DRAM Statistics

Channel 0 RQ ROW_BUFFER_HIT:    4693555
  ROW_BUFFER_MISS:    3581170
 AVG DBUS CONGESTED CYCLE: 3.97
WQ ROW_BUFFER_HIT: Channel 0 
  ROW_BUFFER_MISS:    1202716
  FULL:    2904810

Channel 1 RQ ROW_BUFFER_HIT:    4687142
  ROW_BUFFER_MISS:    3586676
 AVG DBUS CONGESTED CYCLE: 3.97
WQ ROW_BUFFER_HIT: Channel 1 
  ROW_BUFFER_MISS:    1204834
  FULL:    2902559
BERTI TO_L1: 4184666 TO_L2: 1189751726 TO_L2_BC_MSHR: 486726628
BERTI AVG_LAT: 320.23 NUM_TRACK_LATENCY: 10788470 NUM_CANT_TRACK_LATENCY: 0
BERTI CROSS_PAGE 123084439 NO_CROSS_PAGE: 1070851953
BERTI FOUND_BERTI: 164701872 NO_FOUND_BERTI: 2253151
BERTI AVERAGE_ISSUED: 2.35497
CPU 0 L1I Entangling prefetcher final stats
IP accesses: b02 2c080 173 / 4299
IP misses: 0 0 0 / 0
IP hits: 0 0 0 / 0
IP late: 0 0 0 / 0
IP wrong: 0 0 0 / 0
miss rate: 0
coverage: -nan
coverage_late: -nan
accuracy: -nan
accuracy_late: -nan
discarded: 0
evicts entangled j table: 0
evicts entangled k table: 0
max bb size: 9
formats: 0 0 0 0 0 0 0 
hist_lookups: 0 0 0 0 0 0 0 0 0 0 0 0 0 0 0 0 0 83 
hist_lookups_evict: 0 %
hist_lookups_shortlat: 100 %
bb_found_hist: 0 729 314 124 34 36 6 0 0 6 0 0 0 0 0 0 0 0 0 0 0 0 0 0 0 0 0 0 0 0 0 0 0 0 0 0 0 0 0 0 0 0 0 0 0 0 0 0 0 0 0 0 0 0 0 0 0 0 0 0 0 0 0 0 
bb_found_summary: 2135 1249 1.70937
entangled_found_hist: 0 180 101 220 0 0 0 0 
entangled_found_summary: 1042 501 2.07985
bb_ent_found_hist: 0 359 152 134 11 12 6 0 0 6 0 0 0 0 0 0 0 0 0 0 0 0 0 0 0 0 0 0 0 0 0 0 0 0 0 0 0 0 0 0 0 0 0 0 0 0 0 0 0 0 0 0 0 0 0 0 0 0 0 0 0 0 0 0 
bb_ent_found_summary: 1259 680 1.85148
