WARNING: physical memory size is smaller than virtual memory size.

*** ChampSim Multicore Out-of-Order Simulator ***
Warmup Instructions: 30000000
Simulation Instructions: 100000000
Number of CPUs: 1
Page size: 4096

BTB:
Basic BTB sets: 1024 ways: 8
Indirect:
history lengths: 0 0 10 16 27 44 60 96 109 219 449 487 714 1313 2146 3881 
ITTAGE tables: 64768 bytes;Region table: 240 bytes;IUM: 384 bytes;Total Storage= 65392 bytes;
RAS:
RAS size: 64
[LLC] INSTR Demand IPV: 1 2 2 1 4 Prefetch IPV: 1 2 1 1 4
[LLC] DATA  Demand IPV: 1 1 1 2 4 Prefetch IPV: 1 1 2 2 4
Berti Prefetcher
CPU 0 Entangling prefetcher
Off-chip DRAM Size: 8 GiB Channels: 2 Width: 64-bit Data Race: 6400 MT/s
[DUEL] Epoch ended. INSTR misses = 23, DATA misses = 21. Winner = DATA
[DUEL] Epoch ended. INSTR misses = 8, DATA misses = 7. Winner = DATA
[DUEL] Epoch ended. INSTR misses = 4, DATA misses = 2. Winner = DATA
[DUEL] Epoch ended. INSTR misses = 8, DATA misses = 3. Winner = DATA
[DUEL] Epoch ended. INSTR misses = 5, DATA misses = 5. Winner = INSTR
[DUEL] Epoch ended. INSTR misses = 17, DATA misses = 26. Winner = INSTR
[DUEL] Epoch ended. INSTR misses = 10, DATA misses = 15. Winner = INSTR
[DUEL] Epoch ended. INSTR misses = 10, DATA misses = 6. Winner = DATA
[DUEL] Epoch ended. INSTR misses = 9, DATA misses = 6. Winner = DATA
[DUEL] Epoch ended. INSTR misses = 4, DATA misses = 1. Winner = DATA
[DUEL] Epoch ended. INSTR misses = 12, DATA misses = 7. Winner = DATA
[DUEL] Epoch ended. INSTR misses = 23, DATA misses = 23. Winner = INSTR
[DUEL] Epoch ended. INSTR misses = 12, DATA misses = 24. Winner = INSTR
[DUEL] Epoch ended. INSTR misses = 16, DATA misses = 15. Winner = DATA
[DUEL] Epoch ended. INSTR misses = 6, DATA misses = 3. Winner = DATA
[DUEL] Epoch ended. INSTR misses = 0, DATA misses = 5. Winner = INSTR
[DUEL] Epoch ended. INSTR misses = 0, DATA misses = 1. Winner = INSTR
[DUEL] Epoch ended. INSTR misses = 16, DATA misses = 18. Winner = INSTR
[DUEL] Epoch ended. INSTR misses = 10, DATA misses = 10. Winner = INSTR
[DUEL] Epoch ended. INSTR misses = 6, DATA misses = 6. Winner = INSTR
[DUEL] Epoch ended. INSTR misses = 12, DATA misses = 10. Winner = DATA
[DUEL] Epoch ended. INSTR misses = 12, DATA misses = 2. Winner = DATA
[DUEL] Epoch ended. INSTR misses = 18, DATA misses = 10. Winner = DATA
[DUEL] Epoch ended. INSTR misses = 15, DATA misses = 9. Winner = DATA
[DUEL] Epoch ended. INSTR misses = 12, DATA misses = 12. Winner = INSTR
[DUEL] Epoch ended. INSTR misses = 10, DATA misses = 16. Winner = INSTR
[DUEL] Epoch ended. INSTR misses = 8, DATA misses = 11. Winner = INSTR
[DUEL] Epoch ended. INSTR misses = 5, DATA misses = 5. Winner = INSTR
[DUEL] Epoch ended. INSTR misses = 22, DATA misses = 6. Winner = DATA
[DUEL] Epoch ended. INSTR misses = 7, DATA misses = 17. Winner = INSTR
[DUEL] Epoch ended. INSTR misses = 3, DATA misses = 1. Winner = DATA
[DUEL] Epoch ended. INSTR misses = 7, DATA misses = 4. Winner = DATA
[DUEL] Epoch ended. INSTR misses = 7, DATA misses = 12. Winner = INSTR
[DUEL] Epoch ended. INSTR misses = 3, DATA misses = 0. Winner = DATA
[DUEL] Epoch ended. INSTR misses = 18, DATA misses = 15. Winner = DATA
[DUEL] Epoch ended. INSTR misses = 10, DATA misses = 5. Winner = DATA
[DUEL] Epoch ended. INSTR misses = 9, DATA misses = 9. Winner = INSTR
[DUEL] Epoch ended. INSTR misses = 6, DATA misses = 24. Winner = INSTR
[DUEL] Epoch ended. INSTR misses = 11, DATA misses = 8. Winner = DATA
Heartbeat CPU 0 instructions: 10000007 cycles: 1666758 heartbeat IPC: 6 cumulative IPC: 6 (Simulation time: 00 hr 00 min 22 sec)
[DUEL] Epoch ended. INSTR misses = 0, DATA misses = 0. Winner = INSTR
[DUEL] Epoch ended. INSTR misses = 0, DATA misses = 2. Winner = INSTR
[DUEL] Epoch ended. INSTR misses = 8, DATA misses = 12. Winner = INSTR
[DUEL] Epoch ended. INSTR misses = 28, DATA misses = 18. Winner = DATA
[DUEL] Epoch ended. INSTR misses = 14, DATA misses = 5. Winner = DATA
[DUEL] Epoch ended. INSTR misses = 0, DATA misses = 2. Winner = INSTR
[DUEL] Epoch ended. INSTR misses = 1, DATA misses = 7. Winner = INSTR
[DUEL] Epoch ended. INSTR misses = 2, DATA misses = 3. Winner = INSTR
[DUEL] Epoch ended. INSTR misses = 2, DATA misses = 0. Winner = DATA
[DUEL] Epoch ended. INSTR misses = 25, DATA misses = 28. Winner = INSTR
[DUEL] Epoch ended. INSTR misses = 4, DATA misses = 10. Winner = INSTR
[DUEL] Epoch ended. INSTR misses = 6, DATA misses = 11. Winner = INSTR
[DUEL] Epoch ended. INSTR misses = 3, DATA misses = 10. Winner = INSTR
[DUEL] Epoch ended. INSTR misses = 1, DATA misses = 12. Winner = INSTR
[DUEL] Epoch ended. INSTR misses = 24, DATA misses = 26. Winner = INSTR
[DUEL] Epoch ended. INSTR misses = 1, DATA misses = 15. Winner = INSTR
[DUEL] Epoch ended. INSTR misses = 16, DATA misses = 14. Winner = DATA
[DUEL] Epoch ended. INSTR misses = 21, DATA misses = 22. Winner = INSTR
[DUEL] Epoch ended. INSTR misses = 13, DATA misses = 10. Winner = DATA
[DUEL] Epoch ended. INSTR misses = 14, DATA misses = 4. Winner = DATA
[DUEL] Epoch ended. INSTR misses = 8, DATA misses = 1. Winner = DATA
[DUEL] Epoch ended. INSTR misses = 24, DATA misses = 34. Winner = INSTR
[DUEL] Epoch ended. INSTR misses = 22, DATA misses = 17. Winner = DATA
[DUEL] Epoch ended. INSTR misses = 27, DATA misses = 21. Winner = DATA
[DUEL] Epoch ended. INSTR misses = 2, DATA misses = 1. Winner = DATA
[DUEL] Epoch ended. INSTR misses = 16, DATA misses = 18. Winner = INSTR
[DUEL] Epoch ended. INSTR misses = 16, DATA misses = 7. Winner = DATA
[DUEL] Epoch ended. INSTR misses = 8, DATA misses = 6. Winner = DATA
[DUEL] Epoch ended. INSTR misses = 25, DATA misses = 17. Winner = DATA
[DUEL] Epoch ended. INSTR misses = 24, DATA misses = 28. Winner = INSTR
[DUEL] Epoch ended. INSTR misses = 5, DATA misses = 1. Winner = DATA
[DUEL] Epoch ended. INSTR misses = 31, DATA misses = 28. Winner = DATA
[DUEL] Epoch ended. INSTR misses = 17, DATA misses = 15. Winner = DATA
[DUEL] Epoch ended. INSTR misses = 12, DATA misses = 5. Winner = DATA
[DUEL] Epoch ended. INSTR misses = 27, DATA misses = 32. Winner = INSTR
[DUEL] Epoch ended. INSTR misses = 50, DATA misses = 27. Winner = DATA
[DUEL] Epoch ended. INSTR misses = 5, DATA misses = 3. Winner = DATA
[DUEL] Epoch ended. INSTR misses = 7, DATA misses = 1. Winner = DATA
[DUEL] Epoch ended. INSTR misses = 0, DATA misses = 3. Winner = INSTR
Heartbeat CPU 0 instructions: 20000007 cycles: 3339782 heartbeat IPC: 5.977 cumulative IPC: 5.988 (Simulation time: 00 hr 00 min 45 sec)
[DUEL] Epoch ended. INSTR misses = 9, DATA misses = 10. Winner = INSTR
[DUEL] Epoch ended. INSTR misses = 4, DATA misses = 11. Winner = INSTR
[DUEL] Epoch ended. INSTR misses = 5, DATA misses = 4. Winner = DATA
[DUEL] Epoch ended. INSTR misses = 14, DATA misses = 12. Winner = DATA
[DUEL] Epoch ended. INSTR misses = 6, DATA misses = 2. Winner = DATA
[DUEL] Epoch ended. INSTR misses = 16, DATA misses = 19. Winner = INSTR
[DUEL] Epoch ended. INSTR misses = 5, DATA misses = 12. Winner = INSTR
[DUEL] Epoch ended. INSTR misses = 4, DATA misses = 3. Winner = DATA
[DUEL] Epoch ended. INSTR misses = 11, DATA misses = 13. Winner = INSTR
[DUEL] Epoch ended. INSTR misses = 45, DATA misses = 39. Winner = DATA
[DUEL] Epoch ended. INSTR misses = 34, DATA misses = 30. Winner = DATA
[DUEL] Epoch ended. INSTR misses = 1, DATA misses = 2. Winner = INSTR
[DUEL] Epoch ended. INSTR misses = 6, DATA misses = 14. Winner = INSTR
[DUEL] Epoch ended. INSTR misses = 18, DATA misses = 20. Winner = INSTR
[DUEL] Epoch ended. INSTR misses = 5, DATA misses = 19. Winner = INSTR
[DUEL] Epoch ended. INSTR misses = 22, DATA misses = 7. Winner = DATA
[DUEL] Epoch ended. INSTR misses = 14, DATA misses = 14. Winner = INSTR
[DUEL] Epoch ended. INSTR misses = 12, DATA misses = 5. Winner = DATA
[DUEL] Epoch ended. INSTR misses = 14, DATA misses = 10. Winner = DATA
[DUEL] Epoch ended. INSTR misses = 11, DATA misses = 4. Winner = DATA
[DUEL] Epoch ended. INSTR misses = 4, DATA misses = 1. Winner = DATA
[DUEL] Epoch ended. INSTR misses = 2, DATA misses = 10. Winner = INSTR
[DUEL] Epoch ended. INSTR misses = 0, DATA misses = 1. Winner = INSTR
[DUEL] Epoch ended. INSTR misses = 7, DATA misses = 16. Winner = INSTR
[DUEL] Epoch ended. INSTR misses = 0, DATA misses = 15. Winner = INSTR
[DUEL] Epoch ended. INSTR misses = 18, DATA misses = 6. Winner = DATA
[DUEL] Epoch ended. INSTR misses = 2, DATA misses = 1. Winner = DATA
[DUEL] Epoch ended. INSTR misses = 4, DATA misses = 3. Winner = DATA
[DUEL] Epoch ended. INSTR misses = 6, DATA misses = 0. Winner = DATA
[DUEL] Epoch ended. INSTR misses = 17, DATA misses = 16. Winner = DATA
[DUEL] Epoch ended. INSTR misses = 8, DATA misses = 6. Winner = DATA
[DUEL] Epoch ended. INSTR misses = 3, DATA misses = 0. Winner = DATA
[DUEL] Epoch ended. INSTR misses = 13, DATA misses = 4. Winner = DATA
[DUEL] Epoch ended. INSTR misses = 1, DATA misses = 0. Winner = DATA
[DUEL] Epoch ended. INSTR misses = 14, DATA misses = 8. Winner = DATA
[DUEL] Epoch ended. INSTR misses = 4, DATA misses = 0. Winner = DATA
[DUEL] Epoch ended. INSTR misses = 5, DATA misses = 4. Winner = DATA
[DUEL] Epoch ended. INSTR misses = 21, DATA misses = 24. Winner = INSTR
[DUEL] Epoch ended. INSTR misses = 11, DATA misses = 16. Winner = INSTR
Heartbeat CPU 0 instructions: 30000001 cycles: 5012446 heartbeat IPC: 5.978 cumulative IPC: 5.985 (Simulation time: 00 hr 01 min 07 sec)
Warmup finished CPU 0 instructions: 30000001 cycles: 5012447 cumulative IPC: 5.985 (Simulation time: 00 hr 01 min 07 sec)
Warmup complete CPU 0 instructions: 30000001 cycles: 5012447 cumulative IPC: 5.985 (Simulation time: 00 hr 01 min 07 sec)
[DUEL] Epoch ended. INSTR misses = 0, DATA misses = 3. Winner = INSTR
*** Reached end of trace: (0, "../traces/public_traces/compute_int/compute_int_1.champsimtrace.xz")
[DUEL] Epoch ended. INSTR misses = 3, DATA misses = 0. Winner = DATA
[DUEL] Epoch ended. INSTR misses = 13, DATA misses = 12. Winner = DATA
[DUEL] Epoch ended. INSTR misses = 6, DATA misses = 3. Winner = DATA
[DUEL] Epoch ended. INSTR misses = 3, DATA misses = 1. Winner = DATA
[DUEL] Epoch ended. INSTR misses = 7, DATA misses = 4. Winner = DATA
[DUEL] Epoch ended. INSTR misses = 3, DATA misses = 0. Winner = DATA
[DUEL] Epoch ended. INSTR misses = 0, DATA misses = 16. Winner = INSTR
[DUEL] Epoch ended. INSTR misses = 8, DATA misses = 7. Winner = DATA
[DUEL] Epoch ended. INSTR misses = 10, DATA misses = 3. Winner = DATA
[DUEL] Epoch ended. INSTR misses = 10, DATA misses = 5. Winner = DATA
[DUEL] Epoch ended. INSTR misses = 5, DATA misses = 0. Winner = DATA
[DUEL] Epoch ended. INSTR misses = 5, DATA misses = 8. Winner = INSTR
[DUEL] Epoch ended. INSTR misses = 28, DATA misses = 32. Winner = INSTR
[DUEL] Epoch ended. INSTR misses = 9, DATA misses = 12. Winner = INSTR
[DUEL] Epoch ended. INSTR misses = 20, DATA misses = 15. Winner = DATA
[DUEL] Epoch ended. INSTR misses = 1, DATA misses = 3. Winner = INSTR
[DUEL] Epoch ended. INSTR misses = 0, DATA misses = 3. Winner = INSTR
[DUEL] Epoch ended. INSTR misses = 6, DATA misses = 11. Winner = INSTR
[DUEL] Epoch ended. INSTR misses = 2, DATA misses = 4. Winner = INSTR
[DUEL] Epoch ended. INSTR misses = 9, DATA misses = 8. Winner = DATA
[DUEL] Epoch ended. INSTR misses = 16, DATA misses = 14. Winner = DATA
[DUEL] Epoch ended. INSTR misses = 3, DATA misses = 1. Winner = DATA
[DUEL] Epoch ended. INSTR misses = 5, DATA misses = 2. Winner = DATA
[DUEL] Epoch ended. INSTR misses = 13, DATA misses = 6. Winner = DATA
[DUEL] Epoch ended. INSTR misses = 9, DATA misses = 9. Winner = INSTR
[DUEL] Epoch ended. INSTR misses = 12, DATA misses = 17. Winner = INSTR
[DUEL] Epoch ended. INSTR misses = 10, DATA misses = 15. Winner = INSTR
[DUEL] Epoch ended. INSTR misses = 10, DATA misses = 10. Winner = INSTR
[DUEL] Epoch ended. INSTR misses = 7, DATA misses = 6. Winner = DATA
[DUEL] Epoch ended. INSTR misses = 21, DATA misses = 7. Winner = DATA
[DUEL] Epoch ended. INSTR misses = 5, DATA misses = 12. Winner = INSTR
[DUEL] Epoch ended. INSTR misses = 15, DATA misses = 4. Winner = DATA
[DUEL] Epoch ended. INSTR misses = 6, DATA misses = 14. Winner = INSTR
[DUEL] Epoch ended. INSTR misses = 4, DATA misses = 2. Winner = DATA
[DUEL] Epoch ended. INSTR misses = 4, DATA misses = 0. Winner = DATA
[DUEL] Epoch ended. INSTR misses = 7, DATA misses = 12. Winner = INSTR
[DUEL] Epoch ended. INSTR misses = 13, DATA misses = 9. Winner = DATA
[DUEL] Epoch ended. INSTR misses = 4, DATA misses = 20. Winner = INSTR
Heartbeat CPU 0 instructions: 40000005 cycles: 9407092 heartbeat IPC: 2.275 cumulative IPC: 2.275 (Simulation time: 00 hr 01 min 51 sec)
[DUEL] Epoch ended. INSTR misses = 5, DATA misses = 9. Winner = INSTR
[DUEL] Epoch ended. INSTR misses = 8, DATA misses = 6. Winner = DATA
[DUEL] Epoch ended. INSTR misses = 0, DATA misses = 0. Winner = INSTR
[DUEL] Epoch ended. INSTR misses = 0, DATA misses = 2. Winner = INSTR
[DUEL] Epoch ended. INSTR misses = 9, DATA misses = 12. Winner = INSTR
[DUEL] Epoch ended. INSTR misses = 13, DATA misses = 5. Winner = DATA
[DUEL] Epoch ended. INSTR misses = 7, DATA misses = 5. Winner = DATA
[DUEL] Epoch ended. INSTR misses = 0, DATA misses = 2. Winner = INSTR
[DUEL] Epoch ended. INSTR misses = 1, DATA misses = 6. Winner = INSTR
[DUEL] Epoch ended. INSTR misses = 2, DATA misses = 2. Winner = INSTR
[DUEL] Epoch ended. INSTR misses = 1, DATA misses = 0. Winner = DATA
[DUEL] Epoch ended. INSTR misses = 26, DATA misses = 30. Winner = INSTR
[DUEL] Epoch ended. INSTR misses = 4, DATA misses = 8. Winner = INSTR
[DUEL] Epoch ended. INSTR misses = 5, DATA misses = 7. Winner = INSTR
[DUEL] Epoch ended. INSTR misses = 3, DATA misses = 9. Winner = INSTR
[DUEL] Epoch ended. INSTR misses = 1, DATA misses = 11. Winner = INSTR
[DUEL] Epoch ended. INSTR misses = 24, DATA misses = 24. Winner = INSTR
[DUEL] Epoch ended. INSTR misses = 11, DATA misses = 13. Winner = INSTR
[DUEL] Epoch ended. INSTR misses = 13, DATA misses = 14. Winner = INSTR
[DUEL] Epoch ended. INSTR misses = 21, DATA misses = 26. Winner = INSTR
[DUEL] Epoch ended. INSTR misses = 13, DATA misses = 8. Winner = DATA
[DUEL] Epoch ended. INSTR misses = 10, DATA misses = 3. Winner = DATA
[DUEL] Epoch ended. INSTR misses = 9, DATA misses = 0. Winner = DATA
[DUEL] Epoch ended. INSTR misses = 24, DATA misses = 31. Winner = INSTR
[DUEL] Epoch ended. INSTR misses = 21, DATA misses = 15. Winner = DATA
[DUEL] Epoch ended. INSTR misses = 26, DATA misses = 19. Winner = DATA
[DUEL] Epoch ended. INSTR misses = 2, DATA misses = 2. Winner = INSTR
[DUEL] Epoch ended. INSTR misses = 16, DATA misses = 17. Winner = INSTR
[DUEL] Epoch ended. INSTR misses = 16, DATA misses = 8. Winner = DATA
[DUEL] Epoch ended. INSTR misses = 8, DATA misses = 6. Winner = DATA
[DUEL] Epoch ended. INSTR misses = 31, DATA misses = 17. Winner = DATA
[DUEL] Epoch ended. INSTR misses = 15, DATA misses = 16. Winner = INSTR
[DUEL] Epoch ended. INSTR misses = 20, DATA misses = 1. Winner = DATA
[DUEL] Epoch ended. INSTR misses = 11, DATA misses = 28. Winner = INSTR
[DUEL] Epoch ended. INSTR misses = 14, DATA misses = 17. Winner = INSTR
[DUEL] Epoch ended. INSTR misses = 15, DATA misses = 19. Winner = INSTR
[DUEL] Epoch ended. INSTR misses = 25, DATA misses = 16. Winner = DATA
[DUEL] Epoch ended. INSTR misses = 34, DATA misses = 26. Winner = DATA
[DUEL] Epoch ended. INSTR misses = 5, DATA misses = 2. Winner = DATA
Heartbeat CPU 0 instructions: 50000010 cycles: 14804542 heartbeat IPC: 1.853 cumulative IPC: 2.042 (Simulation time: 00 hr 02 min 39 sec)
[DUEL] Epoch ended. INSTR misses = 6, DATA misses = 3. Winner = DATA
[DUEL] Epoch ended. INSTR misses = 8, DATA misses = 10. Winner = INSTR
[DUEL] Epoch ended. INSTR misses = 1, DATA misses = 2. Winner = INSTR
[DUEL] Epoch ended. INSTR misses = 4, DATA misses = 11. Winner = INSTR
[DUEL] Epoch ended. INSTR misses = 5, DATA misses = 4. Winner = DATA
[DUEL] Epoch ended. INSTR misses = 9, DATA misses = 12. Winner = INSTR
[DUEL] Epoch ended. INSTR misses = 9, DATA misses = 5. Winner = DATA
[DUEL] Epoch ended. INSTR misses = 11, DATA misses = 15. Winner = INSTR
[DUEL] Epoch ended. INSTR misses = 5, DATA misses = 14. Winner = INSTR
[DUEL] Epoch ended. INSTR misses = 7, DATA misses = 3. Winner = DATA
[DUEL] Epoch ended. INSTR misses = 9, DATA misses = 10. Winner = INSTR
[DUEL] Epoch ended. INSTR misses = 39, DATA misses = 36. Winner = DATA
[DUEL] Epoch ended. INSTR misses = 19, DATA misses = 19. Winner = INSTR
[DUEL] Epoch ended. INSTR misses = 1, DATA misses = 0. Winner = DATA
[DUEL] Epoch ended. INSTR misses = 15, DATA misses = 23. Winner = INSTR
[DUEL] Epoch ended. INSTR misses = 17, DATA misses = 5. Winner = DATA
[DUEL] Epoch ended. INSTR misses = 18, DATA misses = 14. Winner = DATA
[DUEL] Epoch ended. INSTR misses = 7, DATA misses = 1. Winner = DATA
[DUEL] Epoch ended. INSTR misses = 18, DATA misses = 14. Winner = DATA
[DUEL] Epoch ended. INSTR misses = 8, DATA misses = 7. Winner = DATA
[DUEL] Epoch ended. INSTR misses = 5, DATA misses = 2. Winner = DATA
[DUEL] Epoch ended. INSTR misses = 3, DATA misses = 0. Winner = DATA
[DUEL] Epoch ended. INSTR misses = 7, DATA misses = 2. Winner = DATA
[DUEL] Epoch ended. INSTR misses = 2, DATA misses = 6. Winner = INSTR
[DUEL] Epoch ended. INSTR misses = 2, DATA misses = 1. Winner = DATA
[DUEL] Epoch ended. INSTR misses = 4, DATA misses = 11. Winner = INSTR
[DUEL] Epoch ended. INSTR misses = 2, DATA misses = 14. Winner = INSTR
[DUEL] Epoch ended. INSTR misses = 14, DATA misses = 5. Winner = DATA
[DUEL] Epoch ended. INSTR misses = 2, DATA misses = 1. Winner = DATA
[DUEL] Epoch ended. INSTR misses = 4, DATA misses = 2. Winner = DATA
[DUEL] Epoch ended. INSTR misses = 4, DATA misses = 0. Winner = DATA
[DUEL] Epoch ended. INSTR misses = 18, DATA misses = 14. Winner = DATA
[DUEL] Epoch ended. INSTR misses = 4, DATA misses = 4. Winner = INSTR
[DUEL] Epoch ended. INSTR misses = 3, DATA misses = 0. Winner = DATA
[DUEL] Epoch ended. INSTR misses = 11, DATA misses = 3. Winner = DATA
[DUEL] Epoch ended. INSTR misses = 2, DATA misses = 0. Winner = DATA
[DUEL] Epoch ended. INSTR misses = 13, DATA misses = 8. Winner = DATA
[DUEL] Epoch ended. INSTR misses = 7, DATA misses = 4. Winner = DATA
[DUEL] Epoch ended. INSTR misses = 1, DATA misses = 14. Winner = INSTR
Heartbeat CPU 0 instructions: 60000007 cycles: 20283792 heartbeat IPC: 1.825 cumulative IPC: 1.964 (Simulation time: 00 hr 03 min 27 sec)
[DUEL] Epoch ended. INSTR misses = 19, DATA misses = 19. Winner = INSTR
[DUEL] Epoch ended. INSTR misses = 10, DATA misses = 9. Winner = DATA
[DUEL] Epoch ended. INSTR misses = 1, DATA misses = 0. Winner = DATA
*** Reached end of trace: (0, "../traces/public_traces/compute_int/compute_int_1.champsimtrace.xz")
[DUEL] Epoch ended. INSTR misses = 8, DATA misses = 4. Winner = DATA
[DUEL] Epoch ended. INSTR misses = 9, DATA misses = 4. Winner = DATA
[DUEL] Epoch ended. INSTR misses = 6, DATA misses = 3. Winner = DATA
[DUEL] Epoch ended. INSTR misses = 3, DATA misses = 1. Winner = DATA
[DUEL] Epoch ended. INSTR misses = 7, DATA misses = 4. Winner = DATA
[DUEL] Epoch ended. INSTR misses = 3, DATA misses = 0. Winner = DATA
[DUEL] Epoch ended. INSTR misses = 0, DATA misses = 19. Winner = INSTR
[DUEL] Epoch ended. INSTR misses = 17, DATA misses = 7. Winner = DATA
[DUEL] Epoch ended. INSTR misses = 10, DATA misses = 2. Winner = DATA
[DUEL] Epoch ended. INSTR misses = 10, DATA misses = 5. Winner = DATA
[DUEL] Epoch ended. INSTR misses = 5, DATA misses = 0. Winner = DATA
[DUEL] Epoch ended. INSTR misses = 5, DATA misses = 8. Winner = INSTR
[DUEL] Epoch ended. INSTR misses = 29, DATA misses = 33. Winner = INSTR
[DUEL] Epoch ended. INSTR misses = 6, DATA misses = 10. Winner = INSTR
[DUEL] Epoch ended. INSTR misses = 18, DATA misses = 13. Winner = DATA
[DUEL] Epoch ended. INSTR misses = 1, DATA misses = 0. Winner = DATA
[DUEL] Epoch ended. INSTR misses = 0, DATA misses = 4. Winner = INSTR
[DUEL] Epoch ended. INSTR misses = 1, DATA misses = 9. Winner = INSTR
[DUEL] Epoch ended. INSTR misses = 2, DATA misses = 7. Winner = INSTR
[DUEL] Epoch ended. INSTR misses = 9, DATA misses = 3. Winner = DATA
[DUEL] Epoch ended. INSTR misses = 8, DATA misses = 12. Winner = INSTR
[DUEL] Epoch ended. INSTR misses = 9, DATA misses = 0. Winner = DATA
[DUEL] Epoch ended. INSTR misses = 8, DATA misses = 6. Winner = DATA
[DUEL] Epoch ended. INSTR misses = 7, DATA misses = 2. Winner = DATA
[DUEL] Epoch ended. INSTR misses = 9, DATA misses = 9. Winner = INSTR
[DUEL] Epoch ended. INSTR misses = 12, DATA misses = 17. Winner = INSTR
[DUEL] Epoch ended. INSTR misses = 10, DATA misses = 15. Winner = INSTR
[DUEL] Epoch ended. INSTR misses = 5, DATA misses = 8. Winner = INSTR
[DUEL] Epoch ended. INSTR misses = 3, DATA misses = 2. Winner = DATA
[DUEL] Epoch ended. INSTR misses = 22, DATA misses = 5. Winner = DATA
[DUEL] Epoch ended. INSTR misses = 4, DATA misses = 14. Winner = INSTR
[DUEL] Epoch ended. INSTR misses = 14, DATA misses = 6. Winner = DATA
[DUEL] Epoch ended. INSTR misses = 5, DATA misses = 15. Winner = INSTR
[DUEL] Epoch ended. INSTR misses = 6, DATA misses = 0. Winner = DATA
[DUEL] Epoch ended. INSTR misses = 1, DATA misses = 0. Winner = DATA
[DUEL] Epoch ended. INSTR misses = 17, DATA misses = 14. Winner = DATA
Heartbeat CPU 0 instructions: 70000002 cycles: 24745916 heartbeat IPC: 2.241 cumulative IPC: 2.027 (Simulation time: 00 hr 04 min 11 sec)
[DUEL] Epoch ended. INSTR misses = 9, DATA misses = 9. Winner = INSTR
[DUEL] Epoch ended. INSTR misses = 2, DATA misses = 19. Winner = INSTR
[DUEL] Epoch ended. INSTR misses = 5, DATA misses = 10. Winner = INSTR
[DUEL] Epoch ended. INSTR misses = 8, DATA misses = 6. Winner = DATA
[DUEL] Epoch ended. INSTR misses = 0, DATA misses = 0. Winner = INSTR
[DUEL] Epoch ended. INSTR misses = 0, DATA misses = 8. Winner = INSTR
[DUEL] Epoch ended. INSTR misses = 12, DATA misses = 9. Winner = DATA
[DUEL] Epoch ended. INSTR misses = 8, DATA misses = 2. Winner = DATA
[DUEL] Epoch ended. INSTR misses = 7, DATA misses = 5. Winner = DATA
[DUEL] Epoch ended. INSTR misses = 0, DATA misses = 3. Winner = INSTR
[DUEL] Epoch ended. INSTR misses = 1, DATA misses = 5. Winner = INSTR
[DUEL] Epoch ended. INSTR misses = 3, DATA misses = 2. Winner = DATA
[DUEL] Epoch ended. INSTR misses = 0, DATA misses = 0. Winner = INSTR
[DUEL] Epoch ended. INSTR misses = 25, DATA misses = 33. Winner = INSTR
[DUEL] Epoch ended. INSTR misses = 8, DATA misses = 4. Winner = DATA
[DUEL] Epoch ended. INSTR misses = 1, DATA misses = 7. Winner = INSTR
[DUEL] Epoch ended. INSTR misses = 4, DATA misses = 11. Winner = INSTR
[DUEL] Epoch ended. INSTR misses = 0, DATA misses = 9. Winner = INSTR
[DUEL] Epoch ended. INSTR misses = 24, DATA misses = 16. Winner = DATA
[DUEL] Epoch ended. INSTR misses = 17, DATA misses = 6. Winner = DATA
[DUEL] Epoch ended. INSTR misses = 13, DATA misses = 12. Winner = DATA
[DUEL] Epoch ended. INSTR misses = 19, DATA misses = 19. Winner = INSTR
[DUEL] Epoch ended. INSTR misses = 13, DATA misses = 9. Winner = DATA
[DUEL] Epoch ended. INSTR misses = 10, DATA misses = 3. Winner = DATA
[DUEL] Epoch ended. INSTR misses = 9, DATA misses = 0. Winner = DATA
[DUEL] Epoch ended. INSTR misses = 23, DATA misses = 19. Winner = DATA
[DUEL] Epoch ended. INSTR misses = 21, DATA misses = 16. Winner = DATA
[DUEL] Epoch ended. INSTR misses = 25, DATA misses = 18. Winner = DATA
[DUEL] Epoch ended. INSTR misses = 16, DATA misses = 8. Winner = DATA
[DUEL] Epoch ended. INSTR misses = 3, DATA misses = 11. Winner = INSTR
[DUEL] Epoch ended. INSTR misses = 16, DATA misses = 7. Winner = DATA
[DUEL] Epoch ended. INSTR misses = 8, DATA misses = 6. Winner = DATA
[DUEL] Epoch ended. INSTR misses = 35, DATA misses = 27. Winner = DATA
[DUEL] Epoch ended. INSTR misses = 12, DATA misses = 6. Winner = DATA
[DUEL] Epoch ended. INSTR misses = 21, DATA misses = 17. Winner = DATA
[DUEL] Epoch ended. INSTR misses = 12, DATA misses = 17. Winner = INSTR
[DUEL] Epoch ended. INSTR misses = 12, DATA misses = 16. Winner = INSTR
[DUEL] Epoch ended. INSTR misses = 17, DATA misses = 16. Winner = DATA
[DUEL] Epoch ended. INSTR misses = 28, DATA misses = 22. Winner = DATA
Heartbeat CPU 0 instructions: 80000011 cycles: 29952459 heartbeat IPC: 1.921 cumulative IPC: 2.005 (Simulation time: 00 hr 04 min 57 sec)
[DUEL] Epoch ended. INSTR misses = 27, DATA misses = 20. Winner = DATA
[DUEL] Epoch ended. INSTR misses = 7, DATA misses = 0. Winner = DATA
[DUEL] Epoch ended. INSTR misses = 4, DATA misses = 3. Winner = DATA
[DUEL] Epoch ended. INSTR misses = 8, DATA misses = 15. Winner = INSTR
[DUEL] Epoch ended. INSTR misses = 5, DATA misses = 8. Winner = INSTR
[DUEL] Epoch ended. INSTR misses = 0, DATA misses = 4. Winner = INSTR
[DUEL] Epoch ended. INSTR misses = 12, DATA misses = 14. Winner = INSTR
[DUEL] Epoch ended. INSTR misses = 4, DATA misses = 4. Winner = INSTR
[DUEL] Epoch ended. INSTR misses = 15, DATA misses = 7. Winner = DATA
[DUEL] Epoch ended. INSTR misses = 8, DATA misses = 16. Winner = INSTR
[DUEL] Epoch ended. INSTR misses = 1, DATA misses = 9. Winner = INSTR
[DUEL] Epoch ended. INSTR misses = 5, DATA misses = 2. Winner = DATA
[DUEL] Epoch ended. INSTR misses = 24, DATA misses = 26. Winner = INSTR
[DUEL] Epoch ended. INSTR misses = 23, DATA misses = 17. Winner = DATA
[DUEL] Epoch ended. INSTR misses = 12, DATA misses = 11. Winner = DATA
[DUEL] Epoch ended. INSTR misses = 1, DATA misses = 0. Winner = DATA
[DUEL] Epoch ended. INSTR misses = 8, DATA misses = 20. Winner = INSTR
[DUEL] Epoch ended. INSTR misses = 4, DATA misses = 6. Winner = INSTR
[DUEL] Epoch ended. INSTR misses = 18, DATA misses = 11. Winner = DATA
[DUEL] Epoch ended. INSTR misses = 21, DATA misses = 0. Winner = DATA
[DUEL] Epoch ended. INSTR misses = 3, DATA misses = 14. Winner = INSTR
[DUEL] Epoch ended. INSTR misses = 13, DATA misses = 9. Winner = DATA
[DUEL] Epoch ended. INSTR misses = 2, DATA misses = 0. Winner = DATA
[DUEL] Epoch ended. INSTR misses = 6, DATA misses = 0. Winner = DATA
[DUEL] Epoch ended. INSTR misses = 4, DATA misses = 4. Winner = INSTR
[DUEL] Epoch ended. INSTR misses = 1, DATA misses = 5. Winner = INSTR
[DUEL] Epoch ended. INSTR misses = 1, DATA misses = 4. Winner = INSTR
[DUEL] Epoch ended. INSTR misses = 4, DATA misses = 8. Winner = INSTR
[DUEL] Epoch ended. INSTR misses = 2, DATA misses = 13. Winner = INSTR
[DUEL] Epoch ended. INSTR misses = 13, DATA misses = 3. Winner = DATA
[DUEL] Epoch ended. INSTR misses = 2, DATA misses = 1. Winner = DATA
[DUEL] Epoch ended. INSTR misses = 4, DATA misses = 1. Winner = DATA
[DUEL] Epoch ended. INSTR misses = 2, DATA misses = 0. Winner = DATA
[DUEL] Epoch ended. INSTR misses = 18, DATA misses = 13. Winner = DATA
[DUEL] Epoch ended. INSTR misses = 4, DATA misses = 2. Winner = DATA
[DUEL] Epoch ended. INSTR misses = 4, DATA misses = 2. Winner = DATA
[DUEL] Epoch ended. INSTR misses = 10, DATA misses = 0. Winner = DATA
[DUEL] Epoch ended. INSTR misses = 2, DATA misses = 0. Winner = DATA
[DUEL] Epoch ended. INSTR misses = 13, DATA misses = 8. Winner = DATA
Heartbeat CPU 0 instructions: 90000000 cycles: 35335281 heartbeat IPC: 1.858 cumulative IPC: 1.979 (Simulation time: 00 hr 05 min 45 sec)
[DUEL] Epoch ended. INSTR misses = 8, DATA misses = 3. Winner = DATA
[DUEL] Epoch ended. INSTR misses = 0, DATA misses = 1. Winner = INSTR
[DUEL] Epoch ended. INSTR misses = 21, DATA misses = 15. Winner = DATA
[DUEL] Epoch ended. INSTR misses = 12, DATA misses = 8. Winner = DATA
[DUEL] Epoch ended. INSTR misses = 1, DATA misses = 5. Winner = INSTR
*** Reached end of trace: (0, "../traces/public_traces/compute_int/compute_int_1.champsimtrace.xz")
[DUEL] Epoch ended. INSTR misses = 8, DATA misses = 5. Winner = DATA
[DUEL] Epoch ended. INSTR misses = 10, DATA misses = 4. Winner = DATA
[DUEL] Epoch ended. INSTR misses = 5, DATA misses = 2. Winner = DATA
[DUEL] Epoch ended. INSTR misses = 3, DATA misses = 0. Winner = DATA
[DUEL] Epoch ended. INSTR misses = 7, DATA misses = 4. Winner = DATA
[DUEL] Epoch ended. INSTR misses = 3, DATA misses = 3. Winner = INSTR
[DUEL] Epoch ended. INSTR misses = 0, DATA misses = 13. Winner = INSTR
[DUEL] Epoch ended. INSTR misses = 8, DATA misses = 9. Winner = INSTR
[DUEL] Epoch ended. INSTR misses = 10, DATA misses = 0. Winner = DATA
[DUEL] Epoch ended. INSTR misses = 11, DATA misses = 5. Winner = DATA
[DUEL] Epoch ended. INSTR misses = 4, DATA misses = 0. Winner = DATA
[DUEL] Epoch ended. INSTR misses = 7, DATA misses = 8. Winner = INSTR
[DUEL] Epoch ended. INSTR misses = 28, DATA misses = 37. Winner = INSTR
[DUEL] Epoch ended. INSTR misses = 9, DATA misses = 11. Winner = INSTR
[DUEL] Epoch ended. INSTR misses = 16, DATA misses = 9. Winner = DATA
[DUEL] Epoch ended. INSTR misses = 1, DATA misses = 0. Winner = DATA
[DUEL] Epoch ended. INSTR misses = 0, DATA misses = 4. Winner = INSTR
[DUEL] Epoch ended. INSTR misses = 1, DATA misses = 12. Winner = INSTR
[DUEL] Epoch ended. INSTR misses = 6, DATA misses = 3. Winner = DATA
[DUEL] Epoch ended. INSTR misses = 10, DATA misses = 3. Winner = DATA
[DUEL] Epoch ended. INSTR misses = 8, DATA misses = 12. Winner = INSTR
[DUEL] Epoch ended. INSTR misses = 11, DATA misses = 2. Winner = DATA
[DUEL] Epoch ended. INSTR misses = 10, DATA misses = 4. Winner = DATA
[DUEL] Epoch ended. INSTR misses = 7, DATA misses = 2. Winner = DATA
[DUEL] Epoch ended. INSTR misses = 9, DATA misses = 9. Winner = INSTR
[DUEL] Epoch ended. INSTR misses = 12, DATA misses = 14. Winner = INSTR
[DUEL] Epoch ended. INSTR misses = 10, DATA misses = 16. Winner = INSTR
[DUEL] Epoch ended. INSTR misses = 9, DATA misses = 11. Winner = INSTR
[DUEL] Epoch ended. INSTR misses = 10, DATA misses = 2. Winner = DATA
[DUEL] Epoch ended. INSTR misses = 14, DATA misses = 5. Winner = DATA
[DUEL] Epoch ended. INSTR misses = 10, DATA misses = 14. Winner = INSTR
[DUEL] Epoch ended. INSTR misses = 11, DATA misses = 6. Winner = DATA
[DUEL] Epoch ended. INSTR misses = 5, DATA misses = 13. Winner = INSTR
[DUEL] Epoch ended. INSTR misses = 4, DATA misses = 0. Winner = DATA
Heartbeat CPU 0 instructions: 100000004 cycles: 39800806 heartbeat IPC: 2.239 cumulative IPC: 2.012 (Simulation time: 00 hr 06 min 29 sec)
[DUEL] Epoch ended. INSTR misses = 1, DATA misses = 0. Winner = DATA
[DUEL] Epoch ended. INSTR misses = 15, DATA misses = 13. Winner = DATA
[DUEL] Epoch ended. INSTR misses = 13, DATA misses = 9. Winner = DATA
[DUEL] Epoch ended. INSTR misses = 2, DATA misses = 17. Winner = INSTR
[DUEL] Epoch ended. INSTR misses = 7, DATA misses = 12. Winner = INSTR
[DUEL] Epoch ended. INSTR misses = 6, DATA misses = 1. Winner = DATA
[DUEL] Epoch ended. INSTR misses = 0, DATA misses = 2. Winner = INSTR
[DUEL] Epoch ended. INSTR misses = 2, DATA misses = 6. Winner = INSTR
[DUEL] Epoch ended. INSTR misses = 9, DATA misses = 5. Winner = DATA
[DUEL] Epoch ended. INSTR misses = 5, DATA misses = 1. Winner = DATA
[DUEL] Epoch ended. INSTR misses = 7, DATA misses = 6. Winner = DATA
[DUEL] Epoch ended. INSTR misses = 0, DATA misses = 2. Winner = INSTR
[DUEL] Epoch ended. INSTR misses = 1, DATA misses = 7. Winner = INSTR
[DUEL] Epoch ended. INSTR misses = 6, DATA misses = 0. Winner = DATA
[DUEL] Epoch ended. INSTR misses = 0, DATA misses = 0. Winner = INSTR
[DUEL] Epoch ended. INSTR misses = 25, DATA misses = 33. Winner = INSTR
[DUEL] Epoch ended. INSTR misses = 9, DATA misses = 10. Winner = INSTR
[DUEL] Epoch ended. INSTR misses = 0, DATA misses = 3. Winner = INSTR
[DUEL] Epoch ended. INSTR misses = 4, DATA misses = 11. Winner = INSTR
[DUEL] Epoch ended. INSTR misses = 12, DATA misses = 15. Winner = INSTR
[DUEL] Epoch ended. INSTR misses = 8, DATA misses = 12. Winner = INSTR
[DUEL] Epoch ended. INSTR misses = 5, DATA misses = 8. Winner = INSTR
[DUEL] Epoch ended. INSTR misses = 9, DATA misses = 12. Winner = INSTR
[DUEL] Epoch ended. INSTR misses = 19, DATA misses = 18. Winner = DATA
[DUEL] Epoch ended. INSTR misses = 13, DATA misses = 9. Winner = DATA
[DUEL] Epoch ended. INSTR misses = 10, DATA misses = 3. Winner = DATA
[DUEL] Epoch ended. INSTR misses = 9, DATA misses = 0. Winner = DATA
[DUEL] Epoch ended. INSTR misses = 29, DATA misses = 36. Winner = INSTR
[DUEL] Epoch ended. INSTR misses = 17, DATA misses = 11. Winner = DATA
[DUEL] Epoch ended. INSTR misses = 25, DATA misses = 18. Winner = DATA
[DUEL] Epoch ended. INSTR misses = 17, DATA misses = 9. Winner = DATA
[DUEL] Epoch ended. INSTR misses = 2, DATA misses = 10. Winner = INSTR
[DUEL] Epoch ended. INSTR misses = 16, DATA misses = 8. Winner = DATA
[DUEL] Epoch ended. INSTR misses = 21, DATA misses = 19. Winner = DATA
[DUEL] Epoch ended. INSTR misses = 20, DATA misses = 15. Winner = DATA
[DUEL] Epoch ended. INSTR misses = 13, DATA misses = 4. Winner = DATA
[DUEL] Epoch ended. INSTR misses = 19, DATA misses = 16. Winner = DATA
[DUEL] Epoch ended. INSTR misses = 12, DATA misses = 17. Winner = INSTR
[DUEL] Epoch ended. INSTR misses = 12, DATA misses = 14. Winner = INSTR
Heartbeat CPU 0 instructions: 110000003 cycles: 44849445 heartbeat IPC: 1.981 cumulative IPC: 2.008 (Simulation time: 00 hr 07 min 15 sec)
[DUEL] Epoch ended. INSTR misses = 16, DATA misses = 13. Winner = DATA
[DUEL] Epoch ended. INSTR misses = 44, DATA misses = 27. Winner = DATA
[DUEL] Epoch ended. INSTR misses = 14, DATA misses = 13. Winner = DATA
[DUEL] Epoch ended. INSTR misses = 4, DATA misses = 2. Winner = DATA
[DUEL] Epoch ended. INSTR misses = 2, DATA misses = 0. Winner = DATA
[DUEL] Epoch ended. INSTR misses = 8, DATA misses = 9. Winner = INSTR
[DUEL] Epoch ended. INSTR misses = 4, DATA misses = 8. Winner = INSTR
[DUEL] Epoch ended. INSTR misses = 5, DATA misses = 8. Winner = INSTR
[DUEL] Epoch ended. INSTR misses = 8, DATA misses = 10. Winner = INSTR
[DUEL] Epoch ended. INSTR misses = 4, DATA misses = 3. Winner = DATA
[DUEL] Epoch ended. INSTR misses = 18, DATA misses = 10. Winner = DATA
[DUEL] Epoch ended. INSTR misses = 12, DATA misses = 31. Winner = INSTR
[DUEL] Epoch ended. INSTR misses = 1, DATA misses = 4. Winner = INSTR
[DUEL] Epoch ended. INSTR misses = 6, DATA misses = 2. Winner = DATA
[DUEL] Epoch ended. INSTR misses = 23, DATA misses = 26. Winner = INSTR
[DUEL] Epoch ended. INSTR misses = 27, DATA misses = 13. Winner = DATA
[DUEL] Epoch ended. INSTR misses = 4, DATA misses = 8. Winner = INSTR
[DUEL] Epoch ended. INSTR misses = 1, DATA misses = 0. Winner = DATA
[DUEL] Epoch ended. INSTR misses = 11, DATA misses = 20. Winner = INSTR
[DUEL] Epoch ended. INSTR misses = 4, DATA misses = 6. Winner = INSTR
[DUEL] Epoch ended. INSTR misses = 18, DATA misses = 10. Winner = DATA
[DUEL] Epoch ended. INSTR misses = 21, DATA misses = 0. Winner = DATA
[DUEL] Epoch ended. INSTR misses = 3, DATA misses = 17. Winner = INSTR
[DUEL] Epoch ended. INSTR misses = 14, DATA misses = 11. Winner = DATA
[DUEL] Epoch ended. INSTR misses = 0, DATA misses = 0. Winner = INSTR
[DUEL] Epoch ended. INSTR misses = 9, DATA misses = 2. Winner = DATA
[DUEL] Epoch ended. INSTR misses = 1, DATA misses = 3. Winner = INSTR
[DUEL] Epoch ended. INSTR misses = 2, DATA misses = 3. Winner = INSTR
[DUEL] Epoch ended. INSTR misses = 5, DATA misses = 4. Winner = DATA
[DUEL] Epoch ended. INSTR misses = 0, DATA misses = 5. Winner = INSTR
[DUEL] Epoch ended. INSTR misses = 5, DATA misses = 18. Winner = INSTR
[DUEL] Epoch ended. INSTR misses = 9, DATA misses = 1. Winner = DATA
[DUEL] Epoch ended. INSTR misses = 2, DATA misses = 1. Winner = DATA
[DUEL] Epoch ended. INSTR misses = 4, DATA misses = 0. Winner = DATA
[DUEL] Epoch ended. INSTR misses = 2, DATA misses = 0. Winner = DATA
[DUEL] Epoch ended. INSTR misses = 23, DATA misses = 14. Winner = DATA
[DUEL] Epoch ended. INSTR misses = 4, DATA misses = 2. Winner = DATA
[DUEL] Epoch ended. INSTR misses = 11, DATA misses = 2. Winner = DATA
[DUEL] Epoch ended. INSTR misses = 0, DATA misses = 0. Winner = INSTR
Heartbeat CPU 0 instructions: 120000010 cycles: 50228227 heartbeat IPC: 1.859 cumulative IPC: 1.99 (Simulation time: 00 hr 08 min 02 sec)
[DUEL] Epoch ended. INSTR misses = 2, DATA misses = 0. Winner = DATA
[DUEL] Epoch ended. INSTR misses = 13, DATA misses = 8. Winner = DATA
[DUEL] Epoch ended. INSTR misses = 7, DATA misses = 5. Winner = DATA
[DUEL] Epoch ended. INSTR misses = 2, DATA misses = 13. Winner = INSTR
[DUEL] Epoch ended. INSTR misses = 23, DATA misses = 19. Winner = DATA
[DUEL] Epoch ended. INSTR misses = 6, DATA misses = 7. Winner = INSTR
[DUEL] Epoch ended. INSTR misses = 1, DATA misses = 3. Winner = INSTR
*** Reached end of trace: (0, "../traces/public_traces/compute_int/compute_int_1.champsimtrace.xz")
[DUEL] Epoch ended. INSTR misses = 10, DATA misses = 5. Winner = DATA
[DUEL] Epoch ended. INSTR misses = 8, DATA misses = 4. Winner = DATA
[DUEL] Epoch ended. INSTR misses = 5, DATA misses = 2. Winner = DATA
[DUEL] Epoch ended. INSTR misses = 3, DATA misses = 0. Winner = DATA
[DUEL] Epoch ended. INSTR misses = 7, DATA misses = 4. Winner = DATA
[DUEL] Epoch ended. INSTR misses = 4, DATA misses = 4. Winner = INSTR
[DUEL] Epoch ended. INSTR misses = 4, DATA misses = 19. Winner = INSTR
[DUEL] Epoch ended. INSTR misses = 15, DATA misses = 2. Winner = DATA
[DUEL] Epoch ended. INSTR misses = 8, DATA misses = 0. Winner = DATA
[DUEL] Epoch ended. INSTR misses = 11, DATA misses = 5. Winner = DATA
[DUEL] Epoch ended. INSTR misses = 7, DATA misses = 0. Winner = DATA
[DUEL] Epoch ended. INSTR misses = 2, DATA misses = 8. Winner = INSTR
[DUEL] Epoch ended. INSTR misses = 30, DATA misses = 36. Winner = INSTR
[DUEL] Epoch ended. INSTR misses = 15, DATA misses = 11. Winner = DATA
[DUEL] Epoch ended. INSTR misses = 8, DATA misses = 9. Winner = INSTR
[DUEL] Epoch ended. INSTR misses = 1, DATA misses = 0. Winner = DATA
[DUEL] Epoch ended. INSTR misses = 1, DATA misses = 5. Winner = INSTR
[DUEL] Epoch ended. INSTR misses = 1, DATA misses = 11. Winner = INSTR
[DUEL] Epoch ended. INSTR misses = 2, DATA misses = 3. Winner = INSTR
[DUEL] Epoch ended. INSTR misses = 14, DATA misses = 3. Winner = DATA
[DUEL] Epoch ended. INSTR misses = 4, DATA misses = 18. Winner = INSTR
[DUEL] Epoch ended. INSTR misses = 14, DATA misses = 2. Winner = DATA
[DUEL] Epoch ended. INSTR misses = 7, DATA misses = 15. Winner = INSTR
[DUEL] Epoch ended. INSTR misses = 7, DATA misses = 2. Winner = DATA
[DUEL] Epoch ended. INSTR misses = 9, DATA misses = 9. Winner = INSTR
[DUEL] Epoch ended. INSTR misses = 12, DATA misses = 18. Winner = INSTR
[DUEL] Epoch ended. INSTR misses = 10, DATA misses = 20. Winner = INSTR
[DUEL] Epoch ended. INSTR misses = 8, DATA misses = 1. Winner = DATA
[DUEL] Epoch ended. INSTR misses = 17, DATA misses = 3. Winner = DATA
[DUEL] Epoch ended. INSTR misses = 9, DATA misses = 4. Winner = DATA
[DUEL] Epoch ended. INSTR misses = 6, DATA misses = 14. Winner = INSTR
[DUEL] Epoch ended. INSTR misses = 8, DATA misses = 4. Winner = DATA
Heartbeat CPU 0 instructions: 130000002 cycles: 54690341 heartbeat IPC: 2.241 cumulative IPC: 2.013 (Simulation time: 00 hr 08 min 46 sec)
Simulation finished CPU 0 instructions: 100000001 cycles: 49677895 cumulative IPC: 2.013 (Simulation time: 00 hr 08 min 46 sec)
Simulation complete CPU 0 instructions: 100000001 cycles: 49677895 cumulative IPC: 2.013 (Simulation time: 00 hr 08 min 46 sec)

ChampSim completed all CPUs

=== Simulation ===
CPU 0 runs ../traces/public_traces/compute_int/compute_int_1.champsimtrace.xz
Region of Interest Statistics

CPU 0 cumulative IPC: 2.013 instructions: 100000001 cycles: 49677895
CPU 0 Branch Prediction Accuracy: 99.3% MPKI: 1.289 Average ROB Occupancy at Mispredict: 196.8
Branch type MPKI
BRANCH_DIRECT_JUMP: 0
BRANCH_INDIRECT: 1.19
BRANCH_CONDITIONAL: 0.0985
BRANCH_DIRECT_CALL: 0
BRANCH_INDIRECT_CALL: 1e-05
BRANCH_RETURN: 0.00276

LLC TOTAL        ACCESS:    1127160 HIT:     127383 MISS:     999777
LLC LOAD         ACCESS:     474149 HIT:      46901 MISS:     427248
LLC RFO          ACCESS:       1401 HIT:        949 MISS:        452
LLC PREFETCH     ACCESS:     606463 HIT:      57283 MISS:     549180
LLC WRITE        ACCESS:      19336 HIT:      16109 MISS:       3227
LLC TRANSLATION  ACCESS:      25811 HIT:       6141 MISS:      19670
LLC PREFETCH REQUESTED:          0 ISSUED:          0 USEFUL:          0 USELESS:          0
LLC AVERAGE MISS LATENCY: 182.8 cycles
cpu0_DTLB TOTAL        ACCESS:   17209952 HIT:   16813024 MISS:     396928
cpu0_DTLB LOAD         ACCESS:   17209952 HIT:   16813024 MISS:     396928
cpu0_DTLB RFO          ACCESS:          0 HIT:          0 MISS:          0
cpu0_DTLB PREFETCH     ACCESS:          0 HIT:          0 MISS:          0
cpu0_DTLB WRITE        ACCESS:          0 HIT:          0 MISS:          0
cpu0_DTLB TRANSLATION  ACCESS:          0 HIT:          0 MISS:          0
cpu0_DTLB PREFETCH REQUESTED:          0 ISSUED:          0 USEFUL:          0 USELESS:          0
cpu0_DTLB AVERAGE MISS LATENCY: 14.25 cycles
cpu0_ITLB TOTAL        ACCESS:      76712 HIT:      76712 MISS:          0
cpu0_ITLB LOAD         ACCESS:      76712 HIT:      76712 MISS:          0
cpu0_ITLB RFO          ACCESS:          0 HIT:          0 MISS:          0
cpu0_ITLB PREFETCH     ACCESS:          0 HIT:          0 MISS:          0
cpu0_ITLB WRITE        ACCESS:          0 HIT:          0 MISS:          0
cpu0_ITLB TRANSLATION  ACCESS:          0 HIT:          0 MISS:          0
cpu0_ITLB PREFETCH REQUESTED:          0 ISSUED:          0 USEFUL:          0 USELESS:          0
cpu0_ITLB AVERAGE MISS LATENCY: -nan cycles
cpu0_L1D TOTAL        ACCESS:   23501121 HIT:   20580824 MISS:    2920297
cpu0_L1D LOAD         ACCESS:   18848296 HIT:   16273459 MISS:    2574837
cpu0_L1D RFO          ACCESS:          0 HIT:          0 MISS:          0
cpu0_L1D PREFETCH     ACCESS:     412160 HIT:     129549 MISS:     282611
cpu0_L1D WRITE        ACCESS:    4190560 HIT:    4170858 MISS:      19702
cpu0_L1D TRANSLATION  ACCESS:      50105 HIT:       6958 MISS:      43147
cpu0_L1D PREFETCH REQUESTED:     480922 ISSUED:     412160 USEFUL:       9723 USELESS:      27396
cpu0_L1D AVERAGE MISS LATENCY: 33.38 cycles
cpu0_L1I TOTAL        ACCESS:     114123 HIT:     112933 MISS:       1190
cpu0_L1I LOAD         ACCESS:      33937 HIT:      33389 MISS:        548
cpu0_L1I RFO          ACCESS:          0 HIT:          0 MISS:          0
cpu0_L1I PREFETCH     ACCESS:      80186 HIT:      79544 MISS:        642
cpu0_L1I WRITE        ACCESS:          0 HIT:          0 MISS:          0
cpu0_L1I TRANSLATION  ACCESS:          0 HIT:          0 MISS:          0
cpu0_L1I PREFETCH REQUESTED:      81988 ISSUED:      80186 USEFUL:        477 USELESS:         14
cpu0_L1I AVERAGE MISS LATENCY: 143.5 cycles
cpu0_L2C TOTAL        ACCESS:    2177034 HIT:     781722 MISS:    1395312
cpu0_L2C LOAD         ACCESS:     769059 HIT:     259982 MISS:     509077
cpu0_L2C RFO          ACCESS:       6158 HIT:       4757 MISS:       1401
cpu0_L2C PREFETCH     ACCESS:    1307152 HIT:     448257 MISS:     858895
cpu0_L2C WRITE        ACCESS:      51610 HIT:      51482 MISS:        128
cpu0_L2C TRANSLATION  ACCESS:      43055 HIT:      17244 MISS:      25811
cpu0_L2C PREFETCH REQUESTED:    1050574 ISSUED:    1036879 USEFUL:     193726 USELESS:     320370
cpu0_L2C AVERAGE MISS LATENCY: 146.2 cycles
cpu0_STLB TOTAL        ACCESS:     139566 HIT:      90971 MISS:      48595
cpu0_STLB LOAD         ACCESS:     139566 HIT:      90971 MISS:      48595
cpu0_STLB RFO          ACCESS:          0 HIT:          0 MISS:          0
cpu0_STLB PREFETCH     ACCESS:          0 HIT:          0 MISS:          0
cpu0_STLB WRITE        ACCESS:          0 HIT:          0 MISS:          0
cpu0_STLB TRANSLATION  ACCESS:          0 HIT:          0 MISS:          0
cpu0_STLB PREFETCH REQUESTED:          0 ISSUED:          0 USEFUL:          0 USELESS:          0
cpu0_STLB AVERAGE MISS LATENCY: 123.1 cycles

DRAM Statistics

Channel 0 RQ ROW_BUFFER_HIT:     134805
  ROW_BUFFER_MISS:     375498
 AVG DBUS CONGESTED CYCLE: 3.857
WQ ROW_BUFFER_HIT: Channel 0 
  ROW_BUFFER_MISS:       1642
  FULL:       1051

Channel 1 RQ ROW_BUFFER_HIT:     131271
  ROW_BUFFER_MISS:     354973
 AVG DBUS CONGESTED CYCLE: 3.846
WQ ROW_BUFFER_HIT: Channel 1 
  ROW_BUFFER_MISS:       1424
  FULL:       1131
BERTI TO_L1: 178728 TO_L2: 572455 TO_L2_BC_MSHR: 34490
BERTI AVG_LAT: 101.171 NUM_TRACK_LATENCY: 1056825 NUM_CANT_TRACK_LATENCY: 0
BERTI CROSS_PAGE 133810 NO_CROSS_PAGE: 617373
BERTI FOUND_BERTI: 9539651 NO_FOUND_BERTI: 15340348
BERTI AVERAGE_ISSUED: 3.00614
CPU 0 L1I Entangling prefetcher final stats
IP accesses: 46a9 11aa40 1502 / 33937
IP misses: 46ee 11bb80 15 / 548
IP hits: 0 0 0 / 0
IP late: 24a 9280 6 / 332
IP wrong: 46ef 11bbc0 3 / 14
miss rate: 0.0161476
coverage: 0
coverage_late: 0.60584
accuracy: 0
accuracy_late: 0.959538
discarded: 0
evicts entangled j table: 0
evicts entangled k table: 9
max bb size: 11
formats: 9 0 13 7 3 9 0 
hist_lookups: 1 3 7 7 16 13 9 5 0 3 6 2 0 1 1 0 21 551 
hist_lookups_evict: 3.25078 %
hist_lookups_shortlat: 85.2942 %
bb_found_hist: 0 8176 3863 3710 613 767 817 0 0 0 0 6 0 0 0 0 0 0 0 0 0 0 0 0 0 0 0 0 0 0 0 0 0 0 0 0 0 0 0 0 0 0 0 0 0 0 0 0 0 0 0 0 0 0 0 0 0 0 0 0 0 0 0 0 
bb_found_summary: 38287 17952 2.13275
entangled_found_hist: 0 7034 1395 2378 86 269 78 0 
entangled_found_summary: 19115 11240 1.70063
bb_ent_found_hist: 0 2113 6988 1663 39 691 57 0 0 0 0 6 0 0 0 0 0 0 0 0 0 0 0 0 0 0 0 0 0 0 0 0 0 0 0 0 0 0 0 0 0 0 0 0 0 0 0 0 0 0 0 0 0 0 0 0 0 0 0 0 0 0 0 0 
bb_ent_found_summary: 25097 11557 2.17159
