WARNING: physical memory size is smaller than virtual memory size.

*** ChampSim Multicore Out-of-Order Simulator ***
Warmup Instructions: 30000000
Simulation Instructions: 100000000
Number of CPUs: 1
Page size: 4096

BTB:
Basic BTB sets: 1024 ways: 8
Indirect:
history lengths: 0 0 10 16 27 44 60 96 109 219 449 487 714 1313 2146 3881 
ITTAGE tables: 64768 bytes;Region table: 240 bytes;IUM: 384 bytes;Total Storage= 65392 bytes;
RAS:
RAS size: 64
Berti Prefetcher
CPU 0 Entangling prefetcher
Off-chip DRAM Size: 8 GiB Channels: 2 Width: 64-bit Data Race: 6400 MT/s
Heartbeat CPU 0 instructions: 10000010 cycles: 1689919 heartbeat IPC: 5.917 cumulative IPC: 5.917 (Simulation time: 00 hr 00 min 37 sec)
Heartbeat CPU 0 instructions: 20000002 cycles: 3500268 heartbeat IPC: 5.524 cumulative IPC: 5.714 (Simulation time: 00 hr 01 min 30 sec)
Heartbeat CPU 0 instructions: 30000008 cycles: 5256125 heartbeat IPC: 5.695 cumulative IPC: 5.708 (Simulation time: 00 hr 02 min 21 sec)
Warmup finished CPU 0 instructions: 30000008 cycles: 5256126 cumulative IPC: 5.708 (Simulation time: 00 hr 02 min 21 sec)
Warmup complete CPU 0 instructions: 30000008 cycles: 5256126 cumulative IPC: 5.708 (Simulation time: 00 hr 02 min 21 sec)
*** Reached end of trace: (0, "../traces/public_traces/compute_int/compute_int_10.champsimtrace.xz")
Heartbeat CPU 0 instructions: 40000002 cycles: 6972154 heartbeat IPC: 5.827 cumulative IPC: 5.827 (Simulation time: 00 hr 03 min 16 sec)
Heartbeat CPU 0 instructions: 50000000 cycles: 9235345 heartbeat IPC: 4.419 cumulative IPC: 5.026 (Simulation time: 00 hr 04 min 20 sec)
Heartbeat CPU 0 instructions: 60000004 cycles: 11229448 heartbeat IPC: 5.015 cumulative IPC: 5.022 (Simulation time: 00 hr 05 min 20 sec)
*** Reached end of trace: (0, "../traces/public_traces/compute_int/compute_int_10.champsimtrace.xz")
Heartbeat CPU 0 instructions: 70000010 cycles: 12947559 heartbeat IPC: 5.82 cumulative IPC: 5.201 (Simulation time: 00 hr 06 min 15 sec)
Heartbeat CPU 0 instructions: 80000001 cycles: 15183998 heartbeat IPC: 4.471 cumulative IPC: 5.036 (Simulation time: 00 hr 07 min 20 sec)
Heartbeat CPU 0 instructions: 90000003 cycles: 17175160 heartbeat IPC: 5.022 cumulative IPC: 5.034 (Simulation time: 00 hr 08 min 18 sec)
*** Reached end of trace: (0, "../traces/public_traces/compute_int/compute_int_10.champsimtrace.xz")
Heartbeat CPU 0 instructions: 100000004 cycles: 18886329 heartbeat IPC: 5.844 cumulative IPC: 5.136 (Simulation time: 00 hr 09 min 08 sec)
Heartbeat CPU 0 instructions: 110000011 cycles: 21106592 heartbeat IPC: 4.504 cumulative IPC: 5.047 (Simulation time: 00 hr 10 min 11 sec)
Heartbeat CPU 0 instructions: 120000001 cycles: 23108091 heartbeat IPC: 4.996 cumulative IPC: 5.041 (Simulation time: 00 hr 11 min 11 sec)
*** Reached end of trace: (0, "../traces/public_traces/compute_int/compute_int_10.champsimtrace.xz")
Heartbeat CPU 0 instructions: 130000002 cycles: 24818940 heartbeat IPC: 5.845 cumulative IPC: 5.112 (Simulation time: 00 hr 12 min 05 sec)
Simulation finished CPU 0 instructions: 100000006 cycles: 19562816 cumulative IPC: 5.112 (Simulation time: 00 hr 12 min 05 sec)
Simulation complete CPU 0 instructions: 100000006 cycles: 19562816 cumulative IPC: 5.112 (Simulation time: 00 hr 12 min 05 sec)

ChampSim completed all CPUs

=== Simulation ===
CPU 0 runs ../traces/public_traces/compute_int/compute_int_10.champsimtrace.xz
Region of Interest Statistics

CPU 0 cumulative IPC: 5.112 instructions: 100000006 cycles: 19562816
CPU 0 Branch Prediction Accuracy: 99.11% MPKI: 0.8259 Average ROB Occupancy at Mispredict: 45.36
Branch type MPKI
BRANCH_DIRECT_JUMP: 0
BRANCH_INDIRECT: 0.0195
BRANCH_CONDITIONAL: 0.803
BRANCH_DIRECT_CALL: 0
BRANCH_INDIRECT_CALL: 0.00342
BRANCH_RETURN: 0

LLC TOTAL        ACCESS:     317775 HIT:     284912 MISS:      32863
LLC LOAD         ACCESS:      12293 HIT:      10158 MISS:       2135
LLC RFO          ACCESS:      86325 HIT:      79108 MISS:       7217
LLC PREFETCH     ACCESS:     130191 HIT:     106914 MISS:      23277
LLC WRITE        ACCESS:      88819 HIT:      88661 MISS:        158
LLC TRANSLATION  ACCESS:        147 HIT:         71 MISS:         76
LLC PREFETCH REQUESTED:          0 ISSUED:          0 USEFUL:          0 USELESS:          0
LLC AVERAGE MISS LATENCY: 143.5 cycles
cpu0_DTLB TOTAL        ACCESS:   17987945 HIT:   17926510 MISS:      61435
cpu0_DTLB LOAD         ACCESS:   17987945 HIT:   17926510 MISS:      61435
cpu0_DTLB RFO          ACCESS:          0 HIT:          0 MISS:          0
cpu0_DTLB PREFETCH     ACCESS:          0 HIT:          0 MISS:          0
cpu0_DTLB WRITE        ACCESS:          0 HIT:          0 MISS:          0
cpu0_DTLB TRANSLATION  ACCESS:          0 HIT:          0 MISS:          0
cpu0_DTLB PREFETCH REQUESTED:          0 ISSUED:          0 USEFUL:          0 USELESS:          0
cpu0_DTLB AVERAGE MISS LATENCY: 3.753 cycles
cpu0_ITLB TOTAL        ACCESS:    1525190 HIT:    1525167 MISS:         23
cpu0_ITLB LOAD         ACCESS:    1525190 HIT:    1525167 MISS:         23
cpu0_ITLB RFO          ACCESS:          0 HIT:          0 MISS:          0
cpu0_ITLB PREFETCH     ACCESS:          0 HIT:          0 MISS:          0
cpu0_ITLB WRITE        ACCESS:          0 HIT:          0 MISS:          0
cpu0_ITLB TRANSLATION  ACCESS:          0 HIT:          0 MISS:          0
cpu0_ITLB PREFETCH REQUESTED:          0 ISSUED:          0 USEFUL:          0 USELESS:          0
cpu0_ITLB AVERAGE MISS LATENCY: 263.2 cycles
cpu0_L1D TOTAL        ACCESS:   33568847 HIT:   32000833 MISS:    1568014
cpu0_L1D LOAD         ACCESS:   19276095 HIT:   19008726 MISS:     267369
cpu0_L1D RFO          ACCESS:          0 HIT:          0 MISS:          0
cpu0_L1D PREFETCH     ACCESS:    9450578 HIT:    8339788 MISS:    1110790
cpu0_L1D WRITE        ACCESS:    4842021 HIT:    4652318 MISS:     189703
cpu0_L1D TRANSLATION  ACCESS:        153 HIT:          1 MISS:        152
cpu0_L1D PREFETCH REQUESTED:   25690868 ISSUED:    9450578 USEFUL:      98948 USELESS:      26750
cpu0_L1D AVERAGE MISS LATENCY: 6.495 cycles
cpu0_L1I TOTAL        ACCESS:    2312654 HIT:    2271408 MISS:      41246
cpu0_L1I LOAD         ACCESS:    1120931 HIT:    1103438 MISS:      17493
cpu0_L1I RFO          ACCESS:          0 HIT:          0 MISS:          0
cpu0_L1I PREFETCH     ACCESS:    1191723 HIT:    1167970 MISS:      23753
cpu0_L1I WRITE        ACCESS:          0 HIT:          0 MISS:          0
cpu0_L1I TRANSLATION  ACCESS:          0 HIT:          0 MISS:          0
cpu0_L1I PREFETCH REQUESTED:    4179537 ISSUED:    1191723 USEFUL:      15349 USELESS:       6138
cpu0_L1I AVERAGE MISS LATENCY: 21.53 cycles
cpu0_L2C TOTAL        ACCESS:    2613680 HIT:    2265220 MISS:     348460
cpu0_L2C LOAD         ACCESS:     174092 HIT:     161077 MISS:      13015
cpu0_L2C RFO          ACCESS:     106320 HIT:      19991 MISS:      86329
cpu0_L2C PREFETCH     ACCESS:    2224095 HIT:    1975231 MISS:     248864
cpu0_L2C WRITE        ACCESS:     109022 HIT:     108917 MISS:        105
cpu0_L2C TRANSLATION  ACCESS:        151 HIT:          4 MISS:        147
cpu0_L2C PREFETCH REQUESTED:    1250148 ISSUED:    1148039 USEFUL:      49671 USELESS:      19105
cpu0_L2C AVERAGE MISS LATENCY: 26.76 cycles
cpu0_STLB TOTAL        ACCESS:      37626 HIT:      37474 MISS:        152
cpu0_STLB LOAD         ACCESS:      37626 HIT:      37474 MISS:        152
cpu0_STLB RFO          ACCESS:          0 HIT:          0 MISS:          0
cpu0_STLB PREFETCH     ACCESS:          0 HIT:          0 MISS:          0
cpu0_STLB WRITE        ACCESS:          0 HIT:          0 MISS:          0
cpu0_STLB TRANSLATION  ACCESS:          0 HIT:          0 MISS:          0
cpu0_STLB PREFETCH REQUESTED:          0 ISSUED:          0 USEFUL:          0 USELESS:          0
cpu0_STLB AVERAGE MISS LATENCY: 218.9 cycles

DRAM Statistics

Channel 0 RQ ROW_BUFFER_HIT:       5280
  ROW_BUFFER_MISS:      11406
 AVG DBUS CONGESTED CYCLE: 3.762
WQ ROW_BUFFER_HIT: Channel 0 
  ROW_BUFFER_MISS:       1265
  FULL:       5214

Channel 1 RQ ROW_BUFFER_HIT:       5136
  ROW_BUFFER_MISS:      10869
 AVG DBUS CONGESTED CYCLE: 3.741
WQ ROW_BUFFER_HIT: Channel 1 
  ROW_BUFFER_MISS:       1188
  FULL:       4598
BERTI TO_L1: 23653615 TO_L2: 10874143 TO_L2_BC_MSHR: 813065
BERTI AVG_LAT: 31.1213 NUM_TRACK_LATENCY: 378838 NUM_CANT_TRACK_LATENCY: 0
BERTI CROSS_PAGE 8822134 NO_CROSS_PAGE: 25705624
BERTI FOUND_BERTI: 7963687 NO_FOUND_BERTI: 17635565
BERTI AVERAGE_ISSUED: 4.12767
CPU 0 L1I Entangling prefetcher final stats
IP accesses: c4 3100 25183 / 1122871
IP misses: 1000 40000 154 / 19433
IP hits: 0 0 0 / 0
IP late: bc9 2f240 73 / 7086
IP wrong: f89 3e240 62 / 6078
miss rate: 0.0173066
coverage: 0
coverage_late: 0.364638
accuracy: 0
accuracy_late: 0.538287
discarded: 0
evicts entangled j table: 0
evicts entangled k table: 637
max bb size: 69
formats: 77 0 372 412 114 227 0 
hist_lookups: 536 599 598 462 370 279 213 194 126 104 80 60 43 23 6 0 9 1542 
hist_lookups_evict: 0.171625 %
hist_lookups_shortlat: 29.4051 %
bb_found_hist: 0 73368 66586 38672 11463 18135 21701 13252 9267 3654 15266 15153 13981 3403 1872 295 4230 1940 0 195 1237 12 33 0 0 2064 659 0 74 0 0 12 0 0 0 0 40 0 0 0 192 0 0 0 0 0 0 0 0 0 0 0 0 0 0 0 0 0 0 0 0 0 0 0 
bb_found_summary: 1561443 316756 4.92949
entangled_found_hist: 0 68221 41786 33235 34450 911 454 0 
entangled_found_summary: 396577 179057 2.21481
bb_ent_found_hist: 0 68545 55842 24647 32170 15103 21580 28578 38624 13334 3131 1325 2259 3012 279 143 20973 2635 0 28 2504 12 104 0 0 4795 0 0 182 0 0 12 0 0 0 0 175 0 0 0 9266 0 0 0 0 0 0 0 0 0 0 0 0 0 0 0 0 0 0 0 0 0 0 0 
bb_ent_found_summary: 2270887 349258 6.50204
