WARNING: physical memory size is smaller than virtual memory size.

*** ChampSim Multicore Out-of-Order Simulator ***
Warmup Instructions: 30000000
Simulation Instructions: 100000000
Number of CPUs: 1
Page size: 4096

BTB:
Basic BTB sets: 1024 ways: 8
Indirect:
history lengths: 0 0 10 16 27 44 60 96 109 219 449 487 714 1313 2146 3881 
ITTAGE tables: 64768 bytes;Region table: 240 bytes;IUM: 384 bytes;Total Storage= 65392 bytes;
RAS:
RAS size: 64
Berti Prefetcher
CPU 0 Entangling prefetcher
Off-chip DRAM Size: 8 GiB Channels: 2 Width: 64-bit Data Race: 6400 MT/s
Heartbeat CPU 0 instructions: 10000008 cycles: 1672144 heartbeat IPC: 5.98 cumulative IPC: 5.98 (Simulation time: 00 hr 00 min 44 sec)
Heartbeat CPU 0 instructions: 20000008 cycles: 3352624 heartbeat IPC: 5.951 cumulative IPC: 5.965 (Simulation time: 00 hr 01 min 25 sec)
Heartbeat CPU 0 instructions: 30000008 cycles: 5040159 heartbeat IPC: 5.926 cumulative IPC: 5.952 (Simulation time: 00 hr 02 min 06 sec)
Warmup finished CPU 0 instructions: 30000008 cycles: 5040160 cumulative IPC: 5.952 (Simulation time: 00 hr 02 min 06 sec)
Warmup complete CPU 0 instructions: 30000008 cycles: 5040160 cumulative IPC: 5.952 (Simulation time: 00 hr 02 min 06 sec)
*** Reached end of trace: (0, "../traces/public_traces/compute_int/compute_int_16.champsimtrace.xz")
Heartbeat CPU 0 instructions: 40000000 cycles: 6875845 heartbeat IPC: 5.448 cumulative IPC: 5.448 (Simulation time: 00 hr 03 min 02 sec)
Heartbeat CPU 0 instructions: 50000010 cycles: 9225814 heartbeat IPC: 4.255 cumulative IPC: 4.778 (Simulation time: 00 hr 04 min 10 sec)
Heartbeat CPU 0 instructions: 60000006 cycles: 11794891 heartbeat IPC: 3.892 cumulative IPC: 4.441 (Simulation time: 00 hr 05 min 12 sec)
*** Reached end of trace: (0, "../traces/public_traces/compute_int/compute_int_16.champsimtrace.xz")
Heartbeat CPU 0 instructions: 70000001 cycles: 13699047 heartbeat IPC: 5.252 cumulative IPC: 4.62 (Simulation time: 00 hr 06 min 09 sec)
Heartbeat CPU 0 instructions: 80000009 cycles: 16007677 heartbeat IPC: 4.332 cumulative IPC: 4.559 (Simulation time: 00 hr 07 min 09 sec)
Heartbeat CPU 0 instructions: 90000000 cycles: 18500536 heartbeat IPC: 4.011 cumulative IPC: 4.458 (Simulation time: 00 hr 08 min 06 sec)
*** Reached end of trace: (0, "../traces/public_traces/compute_int/compute_int_16.champsimtrace.xz")
Heartbeat CPU 0 instructions: 100000008 cycles: 20494401 heartbeat IPC: 5.015 cumulative IPC: 4.53 (Simulation time: 00 hr 08 min 58 sec)
Heartbeat CPU 0 instructions: 110000008 cycles: 22745409 heartbeat IPC: 4.442 cumulative IPC: 4.518 (Simulation time: 00 hr 10 min 02 sec)
Heartbeat CPU 0 instructions: 120000000 cycles: 25159089 heartbeat IPC: 4.143 cumulative IPC: 4.473 (Simulation time: 00 hr 11 min 06 sec)
*** Reached end of trace: (0, "../traces/public_traces/compute_int/compute_int_16.champsimtrace.xz")
Heartbeat CPU 0 instructions: 130000006 cycles: 27271840 heartbeat IPC: 4.733 cumulative IPC: 4.498 (Simulation time: 00 hr 11 min 58 sec)
Simulation finished CPU 0 instructions: 100000001 cycles: 22231683 cumulative IPC: 4.498 (Simulation time: 00 hr 11 min 58 sec)
Simulation complete CPU 0 instructions: 100000001 cycles: 22231683 cumulative IPC: 4.498 (Simulation time: 00 hr 11 min 58 sec)

ChampSim completed all CPUs

=== Simulation ===
CPU 0 runs ../traces/public_traces/compute_int/compute_int_16.champsimtrace.xz
Region of Interest Statistics

CPU 0 cumulative IPC: 4.498 instructions: 100000001 cycles: 22231683
CPU 0 Branch Prediction Accuracy: 98.71% MPKI: 1.685 Average ROB Occupancy at Mispredict: 70.8
Branch type MPKI
BRANCH_DIRECT_JUMP: 0
BRANCH_INDIRECT: 0.345
BRANCH_CONDITIONAL: 1.34
BRANCH_DIRECT_CALL: 0
BRANCH_INDIRECT_CALL: 1e-05
BRANCH_RETURN: 0

LLC TOTAL        ACCESS:     585474 HIT:     500421 MISS:      85053
LLC LOAD         ACCESS:      48731 HIT:      44595 MISS:       4136
LLC RFO          ACCESS:      50193 HIT:      16314 MISS:      33879
LLC PREFETCH     ACCESS:     283444 HIT:     237194 MISS:      46250
LLC WRITE        ACCESS:     203102 HIT:     202318 MISS:        784
LLC TRANSLATION  ACCESS:          4 HIT:          0 MISS:          4
LLC PREFETCH REQUESTED:          0 ISSUED:          0 USEFUL:          0 USELESS:          0
LLC AVERAGE MISS LATENCY: 201.9 cycles
cpu0_DTLB TOTAL        ACCESS:   16900363 HIT:   16500736 MISS:     399627
cpu0_DTLB LOAD         ACCESS:   16900363 HIT:   16500736 MISS:     399627
cpu0_DTLB RFO          ACCESS:          0 HIT:          0 MISS:          0
cpu0_DTLB PREFETCH     ACCESS:          0 HIT:          0 MISS:          0
cpu0_DTLB WRITE        ACCESS:          0 HIT:          0 MISS:          0
cpu0_DTLB TRANSLATION  ACCESS:          0 HIT:          0 MISS:          0
cpu0_DTLB PREFETCH REQUESTED:          0 ISSUED:          0 USEFUL:          0 USELESS:          0
cpu0_DTLB AVERAGE MISS LATENCY: 7.462 cycles
cpu0_ITLB TOTAL        ACCESS:      12072 HIT:      12072 MISS:          0
cpu0_ITLB LOAD         ACCESS:      12072 HIT:      12072 MISS:          0
cpu0_ITLB RFO          ACCESS:          0 HIT:          0 MISS:          0
cpu0_ITLB PREFETCH     ACCESS:          0 HIT:          0 MISS:          0
cpu0_ITLB WRITE        ACCESS:          0 HIT:          0 MISS:          0
cpu0_ITLB TRANSLATION  ACCESS:          0 HIT:          0 MISS:          0
cpu0_ITLB PREFETCH REQUESTED:          0 ISSUED:          0 USEFUL:          0 USELESS:          0
cpu0_ITLB AVERAGE MISS LATENCY: -nan cycles
cpu0_L1D TOTAL        ACCESS:   27073688 HIT:   24297954 MISS:    2775734
cpu0_L1D LOAD         ACCESS:   14560261 HIT:   13074012 MISS:    1486249
cpu0_L1D RFO          ACCESS:          0 HIT:          0 MISS:          0
cpu0_L1D PREFETCH     ACCESS:    2310946 HIT:    1471007 MISS:     839939
cpu0_L1D WRITE        ACCESS:   10202476 HIT:    9752935 MISS:     449541
cpu0_L1D TRANSLATION  ACCESS:          5 HIT:          0 MISS:          5
cpu0_L1D PREFETCH REQUESTED:   23323006 ISSUED:    2310978 USEFUL:     210588 USELESS:      20128
cpu0_L1D AVERAGE MISS LATENCY: 8.829 cycles
cpu0_L1I TOTAL        ACCESS:      17804 HIT:      16481 MISS:       1323
cpu0_L1I LOAD         ACCESS:       8307 HIT:       7608 MISS:        699
cpu0_L1I RFO          ACCESS:          0 HIT:          0 MISS:          0
cpu0_L1I PREFETCH     ACCESS:       9497 HIT:       8873 MISS:        624
cpu0_L1I WRITE        ACCESS:          0 HIT:          0 MISS:          0
cpu0_L1I TRANSLATION  ACCESS:          0 HIT:          0 MISS:          0
cpu0_L1I PREFETCH REQUESTED:      12923 ISSUED:       9497 USEFUL:        449 USELESS:          6
cpu0_L1I AVERAGE MISS LATENCY: 114.2 cycles
cpu0_L2C TOTAL        ACCESS:    4196132 HIT:    3682575 MISS:     513557
cpu0_L2C LOAD         ACCESS:    1214559 HIT:    1161790 MISS:      52769
cpu0_L2C RFO          ACCESS:      87062 HIT:      36864 MISS:      50198
cpu0_L2C PREFETCH     ACCESS:    2628176 HIT:    2217593 MISS:     410583
cpu0_L2C WRITE        ACCESS:     266331 HIT:     266328 MISS:          3
cpu0_L2C TRANSLATION  ACCESS:          4 HIT:          0 MISS:          4
cpu0_L2C PREFETCH REQUESTED:    2003482 ISSUED:    1840613 USEFUL:     199487 USELESS:      20065
cpu0_L2C AVERAGE MISS LATENCY: 47.69 cycles
cpu0_STLB TOTAL        ACCESS:     380822 HIT:     380817 MISS:          5
cpu0_STLB LOAD         ACCESS:     380822 HIT:     380817 MISS:          5
cpu0_STLB RFO          ACCESS:          0 HIT:          0 MISS:          0
cpu0_STLB PREFETCH     ACCESS:          0 HIT:          0 MISS:          0
cpu0_STLB WRITE        ACCESS:          0 HIT:          0 MISS:          0
cpu0_STLB TRANSLATION  ACCESS:          0 HIT:          0 MISS:          0
cpu0_STLB PREFETCH REQUESTED:          0 ISSUED:          0 USEFUL:          0 USELESS:          0
cpu0_STLB AVERAGE MISS LATENCY: 447.4 cycles

DRAM Statistics

Channel 0 RQ ROW_BUFFER_HIT:      14720
  ROW_BUFFER_MISS:      27490
 AVG DBUS CONGESTED CYCLE: 3.88
WQ ROW_BUFFER_HIT: Channel 0 
  ROW_BUFFER_MISS:       8441
  FULL:      33043

Channel 1 RQ ROW_BUFFER_HIT:      14591
  ROW_BUFFER_MISS:      27379
 AVG DBUS CONGESTED CYCLE: 3.879
WQ ROW_BUFFER_HIT: Channel 1 
  ROW_BUFFER_MISS:       8716
  FULL:      32673
BERTI TO_L1: 22113158 TO_L2: 8462688 TO_L2_BC_MSHR: 364039
BERTI AVG_LAT: 31.9486 NUM_TRACK_LATENCY: 1907557 NUM_CANT_TRACK_LATENCY: 3
BERTI CROSS_PAGE 3949436 NO_CROSS_PAGE: 26626410
BERTI FOUND_BERTI: 12463382 NO_FOUND_BERTI: 6739547
BERTI AVERAGE_ISSUED: 1.78837
CPU 0 L1I Entangling prefetcher final stats
IP accesses: 31e4 c7900 98 / 8307
IP misses: 3c18 f0600 32 / 699
IP hits: 0 0 0 / 0
IP late: 30c7 c31c0 9 / 351
IP wrong: 15c 5700 6 / 6
miss rate: 0.084146
coverage: 0
coverage_late: 0.502146
accuracy: 0
accuracy_late: 0.983194
discarded: 0
evicts entangled j table: 0
evicts entangled k table: 11
max bb size: 32
formats: 9 0 18 4 8 5 0 
hist_lookups: 4 6 5 5 15 8 1 8 8 8 4 3 2 0 0 0 6 572 
hist_lookups_evict: 0.916031 %
hist_lookups_shortlat: 87.3283 %
bb_found_hist: 0 1411 460 263 235 54 143 4 28 3 0 10 0 6 0 0 0 0 0 0 0 0 0 0 0 0 0 0 0 0 0 0 3 0 0 0 0 0 0 0 0 0 0 0 0 0 0 0 0 0 0 0 0 0 0 0 0 0 0 0 0 0 0 0 
bb_found_summary: 5751 2620 2.19504
entangled_found_hist: 0 778 395 237 57 86 0 0 
entangled_found_summary: 2937 1553 1.89118
bb_ent_found_hist: 0 933 372 233 156 21 158 0 25 6 0 10 0 6 0 0 0 0 0 0 0 0 0 0 0 0 0 0 0 0 0 0 12 0 0 0 0 0 0 0 0 0 0 0 0 0 0 0 0 0 0 0 0 0 0 0 0 0 0 0 0 0 0 0 
bb_ent_found_summary: 4879 1932 2.52537
