WARNING: physical memory size is smaller than virtual memory size.

*** ChampSim Multicore Out-of-Order Simulator ***
Warmup Instructions: 30000000
Simulation Instructions: 100000000
Number of CPUs: 1
Page size: 4096

BTB:
Basic BTB sets: 1024 ways: 8
Indirect:
history lengths: 0 0 10 16 27 44 60 96 109 219 449 487 714 1313 2146 3881 
ITTAGE tables: 64768 bytes;Region table: 240 bytes;IUM: 384 bytes;Total Storage= 65392 bytes;
RAS:
RAS size: 64
Berti Prefetcher
CPU 0 Entangling prefetcher
Off-chip DRAM Size: 8 GiB Channels: 2 Width: 64-bit Data Race: 6400 MT/s
Heartbeat CPU 0 instructions: 10000002 cycles: 1812674 heartbeat IPC: 5.517 cumulative IPC: 5.517 (Simulation time: 00 hr 01 min 08 sec)
Heartbeat CPU 0 instructions: 20000005 cycles: 3672284 heartbeat IPC: 5.377 cumulative IPC: 5.446 (Simulation time: 00 hr 02 min 13 sec)
Heartbeat CPU 0 instructions: 30000009 cycles: 5513432 heartbeat IPC: 5.431 cumulative IPC: 5.441 (Simulation time: 00 hr 03 min 16 sec)
Warmup finished CPU 0 instructions: 30000009 cycles: 5513433 cumulative IPC: 5.441 (Simulation time: 00 hr 03 min 16 sec)
Warmup complete CPU 0 instructions: 30000009 cycles: 5513433 cumulative IPC: 5.441 (Simulation time: 00 hr 03 min 16 sec)
*** Reached end of trace: (0, "../traces/public_traces/compute_int/compute_int_2.champsimtrace.xz")
Heartbeat CPU 0 instructions: 40000000 cycles: 40067228 heartbeat IPC: 0.2894 cumulative IPC: 0.2894 (Simulation time: 00 hr 08 min 41 sec)
Heartbeat CPU 0 instructions: 50000011 cycles: 81367497 heartbeat IPC: 0.2421 cumulative IPC: 0.2637 (Simulation time: 00 hr 15 min 19 sec)
Heartbeat CPU 0 instructions: 60000009 cycles: 120302030 heartbeat IPC: 0.2568 cumulative IPC: 0.2614 (Simulation time: 00 hr 21 min 41 sec)
*** Reached end of trace: (0, "../traces/public_traces/compute_int/compute_int_2.champsimtrace.xz")
Heartbeat CPU 0 instructions: 70000001 cycles: 154728279 heartbeat IPC: 0.2905 cumulative IPC: 0.2681 (Simulation time: 00 hr 26 min 57 sec)
Heartbeat CPU 0 instructions: 80000005 cycles: 195730488 heartbeat IPC: 0.2439 cumulative IPC: 0.2629 (Simulation time: 00 hr 33 min 28 sec)
Heartbeat CPU 0 instructions: 90000000 cycles: 234893011 heartbeat IPC: 0.2553 cumulative IPC: 0.2616 (Simulation time: 00 hr 39 min 45 sec)
*** Reached end of trace: (0, "../traces/public_traces/compute_int/compute_int_2.champsimtrace.xz")
Heartbeat CPU 0 instructions: 100000000 cycles: 269351506 heartbeat IPC: 0.2902 cumulative IPC: 0.2653 (Simulation time: 00 hr 45 min 19 sec)
Heartbeat CPU 0 instructions: 110000001 cycles: 310035802 heartbeat IPC: 0.2458 cumulative IPC: 0.2627 (Simulation time: 00 hr 51 min 11 sec)
Heartbeat CPU 0 instructions: 120000000 cycles: 349343589 heartbeat IPC: 0.2544 cumulative IPC: 0.2618 (Simulation time: 00 hr 57 min 17 sec)
*** Reached end of trace: (0, "../traces/public_traces/compute_int/compute_int_2.champsimtrace.xz")
Heartbeat CPU 0 instructions: 130000006 cycles: 383781463 heartbeat IPC: 0.2904 cumulative IPC: 0.2644 (Simulation time: 01 hr 02 min 31 sec)
Simulation finished CPU 0 instructions: 100000001 cycles: 378268033 cumulative IPC: 0.2644 (Simulation time: 01 hr 02 min 31 sec)
Simulation complete CPU 0 instructions: 100000001 cycles: 378268033 cumulative IPC: 0.2644 (Simulation time: 01 hr 02 min 31 sec)

ChampSim completed all CPUs

=== Simulation ===
CPU 0 runs ../traces/public_traces/compute_int/compute_int_2.champsimtrace.xz
Region of Interest Statistics

CPU 0 cumulative IPC: 0.2644 instructions: 100000001 cycles: 378268033
CPU 0 Branch Prediction Accuracy: 94.08% MPKI: 12.31 Average ROB Occupancy at Mispredict: 69.49
Branch type MPKI
BRANCH_DIRECT_JUMP: 0
BRANCH_INDIRECT: 11.1
BRANCH_CONDITIONAL: 1.24
BRANCH_DIRECT_CALL: 0
BRANCH_INDIRECT_CALL: 0
BRANCH_RETURN: 0.00016

LLC TOTAL        ACCESS:   12196906 HIT:    3446965 MISS:    8749941
LLC LOAD         ACCESS:    4468767 HIT:     941231 MISS:    3527536
LLC RFO          ACCESS:     108436 HIT:      19018 MISS:      89418
LLC PREFETCH     ACCESS:    5197426 HIT:     837942 MISS:    4359484
LLC WRITE        ACCESS:    1678300 HIT:    1633900 MISS:      44400
LLC TRANSLATION  ACCESS:     743977 HIT:      14874 MISS:     729103
LLC PREFETCH REQUESTED:          0 ISSUED:          0 USEFUL:          0 USELESS:          0
LLC AVERAGE MISS LATENCY: 482.6 cycles
cpu0_DTLB TOTAL        ACCESS:   19533265 HIT:    9864220 MISS:    9669045
cpu0_DTLB LOAD         ACCESS:   19533265 HIT:    9864220 MISS:    9669045
cpu0_DTLB RFO          ACCESS:          0 HIT:          0 MISS:          0
cpu0_DTLB PREFETCH     ACCESS:          0 HIT:          0 MISS:          0
cpu0_DTLB WRITE        ACCESS:          0 HIT:          0 MISS:          0
cpu0_DTLB TRANSLATION  ACCESS:          0 HIT:          0 MISS:          0
cpu0_DTLB PREFETCH REQUESTED:          0 ISSUED:          0 USEFUL:          0 USELESS:          0
cpu0_DTLB AVERAGE MISS LATENCY: 47.23 cycles
cpu0_ITLB TOTAL        ACCESS:       9431 HIT:       9431 MISS:          0
cpu0_ITLB LOAD         ACCESS:       9431 HIT:       9431 MISS:          0
cpu0_ITLB RFO          ACCESS:          0 HIT:          0 MISS:          0
cpu0_ITLB PREFETCH     ACCESS:          0 HIT:          0 MISS:          0
cpu0_ITLB WRITE        ACCESS:          0 HIT:          0 MISS:          0
cpu0_ITLB TRANSLATION  ACCESS:          0 HIT:          0 MISS:          0
cpu0_ITLB PREFETCH REQUESTED:          0 ISSUED:          0 USEFUL:          0 USELESS:          0
cpu0_ITLB AVERAGE MISS LATENCY: -nan cycles
cpu0_L1D TOTAL        ACCESS:   24575977 HIT:    9739744 MISS:   14836233
cpu0_L1D LOAD         ACCESS:   19638322 HIT:    5969530 MISS:   13668792
cpu0_L1D RFO          ACCESS:          0 HIT:          0 MISS:          0
cpu0_L1D PREFETCH     ACCESS:       3697 HIT:        405 MISS:       3292
cpu0_L1D WRITE        ACCESS:    3754485 HIT:    3554459 MISS:     200026
cpu0_L1D TRANSLATION  ACCESS:    1179473 HIT:     215350 MISS:     964123
cpu0_L1D PREFETCH REQUESTED:      18659 ISSUED:       3697 USEFUL:          0 USELESS:          0
cpu0_L1D AVERAGE MISS LATENCY: 134 cycles
cpu0_L1I TOTAL        ACCESS:      13544 HIT:      13449 MISS:         95
cpu0_L1I LOAD         ACCESS:       6695 HIT:       6643 MISS:         52
cpu0_L1I RFO          ACCESS:          0 HIT:          0 MISS:          0
cpu0_L1I PREFETCH     ACCESS:       6849 HIT:       6806 MISS:         43
cpu0_L1I WRITE        ACCESS:          0 HIT:          0 MISS:          0
cpu0_L1I TRANSLATION  ACCESS:          0 HIT:          0 MISS:          0
cpu0_L1I PREFETCH REQUESTED:       8263 ISSUED:       6849 USEFUL:         32 USELESS:          0
cpu0_L1I AVERAGE MISS LATENCY: 184.9 cycles
cpu0_L2C TOTAL        ACCESS:   23155952 HIT:   11703598 MISS:   11452354
cpu0_L2C LOAD         ACCESS:    9999470 HIT:    5505167 MISS:    4494303
cpu0_L2C RFO          ACCESS:     179668 HIT:      71231 MISS:     108437
cpu0_L2C PREFETCH     ACCESS:    9800162 HIT:    3694546 MISS:    6105616
cpu0_L2C WRITE        ACCESS:    2223201 HIT:    2223184 MISS:         17
cpu0_L2C TRANSLATION  ACCESS:     953451 HIT:     209470 MISS:     743981
cpu0_L2C PREFETCH REQUESTED:   10060112 ISSUED:    9798486 USEFUL:    2268304 USELESS:    2923332
cpu0_L2C AVERAGE MISS LATENCY: 387.6 cycles
cpu0_STLB TOTAL        ACCESS:    7020943 HIT:    6223282 MISS:     797661
cpu0_STLB LOAD         ACCESS:    7020943 HIT:    6223282 MISS:     797661
cpu0_STLB RFO          ACCESS:          0 HIT:          0 MISS:          0
cpu0_STLB PREFETCH     ACCESS:          0 HIT:          0 MISS:          0
cpu0_STLB WRITE        ACCESS:          0 HIT:          0 MISS:          0
cpu0_STLB TRANSLATION  ACCESS:          0 HIT:          0 MISS:          0
cpu0_STLB PREFETCH REQUESTED:          0 ISSUED:          0 USEFUL:          0 USELESS:          0
cpu0_STLB AVERAGE MISS LATENCY: 518.9 cycles

DRAM Statistics

Channel 0 RQ ROW_BUFFER_HIT:     333117
  ROW_BUFFER_MISS:    4045040
 AVG DBUS CONGESTED CYCLE: 3.946
WQ ROW_BUFFER_HIT: Channel 0 
  ROW_BUFFER_MISS:      41970
  FULL:     767141

Channel 1 RQ ROW_BUFFER_HIT:     323552
  ROW_BUFFER_MISS:    4000452
 AVG DBUS CONGESTED CYCLE: 3.944
WQ ROW_BUFFER_HIT: Channel 1 
  ROW_BUFFER_MISS:      42402
  FULL:     763865
BERTI TO_L1: 0 TO_L2: 18990 TO_L2_BC_MSHR: 0
BERTI AVG_LAT: 183.312 NUM_TRACK_LATENCY: 12984221 NUM_CANT_TRACK_LATENCY: 336
BERTI CROSS_PAGE 8468 NO_CROSS_PAGE: 10522
BERTI FOUND_BERTI: 45918219 NO_FOUND_BERTI: 8293405
BERTI AVERAGE_ISSUED: 1.04501
CPU 0 L1I Entangling prefetcher final stats
IP accesses: 6a 1a80 118 / 6695
IP misses: 46a7 11a9c0 24 / 52
IP hits: 0 0 0 / 0
IP late: 46a7 11a9c0 8 / 19
IP wrong: 0 0 0 / 0
miss rate: 0.007767
coverage: 0
coverage_late: 0.365385
accuracy: 0
accuracy_late: 1
discarded: 0
evicts entangled j table: 0
evicts entangled k table: 0
max bb size: 11
formats: 0 0 1 0 0 0 0 
hist_lookups: 0 0 0 0 0 0 0 0 0 0 0 1 0 0 0 0 0 167 
hist_lookups_evict: 0 %
hist_lookups_shortlat: 99.4048 %
bb_found_hist: 0 1217 456 166 60 10 70 10 27 10 0 10 0 0 0 0 0 0 0 0 0 0 0 0 0 0 0 0 0 0 0 0 0 0 0 0 0 0 0 0 0 0 0 0 0 0 0 0 0 0 0 0 0 0 0 0 0 0 0 0 0 0 0 0 
bb_found_summary: 3823 2036 1.87771
entangled_found_hist: 0 536 249 160 30 0 0 0 
entangled_found_summary: 1634 975 1.6759
bb_ent_found_hist: 0 485 312 60 40 20 161 10 0 27 0 0 0 0 0 0 0 0 0 0 0 0 0 0 0 0 0 0 0 0 0 0 0 0 0 0 0 0 0 0 0 0 0 0 0 0 0 0 0 0 0 0 0 0 0 0 0 0 0 0 0 0 0 0 
bb_ent_found_summary: 2828 1115 2.53633
