WARNING: physical memory size is smaller than virtual memory size.

*** ChampSim Multicore Out-of-Order Simulator ***
Warmup Instructions: 30000000
Simulation Instructions: 100000000
Number of CPUs: 1
Page size: 4096

BTB:
Basic BTB sets: 1024 ways: 8
Indirect:
history lengths: 0 0 10 16 27 44 60 96 109 219 449 487 714 1313 2146 3881 
ITTAGE tables: 64768 bytes;Region table: 240 bytes;IUM: 384 bytes;Total Storage= 65392 bytes;
RAS:
RAS size: 64
Berti Prefetcher
CPU 0 Entangling prefetcher
Off-chip DRAM Size: 8 GiB Channels: 2 Width: 64-bit Data Race: 6400 MT/s
Heartbeat CPU 0 instructions: 10000008 cycles: 1667374 heartbeat IPC: 5.997 cumulative IPC: 5.997 (Simulation time: 00 hr 00 min 41 sec)
Heartbeat CPU 0 instructions: 20000001 cycles: 3334554 heartbeat IPC: 5.998 cumulative IPC: 5.998 (Simulation time: 00 hr 01 min 21 sec)
Heartbeat CPU 0 instructions: 30000008 cycles: 5001789 heartbeat IPC: 5.998 cumulative IPC: 5.998 (Simulation time: 00 hr 02 min 01 sec)
Warmup finished CPU 0 instructions: 30000008 cycles: 5001790 cumulative IPC: 5.998 (Simulation time: 00 hr 02 min 01 sec)
Warmup complete CPU 0 instructions: 30000008 cycles: 5001790 cumulative IPC: 5.998 (Simulation time: 00 hr 02 min 01 sec)
*** Reached end of trace: (0, "../traces/public_traces/compute_int/compute_int_46.champsimtrace.xz")
Heartbeat CPU 0 instructions: 40000000 cycles: 14524882 heartbeat IPC: 1.05 cumulative IPC: 1.05 (Simulation time: 00 hr 03 min 42 sec)
Heartbeat CPU 0 instructions: 50000010 cycles: 19787826 heartbeat IPC: 1.9 cumulative IPC: 1.353 (Simulation time: 00 hr 04 min 53 sec)
Heartbeat CPU 0 instructions: 60000001 cycles: 26373434 heartbeat IPC: 1.518 cumulative IPC: 1.404 (Simulation time: 00 hr 06 min 07 sec)
*** Reached end of trace: (0, "../traces/public_traces/compute_int/compute_int_46.champsimtrace.xz")
Heartbeat CPU 0 instructions: 70000001 cycles: 35770534 heartbeat IPC: 1.064 cumulative IPC: 1.3 (Simulation time: 00 hr 07 min 33 sec)
Heartbeat CPU 0 instructions: 80000005 cycles: 40951894 heartbeat IPC: 1.93 cumulative IPC: 1.391 (Simulation time: 00 hr 08 min 36 sec)
Heartbeat CPU 0 instructions: 90000004 cycles: 47643346 heartbeat IPC: 1.494 cumulative IPC: 1.407 (Simulation time: 00 hr 09 min 54 sec)
*** Reached end of trace: (0, "../traces/public_traces/compute_int/compute_int_46.champsimtrace.xz")
Heartbeat CPU 0 instructions: 100000005 cycles: 56978497 heartbeat IPC: 1.071 cumulative IPC: 1.347 (Simulation time: 00 hr 11 min 48 sec)
Heartbeat CPU 0 instructions: 110000000 cycles: 62144839 heartbeat IPC: 1.936 cumulative IPC: 1.4 (Simulation time: 00 hr 13 min 08 sec)
Heartbeat CPU 0 instructions: 120000001 cycles: 68855187 heartbeat IPC: 1.49 cumulative IPC: 1.409 (Simulation time: 00 hr 14 min 24 sec)
*** Reached end of trace: (0, "../traces/public_traces/compute_int/compute_int_46.champsimtrace.xz")
Heartbeat CPU 0 instructions: 130000002 cycles: 78016338 heartbeat IPC: 1.092 cumulative IPC: 1.37 (Simulation time: 00 hr 15 min 47 sec)
Simulation finished CPU 0 instructions: 100000000 cycles: 73014561 cumulative IPC: 1.37 (Simulation time: 00 hr 15 min 47 sec)
Simulation complete CPU 0 instructions: 100000000 cycles: 73014561 cumulative IPC: 1.37 (Simulation time: 00 hr 15 min 47 sec)

ChampSim completed all CPUs

=== Simulation ===
CPU 0 runs ../traces/public_traces/compute_int/compute_int_46.champsimtrace.xz
Region of Interest Statistics

CPU 0 cumulative IPC: 1.37 instructions: 100000000 cycles: 73014561
CPU 0 Branch Prediction Accuracy: 95.66% MPKI: 7.323 Average ROB Occupancy at Mispredict: 34.22
Branch type MPKI
BRANCH_DIRECT_JUMP: 0
BRANCH_INDIRECT: 0.563
BRANCH_CONDITIONAL: 6.76
BRANCH_DIRECT_CALL: 0
BRANCH_INDIRECT_CALL: 0.00012
BRANCH_RETURN: 0

LLC TOTAL        ACCESS:    1018133 HIT:     317981 MISS:     700152
LLC LOAD         ACCESS:     290035 HIT:      43086 MISS:     246949
LLC RFO          ACCESS:      19988 HIT:       6513 MISS:      13475
LLC PREFETCH     ACCESS:     309788 HIT:      48738 MISS:     261050
LLC WRITE        ACCESS:     214607 HIT:     207905 MISS:       6702
LLC TRANSLATION  ACCESS:     183715 HIT:      11739 MISS:     171976
LLC PREFETCH REQUESTED:          0 ISSUED:          0 USEFUL:          0 USELESS:          0
LLC AVERAGE MISS LATENCY: 177.6 cycles
cpu0_DTLB TOTAL        ACCESS:   16588447 HIT:   15980491 MISS:     607956
cpu0_DTLB LOAD         ACCESS:   16588447 HIT:   15980491 MISS:     607956
cpu0_DTLB RFO          ACCESS:          0 HIT:          0 MISS:          0
cpu0_DTLB PREFETCH     ACCESS:          0 HIT:          0 MISS:          0
cpu0_DTLB WRITE        ACCESS:          0 HIT:          0 MISS:          0
cpu0_DTLB TRANSLATION  ACCESS:          0 HIT:          0 MISS:          0
cpu0_DTLB PREFETCH REQUESTED:          0 ISSUED:          0 USEFUL:          0 USELESS:          0
cpu0_DTLB AVERAGE MISS LATENCY: 67.69 cycles
cpu0_ITLB TOTAL        ACCESS:     938025 HIT:     938025 MISS:          0
cpu0_ITLB LOAD         ACCESS:     938025 HIT:     938025 MISS:          0
cpu0_ITLB RFO          ACCESS:          0 HIT:          0 MISS:          0
cpu0_ITLB PREFETCH     ACCESS:          0 HIT:          0 MISS:          0
cpu0_ITLB WRITE        ACCESS:          0 HIT:          0 MISS:          0
cpu0_ITLB TRANSLATION  ACCESS:          0 HIT:          0 MISS:          0
cpu0_ITLB PREFETCH REQUESTED:          0 ISSUED:          0 USEFUL:          0 USELESS:          0
cpu0_ITLB AVERAGE MISS LATENCY: -nan cycles
cpu0_L1D TOTAL        ACCESS:   23274812 HIT:   21959529 MISS:    1315283
cpu0_L1D LOAD         ACCESS:   19274925 HIT:   18368481 MISS:     906444
cpu0_L1D RFO          ACCESS:          0 HIT:          0 MISS:          0
cpu0_L1D PREFETCH     ACCESS:     346055 HIT:     268632 MISS:      77423
cpu0_L1D WRITE        ACCESS:    3357094 HIT:    3266186 MISS:      90908
cpu0_L1D TRANSLATION  ACCESS:     296738 HIT:      56230 MISS:     240508
cpu0_L1D PREFETCH REQUESTED:     477346 ISSUED:     346055 USEFUL:       2734 USELESS:       1157
cpu0_L1D AVERAGE MISS LATENCY: 71.88 cycles
cpu0_L1I TOTAL        ACCESS:    1544691 HIT:    1540441 MISS:       4250
cpu0_L1I LOAD         ACCESS:     307023 HIT:     305309 MISS:       1714
cpu0_L1I RFO          ACCESS:          0 HIT:          0 MISS:          0
cpu0_L1I PREFETCH     ACCESS:    1237668 HIT:    1235132 MISS:       2536
cpu0_L1I WRITE        ACCESS:          0 HIT:          0 MISS:          0
cpu0_L1I TRANSLATION  ACCESS:          0 HIT:          0 MISS:          0
cpu0_L1I PREFETCH REQUESTED:    1739078 ISSUED:    1237668 USEFUL:       2032 USELESS:         43
cpu0_L1I AVERAGE MISS LATENCY: 121.8 cycles
cpu0_L2C TOTAL        ACCESS:    1868400 HIT:    1048593 MISS:     819807
cpu0_L2C LOAD         ACCESS:     534159 HIT:     243202 MISS:     290957
cpu0_L2C RFO          ACCESS:      61132 HIT:      41121 MISS:      20011
cpu0_L2C PREFETCH     ACCESS:     672655 HIT:     347678 MISS:     324977
cpu0_L2C WRITE        ACCESS:     360369 HIT:     360226 MISS:        143
cpu0_L2C TRANSLATION  ACCESS:     240085 HIT:      56366 MISS:     183719
cpu0_L2C PREFETCH REQUESTED:     606690 ISSUED:     600279 USEFUL:      32500 USELESS:     269484
cpu0_L2C AVERAGE MISS LATENCY: 172.1 cycles
cpu0_STLB TOTAL        ACCESS:     405505 HIT:     204855 MISS:     200650
cpu0_STLB LOAD         ACCESS:     405505 HIT:     204855 MISS:     200650
cpu0_STLB RFO          ACCESS:          0 HIT:          0 MISS:          0
cpu0_STLB PREFETCH     ACCESS:          0 HIT:          0 MISS:          0
cpu0_STLB WRITE        ACCESS:          0 HIT:          0 MISS:          0
cpu0_STLB TRANSLATION  ACCESS:          0 HIT:          0 MISS:          0
cpu0_STLB PREFETCH REQUESTED:          0 ISSUED:          0 USEFUL:          0 USELESS:          0
cpu0_STLB AVERAGE MISS LATENCY: 190.6 cycles

DRAM Statistics

Channel 0 RQ ROW_BUFFER_HIT:      40954
  ROW_BUFFER_MISS:     305917
 AVG DBUS CONGESTED CYCLE: 3.778
WQ ROW_BUFFER_HIT: Channel 0 
  ROW_BUFFER_MISS:      28445
  FULL:      63215

Channel 1 RQ ROW_BUFFER_HIT:      40828
  ROW_BUFFER_MISS:     305741
 AVG DBUS CONGESTED CYCLE: 3.778
WQ ROW_BUFFER_HIT: Channel 1 
  ROW_BUFFER_MISS:      28767
  FULL:      63194
BERTI TO_L1: 348976 TO_L2: 261906 TO_L2_BC_MSHR: 667
BERTI AVG_LAT: 83.7836 NUM_TRACK_LATENCY: 693429 NUM_CANT_TRACK_LATENCY: 0
BERTI CROSS_PAGE 83167 NO_CROSS_PAGE: 527715
BERTI FOUND_BERTI: 8056573 NO_FOUND_BERTI: 16964801
BERTI AVERAGE_ISSUED: 2.72976
CPU 0 L1I Entangling prefetcher final stats
IP accesses: 2e0 b800 26739 / 307893
IP misses: 5626 158980 143 / 2584
IP hits: 0 0 0 / 0
IP late: 2ae ab80 7 / 823
IP wrong: 80 2000 9 / 42
miss rate: 0.00839253
coverage: 0
coverage_late: 0.318499
accuracy: 0
accuracy_late: 0.951446
discarded: 0
evicts entangled j table: 0
evicts entangled k table: 37
max bb size: 22
formats: 24 0 42 28 12 24 0 
hist_lookups: 32 42 16 30 26 23 18 31 27 22 17 17 11 4 1 0 0 658 
hist_lookups_evict: 0 %
hist_lookups_shortlat: 67.4872 %
bb_found_hist: 0 21235 38069 27848 24138 5688 23703 5807 20533 15665 335 4444 1551 1106 372 188 0 0 0 0 5891 0 5468 0 0 0 0 0 0 0 0 0 0 0 0 0 0 0 0 0 0 0 0 0 0 0 0 0 0 0 0 0 0 0 0 0 0 0 0 0 0 0 0 0 
bb_found_summary: 1125393 202041 5.57013
entangled_found_hist: 0 39069 24499 1725 5127 1559 0 0 
entangled_found_summary: 121545 71979 1.68862
bb_ent_found_hist: 0 20160 33193 4172 3309 6423 20556 9545 961 227 33 2123 707 5591 864 0 0 0 0 0 0 0 1633 0 0 0 0 0 0 0 0 0 0 0 0 0 0 0 0 0 0 0 0 0 0 0 0 0 0 0 0 0 0 0 0 0 0 0 0 0 0 0 0 0 
bb_ent_found_summary: 497167 109497 4.54047
