WARNING: physical memory size is smaller than virtual memory size.

*** ChampSim Multicore Out-of-Order Simulator ***
Warmup Instructions: 30000000
Simulation Instructions: 100000000
Number of CPUs: 1
Page size: 4096

BTB:
Basic BTB sets: 1024 ways: 8
Indirect:
history lengths: 0 0 10 16 27 44 60 96 109 219 449 487 714 1313 2146 3881 
ITTAGE tables: 64768 bytes;Region table: 240 bytes;IUM: 384 bytes;Total Storage= 65392 bytes;
RAS:
RAS size: 64
Berti Prefetcher
CPU 0 Entangling prefetcher
Off-chip DRAM Size: 8 GiB Channels: 2 Width: 64-bit Data Race: 6400 MT/s
Heartbeat CPU 0 instructions: 10000000 cycles: 1770763 heartbeat IPC: 5.647 cumulative IPC: 5.647 (Simulation time: 00 hr 00 min 42 sec)
Heartbeat CPU 0 instructions: 20000000 cycles: 3605209 heartbeat IPC: 5.451 cumulative IPC: 5.548 (Simulation time: 00 hr 01 min 28 sec)
Heartbeat CPU 0 instructions: 30000003 cycles: 5822936 heartbeat IPC: 4.509 cumulative IPC: 5.152 (Simulation time: 00 hr 02 min 18 sec)
Warmup finished CPU 0 instructions: 30000003 cycles: 5822937 cumulative IPC: 5.152 (Simulation time: 00 hr 02 min 18 sec)
Warmup complete CPU 0 instructions: 30000003 cycles: 5822937 cumulative IPC: 5.152 (Simulation time: 00 hr 02 min 18 sec)
*** Reached end of trace: (0, "../traces/public_traces/compute_int/compute_int_27.champsimtrace.xz")
Heartbeat CPU 0 instructions: 40000001 cycles: 12523291 heartbeat IPC: 1.492 cumulative IPC: 1.492 (Simulation time: 00 hr 04 min 05 sec)
Heartbeat CPU 0 instructions: 50000002 cycles: 21971598 heartbeat IPC: 1.058 cumulative IPC: 1.238 (Simulation time: 00 hr 06 min 33 sec)
Heartbeat CPU 0 instructions: 60000010 cycles: 30973333 heartbeat IPC: 1.111 cumulative IPC: 1.193 (Simulation time: 00 hr 09 min 24 sec)
*** Reached end of trace: (0, "../traces/public_traces/compute_int/compute_int_27.champsimtrace.xz")
Heartbeat CPU 0 instructions: 70000000 cycles: 37604050 heartbeat IPC: 1.508 cumulative IPC: 1.259 (Simulation time: 00 hr 11 min 24 sec)
Heartbeat CPU 0 instructions: 80000008 cycles: 46795153 heartbeat IPC: 1.088 cumulative IPC: 1.22 (Simulation time: 00 hr 13 min 41 sec)
Heartbeat CPU 0 instructions: 90000005 cycles: 56059580 heartbeat IPC: 1.079 cumulative IPC: 1.194 (Simulation time: 00 hr 16 min 17 sec)
*** Reached end of trace: (0, "../traces/public_traces/compute_int/compute_int_27.champsimtrace.xz")
Heartbeat CPU 0 instructions: 100000006 cycles: 62664418 heartbeat IPC: 1.514 cumulative IPC: 1.231 (Simulation time: 00 hr 18 min 27 sec)
Heartbeat CPU 0 instructions: 110000008 cycles: 71951032 heartbeat IPC: 1.077 cumulative IPC: 1.21 (Simulation time: 00 hr 20 min 43 sec)
Heartbeat CPU 0 instructions: 120000010 cycles: 81140171 heartbeat IPC: 1.088 cumulative IPC: 1.195 (Simulation time: 00 hr 23 min 30 sec)
*** Reached end of trace: (0, "../traces/public_traces/compute_int/compute_int_27.champsimtrace.xz")
Heartbeat CPU 0 instructions: 130000003 cycles: 87700199 heartbeat IPC: 1.524 cumulative IPC: 1.221 (Simulation time: 00 hr 25 min 37 sec)
Simulation finished CPU 0 instructions: 100000000 cycles: 81877263 cumulative IPC: 1.221 (Simulation time: 00 hr 25 min 37 sec)
Simulation complete CPU 0 instructions: 100000000 cycles: 81877263 cumulative IPC: 1.221 (Simulation time: 00 hr 25 min 37 sec)

ChampSim completed all CPUs

=== Simulation ===
CPU 0 runs ../traces/public_traces/compute_int/compute_int_27.champsimtrace.xz
Region of Interest Statistics

CPU 0 cumulative IPC: 1.221 instructions: 100000000 cycles: 81877263
CPU 0 Branch Prediction Accuracy: 99.43% MPKI: 1.439 Average ROB Occupancy at Mispredict: 275.8
Branch type MPKI
BRANCH_DIRECT_JUMP: 0
BRANCH_INDIRECT: 0.337
BRANCH_CONDITIONAL: 1.1
BRANCH_DIRECT_CALL: 0
BRANCH_INDIRECT_CALL: 1e-05
BRANCH_RETURN: 0.0001

LLC TOTAL        ACCESS:    3934602 HIT:     780684 MISS:    3153918
LLC LOAD         ACCESS:    1597543 HIT:      31866 MISS:    1565677
LLC RFO          ACCESS:      14512 HIT:        230 MISS:      14282
LLC PREFETCH     ACCESS:    1499901 HIT:      24847 MISS:    1475054
LLC WRITE        ACCESS:     723154 HIT:     722383 MISS:        771
LLC TRANSLATION  ACCESS:      99492 HIT:       1358 MISS:      98134
LLC PREFETCH REQUESTED:          0 ISSUED:          0 USEFUL:          0 USELESS:          0
LLC AVERAGE MISS LATENCY: 228 cycles
cpu0_DTLB TOTAL        ACCESS:   17022231 HIT:   16289518 MISS:     732713
cpu0_DTLB LOAD         ACCESS:   17022231 HIT:   16289518 MISS:     732713
cpu0_DTLB RFO          ACCESS:          0 HIT:          0 MISS:          0
cpu0_DTLB PREFETCH     ACCESS:          0 HIT:          0 MISS:          0
cpu0_DTLB WRITE        ACCESS:          0 HIT:          0 MISS:          0
cpu0_DTLB TRANSLATION  ACCESS:          0 HIT:          0 MISS:          0
cpu0_DTLB PREFETCH REQUESTED:          0 ISSUED:          0 USEFUL:          0 USELESS:          0
cpu0_DTLB AVERAGE MISS LATENCY: 61.66 cycles
cpu0_ITLB TOTAL        ACCESS:       3470 HIT:       3470 MISS:          0
cpu0_ITLB LOAD         ACCESS:       3470 HIT:       3470 MISS:          0
cpu0_ITLB RFO          ACCESS:          0 HIT:          0 MISS:          0
cpu0_ITLB PREFETCH     ACCESS:          0 HIT:          0 MISS:          0
cpu0_ITLB WRITE        ACCESS:          0 HIT:          0 MISS:          0
cpu0_ITLB TRANSLATION  ACCESS:          0 HIT:          0 MISS:          0
cpu0_ITLB PREFETCH REQUESTED:          0 ISSUED:          0 USEFUL:          0 USELESS:          0
cpu0_ITLB AVERAGE MISS LATENCY: -nan cycles
cpu0_L1D TOTAL        ACCESS:   27574448 HIT:   20728781 MISS:    6845667
cpu0_L1D LOAD         ACCESS:   12227789 HIT:    8972401 MISS:    3255388
cpu0_L1D RFO          ACCESS:          0 HIT:          0 MISS:          0
cpu0_L1D PREFETCH     ACCESS:    6620684 HIT:    3240041 MISS:    3380643
cpu0_L1D WRITE        ACCESS:    8456953 HIT:    8382590 MISS:      74363
cpu0_L1D TRANSLATION  ACCESS:     269022 HIT:     133749 MISS:     135273
cpu0_L1D PREFETCH REQUESTED:   63302660 ISSUED:    6620654 USEFUL:     303443 USELESS:      74638
cpu0_L1D AVERAGE MISS LATENCY: 70.07 cycles
cpu0_L1I TOTAL        ACCESS:       5035 HIT:       4704 MISS:        331
cpu0_L1I LOAD         ACCESS:       2379 HIT:       2201 MISS:        178
cpu0_L1I RFO          ACCESS:          0 HIT:          0 MISS:          0
cpu0_L1I PREFETCH     ACCESS:       2656 HIT:       2503 MISS:        153
cpu0_L1I WRITE        ACCESS:          0 HIT:          0 MISS:          0
cpu0_L1I TRANSLATION  ACCESS:          0 HIT:          0 MISS:          0
cpu0_L1I PREFETCH REQUESTED:       3058 ISSUED:       2656 USEFUL:        115 USELESS:          0
cpu0_L1I AVERAGE MISS LATENCY: 175.8 cycles
cpu0_L2C TOTAL        ACCESS:   10911510 HIT:    4431358 MISS:    6480152
cpu0_L2C LOAD         ACCESS:    2093177 HIT:     166404 MISS:    1926773
cpu0_L2C RFO          ACCESS:      47040 HIT:      30703 MISS:      16337
cpu0_L2C PREFETCH     ACCESS:    7883077 HIT:    3445564 MISS:    4437513
cpu0_L2C WRITE        ACCESS:     757561 HIT:     757524 MISS:         37
cpu0_L2C TRANSLATION  ACCESS:     130655 HIT:      31163 MISS:      99492
cpu0_L2C PREFETCH REQUESTED:    4988768 ISSUED:    4987570 USEFUL:     634302 USELESS:     544020
cpu0_L2C AVERAGE MISS LATENCY: 118.4 cycles
cpu0_STLB TOTAL        ACCESS:     277643 HIT:      12384 MISS:     265259
cpu0_STLB LOAD         ACCESS:     277643 HIT:      12384 MISS:     265259
cpu0_STLB RFO          ACCESS:          0 HIT:          0 MISS:          0
cpu0_STLB PREFETCH     ACCESS:          0 HIT:          0 MISS:          0
cpu0_STLB WRITE        ACCESS:          0 HIT:          0 MISS:          0
cpu0_STLB TRANSLATION  ACCESS:          0 HIT:          0 MISS:          0
cpu0_STLB PREFETCH REQUESTED:          0 ISSUED:          0 USEFUL:          0 USELESS:          0
cpu0_STLB AVERAGE MISS LATENCY: 184.9 cycles

DRAM Statistics

Channel 0 RQ ROW_BUFFER_HIT:     806270
  ROW_BUFFER_MISS:     778276
 AVG DBUS CONGESTED CYCLE: 3.933
WQ ROW_BUFFER_HIT: Channel 0 
  ROW_BUFFER_MISS:       5224
  FULL:     339344

Channel 1 RQ ROW_BUFFER_HIT:     796668
  ROW_BUFFER_MISS:     771808
 AVG DBUS CONGESTED CYCLE: 3.923
WQ ROW_BUFFER_HIT: Channel 1 
  ROW_BUFFER_MISS:       5669
  FULL:     339130
BERTI TO_L1: 4025841 TO_L2: 63152578 TO_L2_BC_MSHR: 16962266
BERTI AVG_LAT: 155.721 NUM_TRACK_LATENCY: 3256929 NUM_CANT_TRACK_LATENCY: 1
BERTI CROSS_PAGE 7044596 NO_CROSS_PAGE: 60133823
BERTI FOUND_BERTI: 20131006 NO_FOUND_BERTI: 9931204
BERTI AVERAGE_ISSUED: 4.99457
CPU 0 L1I Entangling prefetcher final stats
IP accesses: 4119 104640 34 / 2379
IP misses: 3f12 fc480 13 / 178
IP hits: 0 0 0 / 0
IP late: 162e 58b80 3 / 82
IP wrong: 0 0 0 / 0
miss rate: 0.0748214
coverage: 0
coverage_late: 0.460675
accuracy: 0
accuracy_late: 1
discarded: 0
evicts entangled j table: 0
evicts entangled k table: 1
max bb size: 9
formats: 0 0 4 1 1 4 0 
hist_lookups: 2 0 2 1 1 0 1 0 1 2 3 1 0 0 0 0 0 202 
hist_lookups_evict: 0 %
hist_lookups_shortlat: 93.5186 %
bb_found_hist: 0 453 210 71 27 32 3 3 0 3 0 0 0 0 0 0 0 0 0 0 0 0 0 0 0 0 0 0 0 0 0 0 0 0 0 0 0 0 0 0 0 0 0 0 0 0 0 0 0 0 0 0 0 0 0 0 0 0 0 0 0 0 0 0 
bb_found_summary: 1420 802 1.77058
entangled_found_hist: 0 118 63 145 22 2 0 0 
entangled_found_summary: 777 350 2.22001
bb_ent_found_hist: 0 287 104 107 8 14 0 6 0 6 0 0 0 0 0 0 0 0 0 0 0 0 0 0 0 0 0 0 0 0 0 0 0 0 0 0 0 0 0 0 0 0 0 0 0 0 0 0 0 0 0 0 0 0 0 0 0 0 0 0 0 0 0 0 
bb_ent_found_summary: 1014 532 1.90602
