WARNING: physical memory size is smaller than virtual memory size.

*** ChampSim Multicore Out-of-Order Simulator ***
Warmup Instructions: 30000000
Simulation Instructions: 100000000
Number of CPUs: 1
Page size: 4096

BTB:
Basic BTB sets: 1024 ways: 8
Indirect:
history lengths: 0 0 10 16 27 44 60 96 109 219 449 487 714 1313 2146 3881 
ITTAGE tables: 64768 bytes;Region table: 240 bytes;IUM: 384 bytes;Total Storage= 65392 bytes;
RAS:
RAS size: 64
Berti Prefetcher
CPU 0 Entangling prefetcher
Off-chip DRAM Size: 8 GiB Channels: 2 Width: 64-bit Data Race: 6400 MT/s
Heartbeat CPU 0 instructions: 10000010 cycles: 1666863 heartbeat IPC: 5.999 cumulative IPC: 5.999 (Simulation time: 00 hr 00 min 40 sec)
Heartbeat CPU 0 instructions: 20000000 cycles: 3333528 heartbeat IPC: 6 cumulative IPC: 6 (Simulation time: 00 hr 01 min 21 sec)
Heartbeat CPU 0 instructions: 30000004 cycles: 5000194 heartbeat IPC: 6 cumulative IPC: 6 (Simulation time: 00 hr 01 min 58 sec)
Warmup finished CPU 0 instructions: 30000004 cycles: 5000195 cumulative IPC: 6 (Simulation time: 00 hr 01 min 58 sec)
Warmup complete CPU 0 instructions: 30000004 cycles: 5000195 cumulative IPC: 6 (Simulation time: 00 hr 01 min 58 sec)
*** Reached end of trace: (0, "../traces/public_traces/compute_int/compute_int_8.champsimtrace.xz")
Heartbeat CPU 0 instructions: 40000008 cycles: 6995615 heartbeat IPC: 5.011 cumulative IPC: 5.011 (Simulation time: 00 hr 02 min 51 sec)
Heartbeat CPU 0 instructions: 50000002 cycles: 8932730 heartbeat IPC: 5.162 cumulative IPC: 5.086 (Simulation time: 00 hr 03 min 48 sec)
Heartbeat CPU 0 instructions: 60000003 cycles: 10862121 heartbeat IPC: 5.183 cumulative IPC: 5.118 (Simulation time: 00 hr 04 min 49 sec)
*** Reached end of trace: (0, "../traces/public_traces/compute_int/compute_int_8.champsimtrace.xz")
Heartbeat CPU 0 instructions: 70000000 cycles: 12838664 heartbeat IPC: 5.059 cumulative IPC: 5.103 (Simulation time: 00 hr 05 min 56 sec)
Heartbeat CPU 0 instructions: 80000000 cycles: 14793166 heartbeat IPC: 5.116 cumulative IPC: 5.106 (Simulation time: 00 hr 06 min 58 sec)
Heartbeat CPU 0 instructions: 90000009 cycles: 16709616 heartbeat IPC: 5.218 cumulative IPC: 5.124 (Simulation time: 00 hr 07 min 55 sec)
*** Reached end of trace: (0, "../traces/public_traces/compute_int/compute_int_8.champsimtrace.xz")
Heartbeat CPU 0 instructions: 100000010 cycles: 18682003 heartbeat IPC: 5.07 cumulative IPC: 5.116 (Simulation time: 00 hr 08 min 54 sec)
Heartbeat CPU 0 instructions: 110000004 cycles: 20598467 heartbeat IPC: 5.218 cumulative IPC: 5.129 (Simulation time: 00 hr 09 min 52 sec)
Heartbeat CPU 0 instructions: 120000003 cycles: 22470742 heartbeat IPC: 5.341 cumulative IPC: 5.152 (Simulation time: 00 hr 10 min 48 sec)
*** Reached end of trace: (0, "../traces/public_traces/compute_int/compute_int_8.champsimtrace.xz")
Heartbeat CPU 0 instructions: 130000010 cycles: 24431492 heartbeat IPC: 5.1 cumulative IPC: 5.146 (Simulation time: 00 hr 11 min 47 sec)
Simulation finished CPU 0 instructions: 100000006 cycles: 19431298 cumulative IPC: 5.146 (Simulation time: 00 hr 11 min 47 sec)
Simulation complete CPU 0 instructions: 100000006 cycles: 19431298 cumulative IPC: 5.146 (Simulation time: 00 hr 11 min 47 sec)

ChampSim completed all CPUs

=== Simulation ===
CPU 0 runs ../traces/public_traces/compute_int/compute_int_8.champsimtrace.xz
Region of Interest Statistics

CPU 0 cumulative IPC: 5.146 instructions: 100000006 cycles: 19431298
CPU 0 Branch Prediction Accuracy: 100% MPKI: 7e-05 Average ROB Occupancy at Mispredict: 314.9
Branch type MPKI
BRANCH_DIRECT_JUMP: 0
BRANCH_INDIRECT: 0
BRANCH_CONDITIONAL: 7e-05
BRANCH_DIRECT_CALL: 0
BRANCH_INDIRECT_CALL: 0
BRANCH_RETURN: 0

LLC TOTAL        ACCESS:     592766 HIT:     294172 MISS:     298594
LLC LOAD         ACCESS:       1509 HIT:       1290 MISS:        219
LLC RFO          ACCESS:     244225 HIT:        206 MISS:     244019
LLC PREFETCH     ACCESS:      56065 HIT:       1715 MISS:      54350
LLC WRITE        ACCESS:     290965 HIT:     290961 MISS:          4
LLC TRANSLATION  ACCESS:          2 HIT:          0 MISS:          2
LLC PREFETCH REQUESTED:          0 ISSUED:          0 USEFUL:          0 USELESS:          0
LLC AVERAGE MISS LATENCY: 845.3 cycles
cpu0_DTLB TOTAL        ACCESS:   16101623 HIT:   16092801 MISS:       8822
cpu0_DTLB LOAD         ACCESS:   16101623 HIT:   16092801 MISS:       8822
cpu0_DTLB RFO          ACCESS:          0 HIT:          0 MISS:          0
cpu0_DTLB PREFETCH     ACCESS:          0 HIT:          0 MISS:          0
cpu0_DTLB WRITE        ACCESS:          0 HIT:          0 MISS:          0
cpu0_DTLB TRANSLATION  ACCESS:          0 HIT:          0 MISS:          0
cpu0_DTLB PREFETCH REQUESTED:          0 ISSUED:          0 USEFUL:          0 USELESS:          0
cpu0_DTLB AVERAGE MISS LATENCY: 3.112 cycles
cpu0_ITLB TOTAL        ACCESS:       8019 HIT:       8019 MISS:          0
cpu0_ITLB LOAD         ACCESS:       8019 HIT:       8019 MISS:          0
cpu0_ITLB RFO          ACCESS:          0 HIT:          0 MISS:          0
cpu0_ITLB PREFETCH     ACCESS:          0 HIT:          0 MISS:          0
cpu0_ITLB WRITE        ACCESS:          0 HIT:          0 MISS:          0
cpu0_ITLB TRANSLATION  ACCESS:          0 HIT:          0 MISS:          0
cpu0_ITLB PREFETCH REQUESTED:          0 ISSUED:          0 USEFUL:          0 USELESS:          0
cpu0_ITLB AVERAGE MISS LATENCY: -nan cycles
cpu0_L1D TOTAL        ACCESS:   27591015 HIT:   17478031 MISS:   10112984
cpu0_L1D LOAD         ACCESS:   14539072 HIT:   14372132 MISS:     166940
cpu0_L1D RFO          ACCESS:          0 HIT:          0 MISS:          0
cpu0_L1D PREFETCH     ACCESS:     382335 HIT:     208010 MISS:     174325
cpu0_L1D WRITE        ACCESS:   12669603 HIT:    2897886 MISS:    9771717
cpu0_L1D TRANSLATION  ACCESS:          5 HIT:          3 MISS:          2
cpu0_L1D PREFETCH REQUESTED:   29418932 ISSUED:     382335 USEFUL:      15418 USELESS:       2288
cpu0_L1D AVERAGE MISS LATENCY: 16.84 cycles
cpu0_L1I TOTAL        ACCESS:      11583 HIT:      11583 MISS:          0
cpu0_L1I LOAD         ACCESS:       6819 HIT:       6819 MISS:          0
cpu0_L1I RFO          ACCESS:          0 HIT:          0 MISS:          0
cpu0_L1I PREFETCH     ACCESS:       4764 HIT:       4764 MISS:          0
cpu0_L1I WRITE        ACCESS:          0 HIT:          0 MISS:          0
cpu0_L1I TRANSLATION  ACCESS:          0 HIT:          0 MISS:          0
cpu0_L1I PREFETCH REQUESTED:       7584 ISSUED:       4764 USEFUL:          0 USELESS:          0
cpu0_L1I AVERAGE MISS LATENCY: -nan cycles
cpu0_L2C TOTAL        ACCESS:    1122899 HIT:     753431 MISS:     369468
cpu0_L2C LOAD         ACCESS:     128875 HIT:     127161 MISS:       1714
cpu0_L2C RFO          ACCESS:     291435 HIT:      46084 MISS:     245351
cpu0_L2C PREFETCH     ACCESS:     412044 HIT:     289643 MISS:     122401
cpu0_L2C WRITE        ACCESS:     290543 HIT:     290543 MISS:          0
cpu0_L2C TRANSLATION  ACCESS:          2 HIT:          0 MISS:          2
cpu0_L2C PREFETCH REQUESTED:     270518 ISSUED:     270401 USEFUL:      18286 USELESS:       1638
cpu0_L2C AVERAGE MISS LATENCY: 697 cycles
cpu0_STLB TOTAL        ACCESS:       5294 HIT:       5289 MISS:          5
cpu0_STLB LOAD         ACCESS:       5294 HIT:       5289 MISS:          5
cpu0_STLB RFO          ACCESS:          0 HIT:          0 MISS:          0
cpu0_STLB PREFETCH     ACCESS:          0 HIT:          0 MISS:          0
cpu0_STLB WRITE        ACCESS:          0 HIT:          0 MISS:          0
cpu0_STLB TRANSLATION  ACCESS:          0 HIT:          0 MISS:          0
cpu0_STLB PREFETCH REQUESTED:          0 ISSUED:          0 USEFUL:          0 USELESS:          0
cpu0_STLB AVERAGE MISS LATENCY: 477.8 cycles

DRAM Statistics

Channel 0 RQ ROW_BUFFER_HIT:      81455
  ROW_BUFFER_MISS:      67826
 AVG DBUS CONGESTED CYCLE: 3.957
WQ ROW_BUFFER_HIT: Channel 0 
  ROW_BUFFER_MISS:      46274
  FULL:      98895

Channel 1 RQ ROW_BUFFER_HIT:      81798
  ROW_BUFFER_MISS:      67501
 AVG DBUS CONGESTED CYCLE: 3.958
WQ ROW_BUFFER_HIT: Channel 1 
  ROW_BUFFER_MISS:      46599
  FULL:      98630
BERTI TO_L1: 11604710 TO_L2: 28029024 TO_L2_BC_MSHR: 9935080
BERTI AVG_LAT: 154.79 NUM_TRACK_LATENCY: 195872 NUM_CANT_TRACK_LATENCY: 183
BERTI CROSS_PAGE 4964880 NO_CROSS_PAGE: 34668854
BERTI FOUND_BERTI: 10991181 NO_FOUND_BERTI: 10299343
BERTI AVERAGE_ISSUED: 3.00328
CPU 0 L1I Entangling prefetcher final stats
IP accesses: 124 4900 261 / 6819
IP misses: 0 0 0 / 0
IP hits: 0 0 0 / 0
IP late: 0 0 0 / 0
IP wrong: 0 0 0 / 0
miss rate: 0
coverage: -nan
coverage_late: -nan
accuracy: -nan
accuracy_late: -nan
discarded: 0
evicts entangled j table: 0
evicts entangled k table: 0
max bb size: 11
formats: 0 0 0 0 0 0 0 
hist_lookups: 0 0 0 0 0 0 0 0 0 0 0 0 0 0 0 0 0 134 
hist_lookups_evict: 0 %
hist_lookups_shortlat: 100 %
bb_found_hist: 0 1183 471 197 40 20 50 0 0 0 0 80 0 0 0 0 0 0 0 0 0 0 0 0 0 0 0 0 0 0 0 0 0 0 0 0 0 0 0 0 0 0 0 0 0 0 0 0 0 0 0 0 0 0 0 0 0 0 0 0 0 0 0 0 
bb_found_summary: 4156 2041 2.03626
entangled_found_hist: 0 664 130 160 40 0 0 0 
entangled_found_summary: 1564 994 1.57345
bb_ent_found_hist: 0 504 290 90 0 20 50 0 0 0 0 10 0 0 0 0 0 0 0 0 0 0 0 0 0 0 0 0 0 0 0 0 0 0 0 0 0 0 0 0 0 0 0 0 0 0 0 0 0 0 0 0 0 0 0 0 0 0 0 0 0 0 0 0 
bb_ent_found_summary: 1864 964 1.93361
