WARNING: physical memory size is smaller than virtual memory size.

*** ChampSim Multicore Out-of-Order Simulator ***
Warmup Instructions: 30000000
Simulation Instructions: 100000000
Number of CPUs: 1
Page size: 4096

BTB:
Basic BTB sets: 1024 ways: 8
Indirect:
history lengths: 0 0 10 16 27 44 60 96 109 219 449 487 714 1313 2146 3881 
ITTAGE tables: 64768 bytes;Region table: 240 bytes;IUM: 384 bytes;Total Storage= 65392 bytes;
RAS:
RAS size: 64
Berti Prefetcher
CPU 0 Entangling prefetcher
Off-chip DRAM Size: 8 GiB Channels: 2 Width: 64-bit Data Race: 6400 MT/s
Heartbeat CPU 0 instructions: 10000011 cycles: 1826587 heartbeat IPC: 5.475 cumulative IPC: 5.475 (Simulation time: 00 hr 00 min 39 sec)
Heartbeat CPU 0 instructions: 20000003 cycles: 3512306 heartbeat IPC: 5.932 cumulative IPC: 5.694 (Simulation time: 00 hr 01 min 16 sec)
Heartbeat CPU 0 instructions: 30000000 cycles: 5182636 heartbeat IPC: 5.987 cumulative IPC: 5.789 (Simulation time: 00 hr 01 min 54 sec)
Warmup finished CPU 0 instructions: 30000000 cycles: 5182637 cumulative IPC: 5.789 (Simulation time: 00 hr 01 min 54 sec)
Warmup complete CPU 0 instructions: 30000000 cycles: 5182637 cumulative IPC: 5.789 (Simulation time: 00 hr 01 min 54 sec)
*** Reached end of trace: (0, "../traces/public_traces/compute_int/compute_int_5.champsimtrace.xz")
Heartbeat CPU 0 instructions: 40000001 cycles: 8817767 heartbeat IPC: 2.751 cumulative IPC: 2.751 (Simulation time: 00 hr 02 min 51 sec)
Heartbeat CPU 0 instructions: 50000001 cycles: 13153806 heartbeat IPC: 2.306 cumulative IPC: 2.509 (Simulation time: 00 hr 04 min 04 sec)
Heartbeat CPU 0 instructions: 60000000 cycles: 15674441 heartbeat IPC: 3.967 cumulative IPC: 2.859 (Simulation time: 00 hr 05 min 07 sec)
*** Reached end of trace: (0, "../traces/public_traces/compute_int/compute_int_5.champsimtrace.xz")
Heartbeat CPU 0 instructions: 70000000 cycles: 19280737 heartbeat IPC: 2.773 cumulative IPC: 2.837 (Simulation time: 00 hr 06 min 16 sec)
Heartbeat CPU 0 instructions: 80000003 cycles: 23594649 heartbeat IPC: 2.318 cumulative IPC: 2.716 (Simulation time: 00 hr 07 min 22 sec)
Heartbeat CPU 0 instructions: 90000001 cycles: 26124462 heartbeat IPC: 3.953 cumulative IPC: 2.865 (Simulation time: 00 hr 08 min 20 sec)
*** Reached end of trace: (0, "../traces/public_traces/compute_int/compute_int_5.champsimtrace.xz")
Heartbeat CPU 0 instructions: 100000004 cycles: 29706337 heartbeat IPC: 2.792 cumulative IPC: 2.854 (Simulation time: 00 hr 09 min 28 sec)
Heartbeat CPU 0 instructions: 110000000 cycles: 34011148 heartbeat IPC: 2.323 cumulative IPC: 2.775 (Simulation time: 00 hr 10 min 34 sec)
Heartbeat CPU 0 instructions: 120000005 cycles: 36554506 heartbeat IPC: 3.932 cumulative IPC: 2.869 (Simulation time: 00 hr 11 min 31 sec)
*** Reached end of trace: (0, "../traces/public_traces/compute_int/compute_int_5.champsimtrace.xz")
Heartbeat CPU 0 instructions: 130000001 cycles: 40099774 heartbeat IPC: 2.821 cumulative IPC: 2.864 (Simulation time: 00 hr 12 min 40 sec)
Simulation finished CPU 0 instructions: 100000001 cycles: 34917138 cumulative IPC: 2.864 (Simulation time: 00 hr 12 min 40 sec)
Simulation complete CPU 0 instructions: 100000001 cycles: 34917138 cumulative IPC: 2.864 (Simulation time: 00 hr 12 min 40 sec)

ChampSim completed all CPUs

=== Simulation ===
CPU 0 runs ../traces/public_traces/compute_int/compute_int_5.champsimtrace.xz
Region of Interest Statistics

CPU 0 cumulative IPC: 2.864 instructions: 100000001 cycles: 34917138
CPU 0 Branch Prediction Accuracy: 94.3% MPKI: 8.849 Average ROB Occupancy at Mispredict: 19.09
Branch type MPKI
BRANCH_DIRECT_JUMP: 0
BRANCH_INDIRECT: 4.05
BRANCH_CONDITIONAL: 4.79
BRANCH_DIRECT_CALL: 0
BRANCH_INDIRECT_CALL: 0
BRANCH_RETURN: 0

LLC TOTAL        ACCESS:     755415 HIT:     612058 MISS:     143357
LLC LOAD         ACCESS:      67083 HIT:      55555 MISS:      11528
LLC RFO          ACCESS:     261145 HIT:     157377 MISS:     103768
LLC PREFETCH     ACCESS:     101715 HIT:      79253 MISS:      22462
LLC WRITE        ACCESS:     325460 HIT:     319873 MISS:       5587
LLC TRANSLATION  ACCESS:         12 HIT:          0 MISS:         12
LLC PREFETCH REQUESTED:          0 ISSUED:          0 USEFUL:          0 USELESS:          0
LLC AVERAGE MISS LATENCY: 362 cycles
cpu0_DTLB TOTAL        ACCESS:   19137802 HIT:   18296523 MISS:     841279
cpu0_DTLB LOAD         ACCESS:   19137802 HIT:   18296523 MISS:     841279
cpu0_DTLB RFO          ACCESS:          0 HIT:          0 MISS:          0
cpu0_DTLB PREFETCH     ACCESS:          0 HIT:          0 MISS:          0
cpu0_DTLB WRITE        ACCESS:          0 HIT:          0 MISS:          0
cpu0_DTLB TRANSLATION  ACCESS:          0 HIT:          0 MISS:          0
cpu0_DTLB PREFETCH REQUESTED:          0 ISSUED:          0 USEFUL:          0 USELESS:          0
cpu0_DTLB AVERAGE MISS LATENCY: 6.197 cycles
cpu0_ITLB TOTAL        ACCESS:      12472 HIT:      12472 MISS:          0
cpu0_ITLB LOAD         ACCESS:      12472 HIT:      12472 MISS:          0
cpu0_ITLB RFO          ACCESS:          0 HIT:          0 MISS:          0
cpu0_ITLB PREFETCH     ACCESS:          0 HIT:          0 MISS:          0
cpu0_ITLB WRITE        ACCESS:          0 HIT:          0 MISS:          0
cpu0_ITLB TRANSLATION  ACCESS:          0 HIT:          0 MISS:          0
cpu0_ITLB PREFETCH REQUESTED:          0 ISSUED:          0 USEFUL:          0 USELESS:          0
cpu0_ITLB AVERAGE MISS LATENCY: -nan cycles
cpu0_L1D TOTAL        ACCESS:   31754262 HIT:   28612061 MISS:    3142201
cpu0_L1D LOAD         ACCESS:   22567596 HIT:   21166777 MISS:    1400819
cpu0_L1D RFO          ACCESS:          0 HIT:          0 MISS:          0
cpu0_L1D PREFETCH     ACCESS:    2506026 HIT:    2062864 MISS:     443162
cpu0_L1D WRITE        ACCESS:    6680627 HIT:    5382420 MISS:    1298207
cpu0_L1D TRANSLATION  ACCESS:         13 HIT:          0 MISS:         13
cpu0_L1D PREFETCH REQUESTED:    6621940 ISSUED:    2506004 USEFUL:      18669 USELESS:      13727
cpu0_L1D AVERAGE MISS LATENCY: 19.45 cycles
cpu0_L1I TOTAL        ACCESS:      18378 HIT:      18135 MISS:        243
cpu0_L1I LOAD         ACCESS:       8439 HIT:       8317 MISS:        122
cpu0_L1I RFO          ACCESS:          0 HIT:          0 MISS:          0
cpu0_L1I PREFETCH     ACCESS:       9939 HIT:       9818 MISS:        121
cpu0_L1I WRITE        ACCESS:          0 HIT:          0 MISS:          0
cpu0_L1I TRANSLATION  ACCESS:          0 HIT:          0 MISS:          0
cpu0_L1I PREFETCH REQUESTED:      13083 ISSUED:       9939 USEFUL:         72 USELESS:          6
cpu0_L1I AVERAGE MISS LATENCY: 70.73 cycles
cpu0_L2C TOTAL        ACCESS:    4201009 HIT:    3731990 MISS:     469019
cpu0_L2C LOAD         ACCESS:     935580 HIT:     864669 MISS:      70911
cpu0_L2C RFO          ACCESS:     732250 HIT:     471102 MISS:     261148
cpu0_L2C PREFETCH     ACCESS:    1402962 HIT:    1266014 MISS:     136948
cpu0_L2C WRITE        ACCESS:    1130205 HIT:    1130205 MISS:          0
cpu0_L2C TRANSLATION  ACCESS:         12 HIT:          0 MISS:         12
cpu0_L2C PREFETCH REQUESTED:    1286984 ISSUED:    1051863 USEFUL:      58375 USELESS:      18525
cpu0_L2C AVERAGE MISS LATENCY: 129 cycles
cpu0_STLB TOTAL        ACCESS:     702026 HIT:     702013 MISS:         13
cpu0_STLB LOAD         ACCESS:     702026 HIT:     702013 MISS:         13
cpu0_STLB RFO          ACCESS:          0 HIT:          0 MISS:          0
cpu0_STLB PREFETCH     ACCESS:          0 HIT:          0 MISS:          0
cpu0_STLB WRITE        ACCESS:          0 HIT:          0 MISS:          0
cpu0_STLB TRANSLATION  ACCESS:          0 HIT:          0 MISS:          0
cpu0_STLB PREFETCH REQUESTED:          0 ISSUED:          0 USEFUL:          0 USELESS:          0
cpu0_STLB AVERAGE MISS LATENCY: 785.3 cycles

DRAM Statistics

Channel 0 RQ ROW_BUFFER_HIT:       8005
  ROW_BUFFER_MISS:      60760
 AVG DBUS CONGESTED CYCLE: 3.969
WQ ROW_BUFFER_HIT: Channel 0 
  ROW_BUFFER_MISS:       3738
  FULL:      56971

Channel 1 RQ ROW_BUFFER_HIT:       7999
  ROW_BUFFER_MISS:      60581
 AVG DBUS CONGESTED CYCLE: 3.968
WQ ROW_BUFFER_HIT: Channel 1 
  ROW_BUFFER_MISS:       3855
  FULL:      56914
BERTI TO_L1: 4675678 TO_L2: 5614361 TO_L2_BC_MSHR: 1623699
BERTI AVG_LAT: 22.5913 NUM_TRACK_LATENCY: 1244189 NUM_CANT_TRACK_LATENCY: 2
BERTI CROSS_PAGE 3541789 NO_CROSS_PAGE: 6748250
BERTI FOUND_BERTI: 12193832 NO_FOUND_BERTI: 18191304
BERTI AVERAGE_ISSUED: 3.68244
CPU 0 L1I Entangling prefetcher final stats
IP accesses: 246 9180 540 / 8439
IP misses: 469c 11a700 20 / 122
IP hits: 0 0 0 / 0
IP late: 30c7 c31c0 10 / 72
IP wrong: 207 81c0 6 / 6
miss rate: 0.0144567
coverage: 0
coverage_late: 0.590164
accuracy: 0
accuracy_late: 0.923077
discarded: 0
evicts entangled j table: 0
evicts entangled k table: 1
max bb size: 22
formats: 1 0 1 1 0 3 0 
hist_lookups: 2 0 0 0 0 1 3 2 1 1 0 0 0 0 0 0 6 201 
hist_lookups_evict: 2.76498 %
hist_lookups_shortlat: 92.6268 %
bb_found_hist: 0 1326 476 178 89 101 101 20 95 10 54 21 11 0 0 0 0 0 3 0 0 0 37 0 0 0 0 0 0 0 0 0 0 0 0 0 0 0 0 0 0 0 0 0 0 0 0 0 0 0 0 0 0 0 0 0 0 0 0 0 0 0 0 0 
bb_found_summary: 7040 2522 2.79144
entangled_found_hist: 0 470 239 220 10 30 0 0 
entangled_found_summary: 1798 969 1.85553
bb_ent_found_hist: 0 599 312 113 27 18 106 25 66 10 0 28 37 0 0 0 0 0 0 0 0 0 20 0 0 0 0 0 0 0 0 0 0 0 0 0 0 0 0 0 0 0 0 0 0 0 0 0 0 0 0 0 0 0 0 0 0 0 0 0 0 0 0 0 
bb_ent_found_summary: 4381 1361 3.21896
