WARNING: physical memory size is smaller than virtual memory size.

*** ChampSim Multicore Out-of-Order Simulator ***
Warmup Instructions: 30000000
Simulation Instructions: 100000000
Number of CPUs: 1
Page size: 4096

BTB:
Basic BTB sets: 1024 ways: 8
Indirect:
history lengths: 0 0 10 16 27 44 60 96 109 219 449 487 714 1313 2146 3881 
ITTAGE tables: 64768 bytes;Region table: 240 bytes;IUM: 384 bytes;Total Storage= 65392 bytes;
RAS:
RAS size: 64
Berti Prefetcher
CPU 0 Entangling prefetcher
Off-chip DRAM Size: 8 GiB Channels: 2 Width: 64-bit Data Race: 6400 MT/s
Heartbeat CPU 0 instructions: 10000002 cycles: 2093502 heartbeat IPC: 4.777 cumulative IPC: 4.777 (Simulation time: 00 hr 01 min 00 sec)
Heartbeat CPU 0 instructions: 20000000 cycles: 4204404 heartbeat IPC: 4.737 cumulative IPC: 4.757 (Simulation time: 00 hr 01 min 59 sec)
Heartbeat CPU 0 instructions: 30000003 cycles: 6312352 heartbeat IPC: 4.744 cumulative IPC: 4.753 (Simulation time: 00 hr 02 min 50 sec)
Warmup finished CPU 0 instructions: 30000003 cycles: 6312353 cumulative IPC: 4.753 (Simulation time: 00 hr 02 min 50 sec)
Warmup complete CPU 0 instructions: 30000003 cycles: 6312353 cumulative IPC: 4.753 (Simulation time: 00 hr 02 min 50 sec)
*** Reached end of trace: (0, "../traces/public_traces/compute_int/compute_int_34.champsimtrace.xz")
Heartbeat CPU 0 instructions: 40000007 cycles: 20798068 heartbeat IPC: 0.6903 cumulative IPC: 0.6903 (Simulation time: 00 hr 06 min 25 sec)
Heartbeat CPU 0 instructions: 50000001 cycles: 35317644 heartbeat IPC: 0.6887 cumulative IPC: 0.6895 (Simulation time: 00 hr 09 min 40 sec)
Heartbeat CPU 0 instructions: 60000010 cycles: 44847448 heartbeat IPC: 1.049 cumulative IPC: 0.7785 (Simulation time: 00 hr 12 min 03 sec)
*** Reached end of trace: (0, "../traces/public_traces/compute_int/compute_int_34.champsimtrace.xz")
Heartbeat CPU 0 instructions: 70000004 cycles: 60039924 heartbeat IPC: 0.6582 cumulative IPC: 0.7445 (Simulation time: 00 hr 15 min 43 sec)
Heartbeat CPU 0 instructions: 80000002 cycles: 74450492 heartbeat IPC: 0.6939 cumulative IPC: 0.7338 (Simulation time: 00 hr 19 min 07 sec)
Heartbeat CPU 0 instructions: 90000000 cycles: 83888351 heartbeat IPC: 1.06 cumulative IPC: 0.7734 (Simulation time: 00 hr 21 min 25 sec)
*** Reached end of trace: (0, "../traces/public_traces/compute_int/compute_int_34.champsimtrace.xz")
Heartbeat CPU 0 instructions: 100000007 cycles: 99101189 heartbeat IPC: 0.6573 cumulative IPC: 0.7544 (Simulation time: 00 hr 25 min 12 sec)
Heartbeat CPU 0 instructions: 110000009 cycles: 113544554 heartbeat IPC: 0.6924 cumulative IPC: 0.746 (Simulation time: 00 hr 28 min 47 sec)
Heartbeat CPU 0 instructions: 120000004 cycles: 123090947 heartbeat IPC: 1.048 cumulative IPC: 0.7707 (Simulation time: 00 hr 30 min 48 sec)
*** Reached end of trace: (0, "../traces/public_traces/compute_int/compute_int_34.champsimtrace.xz")
Heartbeat CPU 0 instructions: 130000010 cycles: 138353503 heartbeat IPC: 0.6552 cumulative IPC: 0.7573 (Simulation time: 00 hr 34 min 13 sec)
Simulation finished CPU 0 instructions: 100000007 cycles: 132041151 cumulative IPC: 0.7573 (Simulation time: 00 hr 34 min 13 sec)
Simulation complete CPU 0 instructions: 100000007 cycles: 132041151 cumulative IPC: 0.7573 (Simulation time: 00 hr 34 min 13 sec)

ChampSim completed all CPUs

=== Simulation ===
CPU 0 runs ../traces/public_traces/compute_int/compute_int_34.champsimtrace.xz
Region of Interest Statistics

CPU 0 cumulative IPC: 0.7573 instructions: 100000007 cycles: 132041151
CPU 0 Branch Prediction Accuracy: 97.48% MPKI: 3.2 Average ROB Occupancy at Mispredict: 78.42
Branch type MPKI
BRANCH_DIRECT_JUMP: 0
BRANCH_INDIRECT: 2.6
BRANCH_CONDITIONAL: 0.602
BRANCH_DIRECT_CALL: 0
BRANCH_INDIRECT_CALL: 0
BRANCH_RETURN: 0

LLC TOTAL        ACCESS:    9385683 HIT:     686007 MISS:    8699676
LLC LOAD         ACCESS:    2577625 HIT:       5667 MISS:    2571958
LLC RFO          ACCESS:     524226 HIT:        473 MISS:     523753
LLC PREFETCH     ACCESS:    5598442 HIT:       6133 MISS:    5592309
LLC WRITE        ACCESS:     676512 HIT:     672636 MISS:       3876
LLC TRANSLATION  ACCESS:       8878 HIT:       1098 MISS:       7780
LLC PREFETCH REQUESTED:          0 ISSUED:          0 USEFUL:          0 USELESS:          0
LLC AVERAGE MISS LATENCY: 407 cycles
cpu0_DTLB TOTAL        ACCESS:   26187857 HIT:   25825380 MISS:     362477
cpu0_DTLB LOAD         ACCESS:   26187857 HIT:   25825380 MISS:     362477
cpu0_DTLB RFO          ACCESS:          0 HIT:          0 MISS:          0
cpu0_DTLB PREFETCH     ACCESS:          0 HIT:          0 MISS:          0
cpu0_DTLB WRITE        ACCESS:          0 HIT:          0 MISS:          0
cpu0_DTLB TRANSLATION  ACCESS:          0 HIT:          0 MISS:          0
cpu0_DTLB PREFETCH REQUESTED:          0 ISSUED:          0 USEFUL:          0 USELESS:          0
cpu0_DTLB AVERAGE MISS LATENCY: 13.93 cycles
cpu0_ITLB TOTAL        ACCESS:      66575 HIT:      66575 MISS:          0
cpu0_ITLB LOAD         ACCESS:      66575 HIT:      66575 MISS:          0
cpu0_ITLB RFO          ACCESS:          0 HIT:          0 MISS:          0
cpu0_ITLB PREFETCH     ACCESS:          0 HIT:          0 MISS:          0
cpu0_ITLB WRITE        ACCESS:          0 HIT:          0 MISS:          0
cpu0_ITLB TRANSLATION  ACCESS:          0 HIT:          0 MISS:          0
cpu0_ITLB PREFETCH REQUESTED:          0 ISSUED:          0 USEFUL:          0 USELESS:          0
cpu0_ITLB AVERAGE MISS LATENCY: -nan cycles
cpu0_L1D TOTAL        ACCESS:   49789422 HIT:   33947383 MISS:   15842039
cpu0_L1D LOAD         ACCESS:   19170249 HIT:   14709038 MISS:    4461211
cpu0_L1D RFO          ACCESS:          0 HIT:          0 MISS:          0
cpu0_L1D PREFETCH     ACCESS:   14106544 HIT:    4743220 MISS:    9363324
cpu0_L1D WRITE        ACCESS:   16460174 HIT:   14468555 MISS:    1991619
cpu0_L1D TRANSLATION  ACCESS:      52455 HIT:      26570 MISS:      25885
cpu0_L1D PREFETCH REQUESTED:  187103734 ISSUED:   14106544 USEFUL:    1611830 USELESS:     142723
cpu0_L1D AVERAGE MISS LATENCY: 90.28 cycles
cpu0_L1I TOTAL        ACCESS:      91229 HIT:      90775 MISS:        454
cpu0_L1I LOAD         ACCESS:      37855 HIT:      37611 MISS:        244
cpu0_L1I RFO          ACCESS:          0 HIT:          0 MISS:          0
cpu0_L1I PREFETCH     ACCESS:      53374 HIT:      53164 MISS:        210
cpu0_L1I WRITE        ACCESS:          0 HIT:          0 MISS:          0
cpu0_L1I TRANSLATION  ACCESS:          0 HIT:          0 MISS:          0
cpu0_L1I PREFETCH REQUESTED:      54426 ISSUED:      53374 USEFUL:        138 USELESS:          0
cpu0_L1I AVERAGE MISS LATENCY: 159.3 cycles
cpu0_L2C TOTAL        ACCESS:   25894168 HIT:   10344711 MISS:   15549457
cpu0_L2C LOAD         ACCESS:    3887094 HIT:     800415 MISS:    3086679
cpu0_L2C RFO          ACCESS:     554140 HIT:      27997 MISS:     526143
cpu0_L2C PREFETCH     ACCESS:   20688785 HIT:    8761879 MISS:   11926906
cpu0_L2C WRITE        ACCESS:     738274 HIT:     737423 MISS:        851
cpu0_L2C TRANSLATION  ACCESS:      25875 HIT:      16997 MISS:       8878
cpu0_L2C PREFETCH REQUESTED:   18389245 ISSUED:   11965021 USEFUL:     993885 USELESS:    2195461
cpu0_L2C AVERAGE MISS LATENCY: 230.2 cycles
cpu0_STLB TOTAL        ACCESS:     181821 HIT:     129616 MISS:      52205
cpu0_STLB LOAD         ACCESS:     181821 HIT:     129616 MISS:      52205
cpu0_STLB RFO          ACCESS:          0 HIT:          0 MISS:          0
cpu0_STLB PREFETCH     ACCESS:          0 HIT:          0 MISS:          0
cpu0_STLB WRITE        ACCESS:          0 HIT:          0 MISS:          0
cpu0_STLB TRANSLATION  ACCESS:          0 HIT:          0 MISS:          0
cpu0_STLB PREFETCH REQUESTED:          0 ISSUED:          0 USEFUL:          0 USELESS:          0
cpu0_STLB AVERAGE MISS LATENCY: 128.7 cycles

DRAM Statistics

Channel 0 RQ ROW_BUFFER_HIT:    3158085
  ROW_BUFFER_MISS:    1192590
 AVG DBUS CONGESTED CYCLE: 3.958
WQ ROW_BUFFER_HIT: Channel 0 
  ROW_BUFFER_MISS:      85771
  FULL:     252571

Channel 1 RQ ROW_BUFFER_HIT:    3149704
  ROW_BUFFER_MISS:    1194223
 AVG DBUS CONGESTED CYCLE: 3.953
WQ ROW_BUFFER_HIT: Channel 1 
  ROW_BUFFER_MISS:      87530
  FULL:     250633
BERTI TO_L1: 9005611 TO_L2: 192691715 TO_L2_BC_MSHR: 77607452
BERTI AVG_LAT: 217.308 NUM_TRACK_LATENCY: 7252401 NUM_CANT_TRACK_LATENCY: 1026
BERTI CROSS_PAGE 54563601 NO_CROSS_PAGE: 147133725
BERTI FOUND_BERTI: 63144817 NO_FOUND_BERTI: 8582471
BERTI AVERAGE_ISSUED: 3.31377
CPU 0 L1I Entangling prefetcher final stats
IP accesses: 90 2400 6029 / 37855
IP misses: 3f12 fc480 13 / 244
IP hits: 0 0 0 / 0
IP late: 87 21c0 3 / 134
IP wrong: 0 0 0 / 0
miss rate: 0.00644565
coverage: 0
coverage_late: 0.549181
accuracy: 0
accuracy_late: 1
discarded: 0
evicts entangled j table: 0
evicts entangled k table: 3
max bb size: 9
formats: 4 0 9 1 1 5 0 
hist_lookups: 1 1 5 1 3 7 5 8 3 0 0 1 0 0 0 0 0 227 
hist_lookups_evict: 0 %
hist_lookups_shortlat: 86.6413 %
bb_found_hist: 0 6344 1318 983 1399 125 42 3 0 3 0 0 0 0 0 0 0 0 0 0 0 0 0 0 0 0 0 0 0 0 0 0 0 0 0 0 0 0 0 0 0 0 0 0 0 0 0 0 0 0 0 0 0 0 0 0 0 0 0 0 0 0 0 0 
bb_found_summary: 18450 10217 1.80582
entangled_found_hist: 0 5883 2649 1067 136 0 0 0 
entangled_found_summary: 14926 9735 1.53324
bb_ent_found_hist: 0 3786 1106 2361 6 69 3 1116 0 3 0 0 0 0 0 0 0 0 0 0 0 0 0 0 0 0 0 0 0 0 0 0 0 0 0 0 0 0 0 0 0 0 0 0 0 0 0 0 0 0 0 0 0 0 0 0 0 0 0 0 0 0 0 0 
bb_ent_found_summary: 21307 8450 2.52154
