WARNING: physical memory size is smaller than virtual memory size.

*** ChampSim Multicore Out-of-Order Simulator ***
Warmup Instructions: 30000000
Simulation Instructions: 100000000
Number of CPUs: 1
Page size: 4096

BTB:
Basic BTB sets: 1024 ways: 8
Indirect:
history lengths: 0 0 10 16 27 44 60 96 109 219 449 487 714 1313 2146 3881 
ITTAGE tables: 64768 bytes;Region table: 240 bytes;IUM: 384 bytes;Total Storage= 65392 bytes;
RAS:
RAS size: 64
Berti Prefetcher
CPU 0 Entangling prefetcher
Off-chip DRAM Size: 8 GiB Channels: 2 Width: 64-bit Data Race: 6400 MT/s
Heartbeat CPU 0 instructions: 10000005 cycles: 1765220 heartbeat IPC: 5.665 cumulative IPC: 5.665 (Simulation time: 00 hr 00 min 51 sec)
Heartbeat CPU 0 instructions: 20000000 cycles: 3531492 heartbeat IPC: 5.662 cumulative IPC: 5.663 (Simulation time: 00 hr 01 min 35 sec)
Heartbeat CPU 0 instructions: 30000007 cycles: 5298928 heartbeat IPC: 5.658 cumulative IPC: 5.662 (Simulation time: 00 hr 02 min 26 sec)
Warmup finished CPU 0 instructions: 30000007 cycles: 5298929 cumulative IPC: 5.662 (Simulation time: 00 hr 02 min 26 sec)
Warmup complete CPU 0 instructions: 30000007 cycles: 5298929 cumulative IPC: 5.662 (Simulation time: 00 hr 02 min 26 sec)
*** Reached end of trace: (0, "../traces/public_traces/compute_int/compute_int_14.champsimtrace.xz")
Heartbeat CPU 0 instructions: 40000004 cycles: 13749568 heartbeat IPC: 1.183 cumulative IPC: 1.183 (Simulation time: 00 hr 05 min 20 sec)
Heartbeat CPU 0 instructions: 50000002 cycles: 16021533 heartbeat IPC: 4.401 cumulative IPC: 1.865 (Simulation time: 00 hr 06 min 22 sec)
Heartbeat CPU 0 instructions: 60000000 cycles: 24967862 heartbeat IPC: 1.118 cumulative IPC: 1.525 (Simulation time: 00 hr 09 min 04 sec)
*** Reached end of trace: (0, "../traces/public_traces/compute_int/compute_int_14.champsimtrace.xz")
Heartbeat CPU 0 instructions: 70000000 cycles: 33758715 heartbeat IPC: 1.138 cumulative IPC: 1.405 (Simulation time: 00 hr 11 min 47 sec)
Heartbeat CPU 0 instructions: 80000001 cycles: 35747036 heartbeat IPC: 5.029 cumulative IPC: 1.642 (Simulation time: 00 hr 12 min 42 sec)
Heartbeat CPU 0 instructions: 90000000 cycles: 44250133 heartbeat IPC: 1.176 cumulative IPC: 1.54 (Simulation time: 00 hr 15 min 38 sec)
*** Reached end of trace: (0, "../traces/public_traces/compute_int/compute_int_14.champsimtrace.xz")
Heartbeat CPU 0 instructions: 100000002 cycles: 53229417 heartbeat IPC: 1.114 cumulative IPC: 1.46 (Simulation time: 00 hr 18 min 33 sec)
Heartbeat CPU 0 instructions: 110000001 cycles: 55774286 heartbeat IPC: 3.929 cumulative IPC: 1.585 (Simulation time: 00 hr 19 min 39 sec)
Heartbeat CPU 0 instructions: 120000002 cycles: 64190651 heartbeat IPC: 1.188 cumulative IPC: 1.528 (Simulation time: 00 hr 22 min 27 sec)
*** Reached end of trace: (0, "../traces/public_traces/compute_int/compute_int_14.champsimtrace.xz")
Heartbeat CPU 0 instructions: 130000009 cycles: 72460123 heartbeat IPC: 1.209 cumulative IPC: 1.489 (Simulation time: 00 hr 24 min 57 sec)
Simulation finished CPU 0 instructions: 100000002 cycles: 67161195 cumulative IPC: 1.489 (Simulation time: 00 hr 24 min 57 sec)
Simulation complete CPU 0 instructions: 100000002 cycles: 67161195 cumulative IPC: 1.489 (Simulation time: 00 hr 24 min 57 sec)

ChampSim completed all CPUs

=== Simulation ===
CPU 0 runs ../traces/public_traces/compute_int/compute_int_14.champsimtrace.xz
Region of Interest Statistics

CPU 0 cumulative IPC: 1.489 instructions: 100000002 cycles: 67161195
CPU 0 Branch Prediction Accuracy: 99.94% MPKI: 0.1794 Average ROB Occupancy at Mispredict: 278.3
Branch type MPKI
BRANCH_DIRECT_JUMP: 0
BRANCH_INDIRECT: 0.117
BRANCH_CONDITIONAL: 0.0625
BRANCH_DIRECT_CALL: 0
BRANCH_INDIRECT_CALL: 7e-05
BRANCH_RETURN: 0.00012

LLC TOTAL        ACCESS:    3826264 HIT:     734986 MISS:    3091278
LLC LOAD         ACCESS:    1710040 HIT:     312590 MISS:    1397450
LLC RFO          ACCESS:      18405 HIT:       3629 MISS:      14776
LLC PREFETCH     ACCESS:    1958194 HIT:     378005 MISS:    1580189
LLC WRITE        ACCESS:      30171 HIT:      30151 MISS:         20
LLC TRANSLATION  ACCESS:     109454 HIT:      10611 MISS:      98843
LLC PREFETCH REQUESTED:          0 ISSUED:          0 USEFUL:          0 USELESS:          0
LLC AVERAGE MISS LATENCY: 420.5 cycles
cpu0_DTLB TOTAL        ACCESS:   10323655 HIT:    9225738 MISS:    1097917
cpu0_DTLB LOAD         ACCESS:   10323655 HIT:    9225738 MISS:    1097917
cpu0_DTLB RFO          ACCESS:          0 HIT:          0 MISS:          0
cpu0_DTLB PREFETCH     ACCESS:          0 HIT:          0 MISS:          0
cpu0_DTLB WRITE        ACCESS:          0 HIT:          0 MISS:          0
cpu0_DTLB TRANSLATION  ACCESS:          0 HIT:          0 MISS:          0
cpu0_DTLB PREFETCH REQUESTED:          0 ISSUED:          0 USEFUL:          0 USELESS:          0
cpu0_DTLB AVERAGE MISS LATENCY: 75.63 cycles
cpu0_ITLB TOTAL        ACCESS:    1602493 HIT:    1602443 MISS:         50
cpu0_ITLB LOAD         ACCESS:    1602493 HIT:    1602443 MISS:         50
cpu0_ITLB RFO          ACCESS:          0 HIT:          0 MISS:          0
cpu0_ITLB PREFETCH     ACCESS:          0 HIT:          0 MISS:          0
cpu0_ITLB WRITE        ACCESS:          0 HIT:          0 MISS:          0
cpu0_ITLB TRANSLATION  ACCESS:          0 HIT:          0 MISS:          0
cpu0_ITLB PREFETCH REQUESTED:          0 ISSUED:          0 USEFUL:          0 USELESS:          0
cpu0_ITLB AVERAGE MISS LATENCY: 313 cycles
cpu0_L1D TOTAL        ACCESS:   13232642 HIT:   10530377 MISS:    2702265
cpu0_L1D LOAD         ACCESS:    8417761 HIT:    6335907 MISS:    2081854
cpu0_L1D RFO          ACCESS:          0 HIT:          0 MISS:          0
cpu0_L1D PREFETCH     ACCESS:    1389592 HIT:     967073 MISS:     422519
cpu0_L1D WRITE        ACCESS:    2881465 HIT:    2832390 MISS:      49075
cpu0_L1D TRANSLATION  ACCESS:     543824 HIT:     395007 MISS:     148817
cpu0_L1D PREFETCH REQUESTED:   71637703 ISSUED:    1389560 USEFUL:      39883 USELESS:       1982
cpu0_L1D AVERAGE MISS LATENCY: 291.7 cycles
cpu0_L1I TOTAL        ACCESS:    2364761 HIT:    2348206 MISS:      16555
cpu0_L1I LOAD         ACCESS:     882006 HIT:     875636 MISS:       6370
cpu0_L1I RFO          ACCESS:          0 HIT:          0 MISS:          0
cpu0_L1I PREFETCH     ACCESS:    1482755 HIT:    1472570 MISS:      10185
cpu0_L1I WRITE        ACCESS:          0 HIT:          0 MISS:          0
cpu0_L1I TRANSLATION  ACCESS:          0 HIT:          0 MISS:          0
cpu0_L1I PREFETCH REQUESTED:    2695333 ISSUED:    1482788 USEFUL:       8194 USELESS:        829
cpu0_L1I AVERAGE MISS LATENCY: 128.2 cycles
cpu0_L2C TOTAL        ACCESS:    4841310 HIT:     702234 MISS:    4139076
cpu0_L2C LOAD         ACCESS:    1937594 HIT:     144790 MISS:    1792804
cpu0_L2C RFO          ACCESS:      22096 HIT:       3095 MISS:      19001
cpu0_L2C PREFETCH     ACCESS:    2708207 HIT:     490415 MISS:    2217792
cpu0_L2C WRITE        ACCESS:      34093 HIT:      34068 MISS:         25
cpu0_L2C TRANSLATION  ACCESS:     139320 HIT:      29866 MISS:     109454
cpu0_L2C PREFETCH REQUESTED:    2458587 ISSUED:    2343489 USEFUL:     153591 USELESS:    1720681
cpu0_L2C AVERAGE MISS LATENCY: 329.4 cycles
cpu0_STLB TOTAL        ACCESS:     548128 HIT:       7929 MISS:     540199
cpu0_STLB LOAD         ACCESS:     548128 HIT:       7929 MISS:     540199
cpu0_STLB RFO          ACCESS:          0 HIT:          0 MISS:          0
cpu0_STLB PREFETCH     ACCESS:          0 HIT:          0 MISS:          0
cpu0_STLB WRITE        ACCESS:          0 HIT:          0 MISS:          0
cpu0_STLB TRANSLATION  ACCESS:          0 HIT:          0 MISS:          0
cpu0_STLB PREFETCH REQUESTED:          0 ISSUED:          0 USEFUL:          0 USELESS:          0
cpu0_STLB AVERAGE MISS LATENCY: 244.7 cycles

DRAM Statistics

Channel 0 RQ ROW_BUFFER_HIT:    1061777
  ROW_BUFFER_MISS:     439867
 AVG DBUS CONGESTED CYCLE: 3.937
WQ ROW_BUFFER_HIT: Channel 0 
  ROW_BUFFER_MISS:       1830
  FULL:      10179

Channel 1 RQ ROW_BUFFER_HIT:    1154596
  ROW_BUFFER_MISS:     434291
 AVG DBUS CONGESTED CYCLE: 3.954
WQ ROW_BUFFER_HIT: Channel 1 
  ROW_BUFFER_MISS:       1595
  FULL:       9694
BERTI TO_L1: 7300906 TO_L2: 71284343 TO_L2_BC_MSHR: 59060648
BERTI AVG_LAT: 326.873 NUM_TRACK_LATENCY: 2619888 NUM_CANT_TRACK_LATENCY: 322
BERTI CROSS_PAGE 9262854 NO_CROSS_PAGE: 69322395
BERTI FOUND_BERTI: 48307340 NO_FOUND_BERTI: 6957803
BERTI AVERAGE_ISSUED: 3.37847
CPU 0 L1I Entangling prefetcher final stats
IP accesses: 5877 161dc0 32594 / 889961
IP misses: 3a38 e8e00 629 / 14325
IP hits: 0 0 0 / 0
IP late: 1925 64940 97 / 2959
IP wrong: 127 49c0 59 / 828
miss rate: 0.0160963
coverage: 0
coverage_late: 0.206562
accuracy: 0
accuracy_late: 0.781358
discarded: 0
evicts entangled j table: 0
evicts entangled k table: 256
max bb size: 16
formats: 107 0 195 99 39 100 0 
hist_lookups: 90 102 160 172 124 124 96 91 80 69 53 51 41 25 5 0 33 2656 
hist_lookups_evict: 0.830816 %
hist_lookups_shortlat: 66.8681 %
bb_found_hist: 0 203756 117052 39664 23292 1808 2589 1338 55 0 290 10 97 147 0 97 203 0 0 0 0 0 0 0 0 0 0 0 0 0 0 0 0 0 0 0 0 0 0 0 0 0 0 0 0 0 0 0 0 0 0 0 0 0 0 0 0 0 0 0 0 0 0 0 
bb_found_summary: 695188 390398 1.78072
entangled_found_hist: 0 132348 88718 136519 29711 929 561 0 
entangled_found_summary: 846196 388786 2.17651
bb_ent_found_hist: 0 259086 153964 64078 73045 7654 496 6784 258 0 0 30 0 0 0 1697 0 0 0 0 0 0 0 0 0 0 0 0 0 0 0 0 0 0 0 0 0 0 0 0 0 0 0 0 0 0 0 0 0 0 0 0 0 0 0 0 0 0 0 0 0 0 0 0 
bb_ent_found_summary: 1168011 567092 2.05965
