WARNING: physical memory size is smaller than virtual memory size.

*** ChampSim Multicore Out-of-Order Simulator ***
Warmup Instructions: 30000000
Simulation Instructions: 100000000
Number of CPUs: 1
Page size: 4096

BTB:
Basic BTB sets: 1024 ways: 8
Indirect:
history lengths: 0 0 10 16 27 44 60 96 109 219 449 487 714 1313 2146 3881 
ITTAGE tables: 64768 bytes;Region table: 240 bytes;IUM: 384 bytes;Total Storage= 65392 bytes;
RAS:
RAS size: 64
Berti Prefetcher
CPU 0 Entangling prefetcher
Off-chip DRAM Size: 8 GiB Channels: 2 Width: 64-bit Data Race: 6400 MT/s
Heartbeat CPU 0 instructions: 10000006 cycles: 1724563 heartbeat IPC: 5.799 cumulative IPC: 5.799 (Simulation time: 00 hr 00 min 47 sec)
Heartbeat CPU 0 instructions: 20000000 cycles: 3493319 heartbeat IPC: 5.654 cumulative IPC: 5.725 (Simulation time: 00 hr 01 min 37 sec)
Heartbeat CPU 0 instructions: 30000001 cycles: 5255591 heartbeat IPC: 5.674 cumulative IPC: 5.708 (Simulation time: 00 hr 02 min 26 sec)
Warmup finished CPU 0 instructions: 30000001 cycles: 5255592 cumulative IPC: 5.708 (Simulation time: 00 hr 02 min 26 sec)
Warmup complete CPU 0 instructions: 30000001 cycles: 5255592 cumulative IPC: 5.708 (Simulation time: 00 hr 02 min 26 sec)
*** Reached end of trace: (0, "../traces/public_traces/compute_int/compute_int_18.champsimtrace.xz")
Heartbeat CPU 0 instructions: 40000007 cycles: 7476711 heartbeat IPC: 4.502 cumulative IPC: 4.502 (Simulation time: 00 hr 03 min 31 sec)
Heartbeat CPU 0 instructions: 50000001 cycles: 9975778 heartbeat IPC: 4.001 cumulative IPC: 4.237 (Simulation time: 00 hr 04 min 35 sec)
Heartbeat CPU 0 instructions: 60000003 cycles: 12404651 heartbeat IPC: 4.117 cumulative IPC: 4.196 (Simulation time: 00 hr 05 min 35 sec)
*** Reached end of trace: (0, "../traces/public_traces/compute_int/compute_int_18.champsimtrace.xz")
Heartbeat CPU 0 instructions: 70000010 cycles: 14591596 heartbeat IPC: 4.573 cumulative IPC: 4.284 (Simulation time: 00 hr 06 min 35 sec)
Heartbeat CPU 0 instructions: 80000000 cycles: 17021583 heartbeat IPC: 4.115 cumulative IPC: 4.25 (Simulation time: 00 hr 07 min 36 sec)
Heartbeat CPU 0 instructions: 90000001 cycles: 19440487 heartbeat IPC: 4.134 cumulative IPC: 4.23 (Simulation time: 00 hr 08 min 39 sec)
*** Reached end of trace: (0, "../traces/public_traces/compute_int/compute_int_18.champsimtrace.xz")
Heartbeat CPU 0 instructions: 100000004 cycles: 21621163 heartbeat IPC: 4.586 cumulative IPC: 4.277 (Simulation time: 00 hr 09 min 43 sec)
Heartbeat CPU 0 instructions: 110000005 cycles: 24004677 heartbeat IPC: 4.195 cumulative IPC: 4.267 (Simulation time: 00 hr 10 min 53 sec)
Heartbeat CPU 0 instructions: 120000000 cycles: 26420276 heartbeat IPC: 4.14 cumulative IPC: 4.252 (Simulation time: 00 hr 11 min 49 sec)
*** Reached end of trace: (0, "../traces/public_traces/compute_int/compute_int_18.champsimtrace.xz")
Heartbeat CPU 0 instructions: 130000003 cycles: 28585297 heartbeat IPC: 4.619 cumulative IPC: 4.286 (Simulation time: 00 hr 12 min 35 sec)
Simulation finished CPU 0 instructions: 100000002 cycles: 23329706 cumulative IPC: 4.286 (Simulation time: 00 hr 12 min 35 sec)
Simulation complete CPU 0 instructions: 100000002 cycles: 23329706 cumulative IPC: 4.286 (Simulation time: 00 hr 12 min 35 sec)

ChampSim completed all CPUs

=== Simulation ===
CPU 0 runs ../traces/public_traces/compute_int/compute_int_18.champsimtrace.xz
Region of Interest Statistics

CPU 0 cumulative IPC: 4.286 instructions: 100000002 cycles: 23329706
CPU 0 Branch Prediction Accuracy: 98.99% MPKI: 2.25 Average ROB Occupancy at Mispredict: 48.52
Branch type MPKI
BRANCH_DIRECT_JUMP: 0.00211
BRANCH_INDIRECT: 1.64
BRANCH_CONDITIONAL: 0.602
BRANCH_DIRECT_CALL: 0.00331
BRANCH_INDIRECT_CALL: 0.00235
BRANCH_RETURN: 0.0013

LLC TOTAL        ACCESS:     149721 HIT:     143648 MISS:       6073
LLC LOAD         ACCESS:      25846 HIT:      25702 MISS:        144
LLC RFO          ACCESS:      27602 HIT:      27222 MISS:        380
LLC PREFETCH     ACCESS:      53999 HIT:      48538 MISS:       5461
LLC WRITE        ACCESS:      42158 HIT:      42105 MISS:         53
LLC TRANSLATION  ACCESS:        116 HIT:         81 MISS:         35
LLC PREFETCH REQUESTED:          0 ISSUED:          0 USEFUL:          0 USELESS:          0
LLC AVERAGE MISS LATENCY: 159.3 cycles
cpu0_DTLB TOTAL        ACCESS:   15486144 HIT:   15355452 MISS:     130692
cpu0_DTLB LOAD         ACCESS:   15486144 HIT:   15355452 MISS:     130692
cpu0_DTLB RFO          ACCESS:          0 HIT:          0 MISS:          0
cpu0_DTLB PREFETCH     ACCESS:          0 HIT:          0 MISS:          0
cpu0_DTLB WRITE        ACCESS:          0 HIT:          0 MISS:          0
cpu0_DTLB TRANSLATION  ACCESS:          0 HIT:          0 MISS:          0
cpu0_DTLB PREFETCH REQUESTED:          0 ISSUED:          0 USEFUL:          0 USELESS:          0
cpu0_DTLB AVERAGE MISS LATENCY: 2.981 cycles
cpu0_ITLB TOTAL        ACCESS:   12212461 HIT:   12212152 MISS:        309
cpu0_ITLB LOAD         ACCESS:   12212461 HIT:   12212152 MISS:        309
cpu0_ITLB RFO          ACCESS:          0 HIT:          0 MISS:          0
cpu0_ITLB PREFETCH     ACCESS:          0 HIT:          0 MISS:          0
cpu0_ITLB WRITE        ACCESS:          0 HIT:          0 MISS:          0
cpu0_ITLB TRANSLATION  ACCESS:          0 HIT:          0 MISS:          0
cpu0_ITLB PREFETCH REQUESTED:          0 ISSUED:          0 USEFUL:          0 USELESS:          0
cpu0_ITLB AVERAGE MISS LATENCY: 18.56 cycles
cpu0_L1D TOTAL        ACCESS:   24524493 HIT:   22977224 MISS:    1547269
cpu0_L1D LOAD         ACCESS:   14072702 HIT:   12963543 MISS:    1109159
cpu0_L1D RFO          ACCESS:          0 HIT:          0 MISS:          0
cpu0_L1D PREFETCH     ACCESS:     732484 HIT:     493851 MISS:     238633
cpu0_L1D WRITE        ACCESS:    9719168 HIT:    9519829 MISS:     199339
cpu0_L1D TRANSLATION  ACCESS:        139 HIT:          1 MISS:        138
cpu0_L1D PREFETCH REQUESTED:    1385224 ISSUED:     732461 USEFUL:      40447 USELESS:      21204
cpu0_L1D AVERAGE MISS LATENCY: 4.05 cycles
cpu0_L1I TOTAL        ACCESS:   18421268 HIT:   16684677 MISS:    1736591
cpu0_L1I LOAD         ACCESS:    7428095 HIT:    6508648 MISS:     919447
cpu0_L1I RFO          ACCESS:          0 HIT:          0 MISS:          0
cpu0_L1I PREFETCH     ACCESS:   10993173 HIT:   10176029 MISS:     817144
cpu0_L1I WRITE        ACCESS:          0 HIT:          0 MISS:          0
cpu0_L1I TRANSLATION  ACCESS:          0 HIT:          0 MISS:          0
cpu0_L1I PREFETCH REQUESTED:   58929178 ISSUED:   10993203 USEFUL:     395641 USELESS:     376519
cpu0_L1I AVERAGE MISS LATENCY: 8.71 cycles
cpu0_L2C TOTAL        ACCESS:    4619099 HIT:    4498322 MISS:     120777
cpu0_L2C LOAD         ACCESS:    1225191 HIT:    1198936 MISS:      26255
cpu0_L2C RFO          ACCESS:      91741 HIT:      63511 MISS:      28230
cpu0_L2C PREFETCH     ACCESS:    3130052 HIT:    3063880 MISS:      66172
cpu0_L2C WRITE        ACCESS:     171977 HIT:     171973 MISS:          4
cpu0_L2C TRANSLATION  ACCESS:        138 HIT:         22 MISS:        116
cpu0_L2C PREFETCH REQUESTED:    2213724 ISSUED:    2142137 USEFUL:      12627 USELESS:      23271
cpu0_L2C AVERAGE MISS LATENCY: 26.82 cycles
cpu0_STLB TOTAL        ACCESS:      70509 HIT:      70373 MISS:        136
cpu0_STLB LOAD         ACCESS:      70509 HIT:      70373 MISS:        136
cpu0_STLB RFO          ACCESS:          0 HIT:          0 MISS:          0
cpu0_STLB PREFETCH     ACCESS:          0 HIT:          0 MISS:          0
cpu0_STLB WRITE        ACCESS:          0 HIT:          0 MISS:          0
cpu0_STLB TRANSLATION  ACCESS:          0 HIT:          0 MISS:          0
cpu0_STLB PREFETCH REQUESTED:          0 ISSUED:          0 USEFUL:          0 USELESS:          0
cpu0_STLB AVERAGE MISS LATENCY: 129.9 cycles

DRAM Statistics

Channel 0 RQ ROW_BUFFER_HIT:       1374
  ROW_BUFFER_MISS:       1671
 AVG DBUS CONGESTED CYCLE: 3.771
WQ ROW_BUFFER_HIT: Channel 0 
  ROW_BUFFER_MISS:         17
  FULL:        194

Channel 1 RQ ROW_BUFFER_HIT:       1411
  ROW_BUFFER_MISS:       1564
 AVG DBUS CONGESTED CYCLE: 3.806
WQ ROW_BUFFER_HIT: Channel 1 
  ROW_BUFFER_MISS:         12
  FULL:        147
BERTI TO_L1: 1386009 TO_L2: 532926 TO_L2_BC_MSHR: 9056
BERTI AVG_LAT: 12.7191 NUM_TRACK_LATENCY: 720040 NUM_CANT_TRACK_LATENCY: 0
BERTI CROSS_PAGE 302266 NO_CROSS_PAGE: 1616669
BERTI FOUND_BERTI: 2523910 NO_FOUND_BERTI: 16155462
BERTI AVERAGE_ISSUED: 4.12746
CPU 0 L1I Entangling prefetcher final stats
IP accesses: 225a 89680 105172 / 7430478
IP misses: 231a 8c680 6695 / 921830
IP hits: 0 0 0 / 0
IP late: 1fe2 7f880 3564 / 335748
IP wrong: 205c 81700 4880 / 366096
miss rate: 0.124061
coverage: 0
coverage_late: 0.364219
accuracy: 0
accuracy_late: 0.47838
discarded: 0
evicts entangled j table: 0
evicts entangled k table: 109796
max bb size: 14
formats: 51 0 67155 5898 24029 39097 0 
hist_lookups: 24703 57881 79086 97933 92014 75633 52487 36389 21622 12977 7850 4852 2558 1227 370 0 12 51032 
hist_lookups_evict: 0.00193979 %
hist_lookups_shortlat: 8.24925 %
bb_found_hist: 0 1758546 1083032 854435 584701 249373 118439 101324 58833 25255 10595 10052 1745 16435 128 0 0 0 0 0 0 0 0 0 0 0 0 0 0 0 0 0 0 0 0 0 0 0 0 0 0 0 0 0 0 0 0 0 0 0 0 0 0 0 0 0 0 0 0 0 0 0 0 0 
bb_found_summary: 12644354 4872893 2.59484
entangled_found_hist: 0 643337 676669 2260512 322265 749233 209058 0 
entangled_found_summary: 15067784 4861074 3.09969
bb_ent_found_hist: 0 4877995 2361483 2084038 1120687 840031 563421 109553 268128 34455 37895 24302 10530 51088 859 0 0 0 0 0 0 0 0 0 0 0 0 0 0 0 0 0 0 0 0 0 0 0 0 0 0 0 0 0 0 0 0 0 0 0 0 0 0 0 0 0 0 0 0 0 0 0 0 0 
bb_ent_found_summary: 32587296 12384465 2.63131
