WARNING: physical memory size is smaller than virtual memory size.

*** ChampSim Multicore Out-of-Order Simulator ***
Warmup Instructions: 30000000
Simulation Instructions: 100000000
Number of CPUs: 1
Page size: 4096

BTB:
Basic BTB sets: 1024 ways: 8
Indirect:
history lengths: 0 0 10 16 27 44 60 96 109 219 449 487 714 1313 2146 3881 
ITTAGE tables: 64768 bytes;Region table: 240 bytes;IUM: 384 bytes;Total Storage= 65392 bytes;
RAS:
RAS size: 64
Berti Prefetcher
CPU 0 Entangling prefetcher
Off-chip DRAM Size: 8 GiB Channels: 2 Width: 64-bit Data Race: 6400 MT/s
Heartbeat CPU 0 instructions: 10000001 cycles: 1666891 heartbeat IPC: 5.999 cumulative IPC: 5.999 (Simulation time: 00 hr 00 min 57 sec)
Heartbeat CPU 0 instructions: 20000001 cycles: 3333558 heartbeat IPC: 6 cumulative IPC: 6 (Simulation time: 00 hr 01 min 46 sec)
Heartbeat CPU 0 instructions: 30000003 cycles: 5000224 heartbeat IPC: 6 cumulative IPC: 6 (Simulation time: 00 hr 02 min 36 sec)
Warmup finished CPU 0 instructions: 30000003 cycles: 5000225 cumulative IPC: 6 (Simulation time: 00 hr 02 min 36 sec)
Warmup complete CPU 0 instructions: 30000003 cycles: 5000225 cumulative IPC: 6 (Simulation time: 00 hr 02 min 36 sec)
*** Reached end of trace: (0, "../traces/public_traces/compute_int/compute_int_13.champsimtrace.xz")
Heartbeat CPU 0 instructions: 40000010 cycles: 7404131 heartbeat IPC: 4.16 cumulative IPC: 4.16 (Simulation time: 00 hr 03 min 50 sec)
Heartbeat CPU 0 instructions: 50000009 cycles: 9792281 heartbeat IPC: 4.187 cumulative IPC: 4.174 (Simulation time: 00 hr 05 min 00 sec)
Heartbeat CPU 0 instructions: 60000004 cycles: 12047166 heartbeat IPC: 4.435 cumulative IPC: 4.257 (Simulation time: 00 hr 06 min 06 sec)
*** Reached end of trace: (0, "../traces/public_traces/compute_int/compute_int_13.champsimtrace.xz")
Heartbeat CPU 0 instructions: 70000004 cycles: 14448793 heartbeat IPC: 4.164 cumulative IPC: 4.233 (Simulation time: 00 hr 07 min 25 sec)
Heartbeat CPU 0 instructions: 80000003 cycles: 16849904 heartbeat IPC: 4.165 cumulative IPC: 4.22 (Simulation time: 00 hr 08 min 43 sec)
Heartbeat CPU 0 instructions: 90000011 cycles: 19115609 heartbeat IPC: 4.414 cumulative IPC: 4.251 (Simulation time: 00 hr 09 min 56 sec)
*** Reached end of trace: (0, "../traces/public_traces/compute_int/compute_int_13.champsimtrace.xz")
Heartbeat CPU 0 instructions: 100000010 cycles: 21514378 heartbeat IPC: 4.169 cumulative IPC: 4.239 (Simulation time: 00 hr 11 min 05 sec)
Heartbeat CPU 0 instructions: 110000003 cycles: 23926211 heartbeat IPC: 4.146 cumulative IPC: 4.227 (Simulation time: 00 hr 12 min 14 sec)
Heartbeat CPU 0 instructions: 120000003 cycles: 26180077 heartbeat IPC: 4.437 cumulative IPC: 4.249 (Simulation time: 00 hr 13 min 20 sec)
*** Reached end of trace: (0, "../traces/public_traces/compute_int/compute_int_13.champsimtrace.xz")
Heartbeat CPU 0 instructions: 130000005 cycles: 28569592 heartbeat IPC: 4.185 cumulative IPC: 4.243 (Simulation time: 00 hr 14 min 33 sec)
Simulation finished CPU 0 instructions: 100000002 cycles: 23569368 cumulative IPC: 4.243 (Simulation time: 00 hr 14 min 33 sec)
Simulation complete CPU 0 instructions: 100000002 cycles: 23569368 cumulative IPC: 4.243 (Simulation time: 00 hr 14 min 33 sec)

ChampSim completed all CPUs

=== Simulation ===
CPU 0 runs ../traces/public_traces/compute_int/compute_int_13.champsimtrace.xz
Region of Interest Statistics

CPU 0 cumulative IPC: 4.243 instructions: 100000002 cycles: 23569368
CPU 0 Branch Prediction Accuracy: 99.95% MPKI: 0.05618 Average ROB Occupancy at Mispredict: 174.1
Branch type MPKI
BRANCH_DIRECT_JUMP: 0
BRANCH_INDIRECT: 0.056
BRANCH_CONDITIONAL: 0.00016
BRANCH_DIRECT_CALL: 0
BRANCH_INDIRECT_CALL: 0
BRANCH_RETURN: 0

LLC TOTAL        ACCESS:     293268 HIT:     142583 MISS:     150685
LLC LOAD         ACCESS:       2977 HIT:        994 MISS:       1983
LLC RFO          ACCESS:      94523 HIT:      29110 MISS:      65413
LLC PREFETCH     ACCESS:     100908 HIT:      17650 MISS:      83258
LLC WRITE        ACCESS:      94858 HIT:      94828 MISS:         30
LLC TRANSLATION  ACCESS:          2 HIT:          1 MISS:          1
LLC PREFETCH REQUESTED:          0 ISSUED:          0 USEFUL:          0 USELESS:          0
LLC AVERAGE MISS LATENCY: 1698 cycles
cpu0_DTLB TOTAL        ACCESS:   16277196 HIT:    9454369 MISS:    6822827
cpu0_DTLB LOAD         ACCESS:   16277196 HIT:    9454369 MISS:    6822827
cpu0_DTLB RFO          ACCESS:          0 HIT:          0 MISS:          0
cpu0_DTLB PREFETCH     ACCESS:          0 HIT:          0 MISS:          0
cpu0_DTLB WRITE        ACCESS:          0 HIT:          0 MISS:          0
cpu0_DTLB TRANSLATION  ACCESS:          0 HIT:          0 MISS:          0
cpu0_DTLB PREFETCH REQUESTED:          0 ISSUED:          0 USEFUL:          0 USELESS:          0
cpu0_DTLB AVERAGE MISS LATENCY: 6.53 cycles
cpu0_ITLB TOTAL        ACCESS:       7966 HIT:       7966 MISS:          0
cpu0_ITLB LOAD         ACCESS:       7966 HIT:       7966 MISS:          0
cpu0_ITLB RFO          ACCESS:          0 HIT:          0 MISS:          0
cpu0_ITLB PREFETCH     ACCESS:          0 HIT:          0 MISS:          0
cpu0_ITLB WRITE        ACCESS:          0 HIT:          0 MISS:          0
cpu0_ITLB TRANSLATION  ACCESS:          0 HIT:          0 MISS:          0
cpu0_ITLB PREFETCH REQUESTED:          0 ISSUED:          0 USEFUL:          0 USELESS:          0
cpu0_ITLB AVERAGE MISS LATENCY: -nan cycles
cpu0_L1D TOTAL        ACCESS:   25678934 HIT:   17027317 MISS:    8651617
cpu0_L1D LOAD         ACCESS:   12914322 HIT:    9770717 MISS:    3143605
cpu0_L1D RFO          ACCESS:          0 HIT:          0 MISS:          0
cpu0_L1D PREFETCH     ACCESS:    9822562 HIT:    7253130 MISS:    2569432
cpu0_L1D WRITE        ACCESS:    2942045 HIT:       3470 MISS:    2938575
cpu0_L1D TRANSLATION  ACCESS:          5 HIT:          0 MISS:          5
cpu0_L1D PREFETCH REQUESTED:   87876134 ISSUED:    9822562 USEFUL:    2041845 USELESS:     135170
cpu0_L1D AVERAGE MISS LATENCY: 21.97 cycles
cpu0_L1I TOTAL        ACCESS:      11458 HIT:      11458 MISS:          0
cpu0_L1I LOAD         ACCESS:       6172 HIT:       6172 MISS:          0
cpu0_L1I RFO          ACCESS:          0 HIT:          0 MISS:          0
cpu0_L1I PREFETCH     ACCESS:       5286 HIT:       5286 MISS:          0
cpu0_L1I WRITE        ACCESS:          0 HIT:          0 MISS:          0
cpu0_L1I TRANSLATION  ACCESS:          0 HIT:          0 MISS:          0
cpu0_L1I PREFETCH REQUESTED:       7192 ISSUED:       5286 USEFUL:          0 USELESS:          0
cpu0_L1I AVERAGE MISS LATENCY: -nan cycles
cpu0_L2C TOTAL        ACCESS:   13165908 HIT:   12957656 MISS:     208252
cpu0_L2C LOAD         ACCESS:    1626172 HIT:    1622966 MISS:       3206
cpu0_L2C RFO          ACCESS:    2937804 HIT:    2843225 MISS:      94579
cpu0_L2C PREFETCH     ACCESS:    5663551 HIT:    5553086 MISS:     110465
cpu0_L2C WRITE        ACCESS:    2938376 HIT:    2938376 MISS:          0
cpu0_L2C TRANSLATION  ACCESS:          5 HIT:          3 MISS:          2
cpu0_L2C PREFETCH REQUESTED:    4136720 ISSUED:    3181298 USEFUL:      95100 USELESS:       3717
cpu0_L2C AVERAGE MISS LATENCY: 1248 cycles
cpu0_STLB TOTAL        ACCESS:    5972729 HIT:    5972724 MISS:          5
cpu0_STLB LOAD         ACCESS:    5972729 HIT:    5972724 MISS:          5
cpu0_STLB RFO          ACCESS:          0 HIT:          0 MISS:          0
cpu0_STLB PREFETCH     ACCESS:          0 HIT:          0 MISS:          0
cpu0_STLB WRITE        ACCESS:          0 HIT:          0 MISS:          0
cpu0_STLB TRANSLATION  ACCESS:          0 HIT:          0 MISS:          0
cpu0_STLB PREFETCH REQUESTED:          0 ISSUED:          0 USEFUL:          0 USELESS:          0
cpu0_STLB AVERAGE MISS LATENCY: 1117 cycles

DRAM Statistics

Channel 0 RQ ROW_BUFFER_HIT:      20497
  ROW_BUFFER_MISS:      52396
 AVG DBUS CONGESTED CYCLE: 3.974
WQ ROW_BUFFER_HIT: Channel 0 
  ROW_BUFFER_MISS:       1133
  FULL:      32394

Channel 1 RQ ROW_BUFFER_HIT:      21484
  ROW_BUFFER_MISS:      53990
 AVG DBUS CONGESTED CYCLE: 3.976
WQ ROW_BUFFER_HIT: Channel 1 
  ROW_BUFFER_MISS:       1201
  FULL:      34322
BERTI TO_L1: 58220472 TO_L2: 52562476 TO_L2_BC_MSHR: 33734333
BERTI AVG_LAT: 56.9352 NUM_TRACK_LATENCY: 4929269 NUM_CANT_TRACK_LATENCY: 240
BERTI CROSS_PAGE 74693114 NO_CROSS_PAGE: 36089834
BERTI FOUND_BERTI: 19513984 NO_FOUND_BERTI: 1023660
BERTI AVERAGE_ISSUED: 3.15517
CPU 0 L1I Entangling prefetcher final stats
IP accesses: 53e 14f80 93 / 6172
IP misses: 0 0 0 / 0
IP hits: 0 0 0 / 0
IP late: 0 0 0 / 0
IP wrong: 0 0 0 / 0
miss rate: 0
coverage: -nan
coverage_late: -nan
accuracy: -nan
accuracy_late: -nan
discarded: 0
evicts entangled j table: 0
evicts entangled k table: 0
max bb size: 11
formats: 0 0 0 0 0 0 0 
hist_lookups: 0 0 0 0 0 0 0 0 0 0 0 0 0 0 0 0 0 129 
hist_lookups_evict: 0 %
hist_lookups_shortlat: 100 %
bb_found_hist: 0 1256 392 146 102 40 50 0 0 0 0 10 0 0 0 0 0 0 0 0 0 0 0 0 0 0 0 0 0 0 0 0 0 0 0 0 0 0 0 0 0 0 0 0 0 0 0 0 0 0 0 0 0 0 0 0 0 0 0 0 0 0 0 0 
bb_found_summary: 3496 1996 1.75151
entangled_found_hist: 0 408 292 106 50 0 0 0 
entangled_found_summary: 1510 856 1.76402
bb_ent_found_hist: 0 368 286 96 112 10 40 0 0 0 0 20 0 0 0 0 0 0 0 0 0 0 0 0 0 0 0 0 0 0 0 0 0 0 0 0 0 0 0 0 0 0 0 0 0 0 0 0 0 0 0 0 0 0 0 0 0 0 0 0 0 0 0 0 
bb_ent_found_summary: 2186 932 2.3455
