WARNING: physical memory size is smaller than virtual memory size.

*** ChampSim Multicore Out-of-Order Simulator ***
Warmup Instructions: 30000000
Simulation Instructions: 100000000
Number of CPUs: 1
Page size: 4096

BTB:
Basic BTB sets: 1024 ways: 8
Indirect:
history lengths: 0 0 10 16 27 44 60 96 109 219 449 487 714 1313 2146 3881 
ITTAGE tables: 64768 bytes;Region table: 240 bytes;IUM: 384 bytes;Total Storage= 65392 bytes;
RAS:
RAS size: 64
Berti Prefetcher
CPU 0 Entangling prefetcher
Off-chip DRAM Size: 8 GiB Channels: 2 Width: 64-bit Data Race: 6400 MT/s
Heartbeat CPU 0 instructions: 10000001 cycles: 1697382 heartbeat IPC: 5.891 cumulative IPC: 5.891 (Simulation time: 00 hr 00 min 38 sec)
Heartbeat CPU 0 instructions: 20000002 cycles: 3403452 heartbeat IPC: 5.861 cumulative IPC: 5.876 (Simulation time: 00 hr 01 min 17 sec)
Heartbeat CPU 0 instructions: 30000002 cycles: 5110878 heartbeat IPC: 5.857 cumulative IPC: 5.87 (Simulation time: 00 hr 01 min 56 sec)
Warmup finished CPU 0 instructions: 30000002 cycles: 5110879 cumulative IPC: 5.87 (Simulation time: 00 hr 01 min 56 sec)
Warmup complete CPU 0 instructions: 30000002 cycles: 5110879 cumulative IPC: 5.87 (Simulation time: 00 hr 01 min 56 sec)
*** Reached end of trace: (0, "../traces/public_traces/compute_int/compute_int_11.champsimtrace.xz")
Heartbeat CPU 0 instructions: 40000000 cycles: 10404476 heartbeat IPC: 1.889 cumulative IPC: 1.889 (Simulation time: 00 hr 03 min 23 sec)
Heartbeat CPU 0 instructions: 50000006 cycles: 15699538 heartbeat IPC: 1.889 cumulative IPC: 1.889 (Simulation time: 00 hr 04 min 56 sec)
Heartbeat CPU 0 instructions: 60000000 cycles: 21004533 heartbeat IPC: 1.885 cumulative IPC: 1.888 (Simulation time: 00 hr 06 min 24 sec)
*** Reached end of trace: (0, "../traces/public_traces/compute_int/compute_int_11.champsimtrace.xz")
Heartbeat CPU 0 instructions: 70000001 cycles: 26295780 heartbeat IPC: 1.89 cumulative IPC: 1.888 (Simulation time: 00 hr 07 min 53 sec)
Heartbeat CPU 0 instructions: 80000000 cycles: 31590084 heartbeat IPC: 1.889 cumulative IPC: 1.888 (Simulation time: 00 hr 09 min 30 sec)
Heartbeat CPU 0 instructions: 90000002 cycles: 36889930 heartbeat IPC: 1.887 cumulative IPC: 1.888 (Simulation time: 00 hr 10 min 59 sec)
*** Reached end of trace: (0, "../traces/public_traces/compute_int/compute_int_11.champsimtrace.xz")
Heartbeat CPU 0 instructions: 100000000 cycles: 42178949 heartbeat IPC: 1.891 cumulative IPC: 1.888 (Simulation time: 00 hr 12 min 28 sec)
Heartbeat CPU 0 instructions: 110000003 cycles: 47470682 heartbeat IPC: 1.89 cumulative IPC: 1.889 (Simulation time: 00 hr 14 min 04 sec)
Heartbeat CPU 0 instructions: 120000000 cycles: 52771208 heartbeat IPC: 1.887 cumulative IPC: 1.888 (Simulation time: 00 hr 15 min 28 sec)
*** Reached end of trace: (0, "../traces/public_traces/compute_int/compute_int_11.champsimtrace.xz")
Heartbeat CPU 0 instructions: 130000000 cycles: 58061290 heartbeat IPC: 1.89 cumulative IPC: 1.889 (Simulation time: 00 hr 16 min 54 sec)
Simulation finished CPU 0 instructions: 100000001 cycles: 52950414 cumulative IPC: 1.889 (Simulation time: 00 hr 16 min 54 sec)
Simulation complete CPU 0 instructions: 100000001 cycles: 52950414 cumulative IPC: 1.889 (Simulation time: 00 hr 16 min 54 sec)

ChampSim completed all CPUs

=== Simulation ===
CPU 0 runs ../traces/public_traces/compute_int/compute_int_11.champsimtrace.xz
Region of Interest Statistics

CPU 0 cumulative IPC: 1.889 instructions: 100000001 cycles: 52950414
CPU 0 Branch Prediction Accuracy: 99.89% MPKI: 0.00466 Average ROB Occupancy at Mispredict: 239.8
Branch type MPKI
BRANCH_DIRECT_JUMP: 0
BRANCH_INDIRECT: 0.00084
BRANCH_CONDITIONAL: 0.00382
BRANCH_DIRECT_CALL: 0
BRANCH_INDIRECT_CALL: 0
BRANCH_RETURN: 0

LLC TOTAL        ACCESS:     155082 HIT:     108634 MISS:      46448
LLC LOAD         ACCESS:      37013 HIT:      15632 MISS:      21381
LLC RFO          ACCESS:       8124 HIT:       7650 MISS:        474
LLC PREFETCH     ACCESS:     101291 HIT:      79258 MISS:      22033
LLC WRITE        ACCESS:       8618 HIT:       6083 MISS:       2535
LLC TRANSLATION  ACCESS:         36 HIT:         11 MISS:         25
LLC PREFETCH REQUESTED:          0 ISSUED:          0 USEFUL:          0 USELESS:          0
LLC AVERAGE MISS LATENCY: 93.46 cycles
cpu0_DTLB TOTAL        ACCESS:    7866215 HIT:    7834828 MISS:      31387
cpu0_DTLB LOAD         ACCESS:    7866215 HIT:    7834828 MISS:      31387
cpu0_DTLB RFO          ACCESS:          0 HIT:          0 MISS:          0
cpu0_DTLB PREFETCH     ACCESS:          0 HIT:          0 MISS:          0
cpu0_DTLB WRITE        ACCESS:          0 HIT:          0 MISS:          0
cpu0_DTLB TRANSLATION  ACCESS:          0 HIT:          0 MISS:          0
cpu0_DTLB PREFETCH REQUESTED:          0 ISSUED:          0 USEFUL:          0 USELESS:          0
cpu0_DTLB AVERAGE MISS LATENCY: 2.202 cycles
cpu0_ITLB TOTAL        ACCESS:      90768 HIT:      90695 MISS:         73
cpu0_ITLB LOAD         ACCESS:      90768 HIT:      90695 MISS:         73
cpu0_ITLB RFO          ACCESS:          0 HIT:          0 MISS:          0
cpu0_ITLB PREFETCH     ACCESS:          0 HIT:          0 MISS:          0
cpu0_ITLB WRITE        ACCESS:          0 HIT:          0 MISS:          0
cpu0_ITLB TRANSLATION  ACCESS:          0 HIT:          0 MISS:          0
cpu0_ITLB PREFETCH REQUESTED:          0 ISSUED:          0 USEFUL:          0 USELESS:          0
cpu0_ITLB AVERAGE MISS LATENCY: 48.55 cycles
cpu0_L1D TOTAL        ACCESS:    9019072 HIT:    7223875 MISS:    1795197
cpu0_L1D LOAD         ACCESS:    7858203 HIT:    6900011 MISS:     958192
cpu0_L1D RFO          ACCESS:          0 HIT:          0 MISS:          0
cpu0_L1D PREFETCH     ACCESS:     447235 HIT:     216704 MISS:     230531
cpu0_L1D WRITE        ACCESS:     713596 HIT:     107160 MISS:     606436
cpu0_L1D TRANSLATION  ACCESS:         38 HIT:          0 MISS:         38
cpu0_L1D PREFETCH REQUESTED:    1130286 ISSUED:     447235 USEFUL:      76479 USELESS:       1818
cpu0_L1D AVERAGE MISS LATENCY: 4.075 cycles
cpu0_L1I TOTAL        ACCESS:     133236 HIT:     105112 MISS:      28124
cpu0_L1I LOAD         ACCESS:      61933 HIT:      46201 MISS:      15732
cpu0_L1I RFO          ACCESS:          0 HIT:          0 MISS:          0
cpu0_L1I PREFETCH     ACCESS:      71303 HIT:      58911 MISS:      12392
cpu0_L1I WRITE        ACCESS:          0 HIT:          0 MISS:          0
cpu0_L1I TRANSLATION  ACCESS:          0 HIT:          0 MISS:          0
cpu0_L1I PREFETCH REQUESTED:     127479 ISSUED:      71303 USEFUL:       9891 USELESS:        532
cpu0_L1I AVERAGE MISS LATENCY: 11.28 cycles
cpu0_L2C TOTAL        ACCESS:     908509 HIT:     639462 MISS:     269047
cpu0_L2C LOAD         ACCESS:     207003 HIT:     157441 MISS:      49562
cpu0_L2C RFO          ACCESS:     124742 HIT:     116617 MISS:       8125
cpu0_L2C PREFETCH     ACCESS:     448478 HIT:     237154 MISS:     211324
cpu0_L2C WRITE        ACCESS:     128248 HIT:     128248 MISS:          0
cpu0_L2C TRANSLATION  ACCESS:         38 HIT:          2 MISS:         36
cpu0_L2C PREFETCH REQUESTED:     370838 ISSUED:     284643 USEFUL:       4584 USELESS:       5302
cpu0_L2C AVERAGE MISS LATENCY: 25.28 cycles
cpu0_STLB TOTAL        ACCESS:      13076 HIT:      13051 MISS:         25
cpu0_STLB LOAD         ACCESS:      13076 HIT:      13051 MISS:         25
cpu0_STLB RFO          ACCESS:          0 HIT:          0 MISS:          0
cpu0_STLB PREFETCH     ACCESS:          0 HIT:          0 MISS:          0
cpu0_STLB WRITE        ACCESS:          0 HIT:          0 MISS:          0
cpu0_STLB TRANSLATION  ACCESS:          0 HIT:          0 MISS:          0
cpu0_STLB PREFETCH REQUESTED:          0 ISSUED:          0 USEFUL:          0 USELESS:          0
cpu0_STLB AVERAGE MISS LATENCY: 432.5 cycles

DRAM Statistics

Channel 0 RQ ROW_BUFFER_HIT:      18803
  ROW_BUFFER_MISS:       3282
 AVG DBUS CONGESTED CYCLE: 3.657
WQ ROW_BUFFER_HIT: Channel 0 
  ROW_BUFFER_MISS:        718
  FULL:        758

Channel 1 RQ ROW_BUFFER_HIT:      18530
  ROW_BUFFER_MISS:       3273
 AVG DBUS CONGESTED CYCLE: 3.635
WQ ROW_BUFFER_HIT: Channel 1 
  ROW_BUFFER_MISS:        691
  FULL:        785
BERTI TO_L1: 1546634 TO_L2: 976497 TO_L2_BC_MSHR: 347541
BERTI AVG_LAT: 33.2915 NUM_TRACK_LATENCY: 360306 NUM_CANT_TRACK_LATENCY: 0
BERTI CROSS_PAGE 519230 NO_CROSS_PAGE: 2003901
BERTI FOUND_BERTI: 689309 NO_FOUND_BERTI: 8614451
BERTI AVERAGE_ISSUED: 5.65037
CPU 0 L1I Entangling prefetcher final stats
IP accesses: 390a e4280 1088 / 62407
IP misses: 390a e4280 214 / 16206
IP hits: 0 0 0 / 0
IP late: 18e0 63800 54 / 8486
IP wrong: 215 8540 54 / 531
miss rate: 0.259683
coverage: 0
coverage_late: 0.523634
accuracy: 0
accuracy_late: 0.941112
discarded: 0
evicts entangled j table: 0
evicts entangled k table: 788
max bb size: 47
formats: 98 0 641 357 215 142 0 
hist_lookups: 179 248 476 574 551 502 397 431 360 314 263 177 85 52 25 0 15 5103 
hist_lookups_evict: 0.153815 %
hist_lookups_shortlat: 52.3278 %
bb_found_hist: 0 9522 3406 2714 481 302 104 0 108 108 64 10 0 0 0 0 0 0 0 0 0 0 0 0 68 0 67 0 0 0 0 0 64 0 0 74 0 0 0 0 0 0 0 0 0 0 0 64 0 0 0 0 0 0 0 0 0 0 0 0 0 0 0 0 
bb_found_summary: 42140 17156 2.45629
entangled_found_hist: 0 5052 3874 7690 1606 481 2 0 
entangled_found_summary: 44711 18705 2.39033
bb_ent_found_hist: 0 15333 5632 4827 833 771 338 0 484 216 0 10 0 0 0 0 0 0 0 0 0 0 0 0 0 0 0 0 0 0 0 0 0 0 0 64 0 0 0 0 0 0 0 0 0 0 0 64 0 0 0 0 0 0 0 0 0 0 0 0 0 0 0 0 
bb_ent_found_summary: 61467 28572 2.15131
