WARNING: physical memory size is smaller than virtual memory size.

*** ChampSim Multicore Out-of-Order Simulator ***
Warmup Instructions: 30000000
Simulation Instructions: 100000000
Number of CPUs: 1
Page size: 4096

BTB:
Basic BTB sets: 1024 ways: 8
Indirect:
history lengths: 0 0 10 16 27 44 60 96 109 219 449 487 714 1313 2146 3881 
ITTAGE tables: 64768 bytes;Region table: 240 bytes;IUM: 384 bytes;Total Storage= 65392 bytes;
RAS:
RAS size: 64
Berti Prefetcher
CPU 0 Entangling prefetcher
Off-chip DRAM Size: 8 GiB Channels: 2 Width: 64-bit Data Race: 6400 MT/s
Heartbeat CPU 0 instructions: 10000003 cycles: 1720789 heartbeat IPC: 5.811 cumulative IPC: 5.811 (Simulation time: 00 hr 00 min 46 sec)
Heartbeat CPU 0 instructions: 20000002 cycles: 3449935 heartbeat IPC: 5.783 cumulative IPC: 5.797 (Simulation time: 00 hr 01 min 32 sec)
Heartbeat CPU 0 instructions: 30000006 cycles: 5146360 heartbeat IPC: 5.895 cumulative IPC: 5.829 (Simulation time: 00 hr 02 min 20 sec)
Warmup finished CPU 0 instructions: 30000006 cycles: 5146361 cumulative IPC: 5.829 (Simulation time: 00 hr 02 min 20 sec)
Warmup complete CPU 0 instructions: 30000006 cycles: 5146361 cumulative IPC: 5.829 (Simulation time: 00 hr 02 min 20 sec)
*** Reached end of trace: (0, "../traces/public_traces/compute_int/compute_int_9.champsimtrace.xz")
Heartbeat CPU 0 instructions: 40000000 cycles: 8500632 heartbeat IPC: 2.981 cumulative IPC: 2.981 (Simulation time: 00 hr 03 min 23 sec)
Heartbeat CPU 0 instructions: 50000002 cycles: 11581400 heartbeat IPC: 3.246 cumulative IPC: 3.108 (Simulation time: 00 hr 04 min 24 sec)
Heartbeat CPU 0 instructions: 60000001 cycles: 15150135 heartbeat IPC: 2.802 cumulative IPC: 2.999 (Simulation time: 00 hr 05 min 35 sec)
*** Reached end of trace: (0, "../traces/public_traces/compute_int/compute_int_9.champsimtrace.xz")
Heartbeat CPU 0 instructions: 70000002 cycles: 18543205 heartbeat IPC: 2.947 cumulative IPC: 2.986 (Simulation time: 00 hr 06 min 45 sec)
Heartbeat CPU 0 instructions: 80000011 cycles: 21681246 heartbeat IPC: 3.187 cumulative IPC: 3.024 (Simulation time: 00 hr 07 min 46 sec)
Heartbeat CPU 0 instructions: 90000008 cycles: 25134210 heartbeat IPC: 2.896 cumulative IPC: 3.002 (Simulation time: 00 hr 08 min 51 sec)
*** Reached end of trace: (0, "../traces/public_traces/compute_int/compute_int_9.champsimtrace.xz")
Heartbeat CPU 0 instructions: 100000008 cycles: 28549544 heartbeat IPC: 2.928 cumulative IPC: 2.991 (Simulation time: 00 hr 09 min 55 sec)
Heartbeat CPU 0 instructions: 110000007 cycles: 31671488 heartbeat IPC: 3.203 cumulative IPC: 3.016 (Simulation time: 00 hr 10 min 56 sec)
Heartbeat CPU 0 instructions: 120000000 cycles: 35061810 heartbeat IPC: 2.95 cumulative IPC: 3.008 (Simulation time: 00 hr 12 min 00 sec)
*** Reached end of trace: (0, "../traces/public_traces/compute_int/compute_int_9.champsimtrace.xz")
Heartbeat CPU 0 instructions: 130000001 cycles: 38458191 heartbeat IPC: 2.944 cumulative IPC: 3.002 (Simulation time: 00 hr 13 min 03 sec)
Simulation finished CPU 0 instructions: 100000000 cycles: 33311834 cumulative IPC: 3.002 (Simulation time: 00 hr 13 min 03 sec)
Simulation complete CPU 0 instructions: 100000000 cycles: 33311834 cumulative IPC: 3.002 (Simulation time: 00 hr 13 min 03 sec)

ChampSim completed all CPUs

=== Simulation ===
CPU 0 runs ../traces/public_traces/compute_int/compute_int_9.champsimtrace.xz
Region of Interest Statistics

CPU 0 cumulative IPC: 3.002 instructions: 100000000 cycles: 33311834
CPU 0 Branch Prediction Accuracy: 96.24% MPKI: 7.081 Average ROB Occupancy at Mispredict: 32.05
Branch type MPKI
BRANCH_DIRECT_JUMP: 0.00116
BRANCH_INDIRECT: 3.83
BRANCH_CONDITIONAL: 3.23
BRANCH_DIRECT_CALL: 0.00167
BRANCH_INDIRECT_CALL: 0.0171
BRANCH_RETURN: 0.00162

LLC TOTAL        ACCESS:     148997 HIT:     146485 MISS:       2512
LLC LOAD         ACCESS:      24809 HIT:      24124 MISS:        685
LLC RFO          ACCESS:      35561 HIT:      34959 MISS:        602
LLC PREFETCH     ACCESS:      36101 HIT:      34936 MISS:       1165
LLC WRITE        ACCESS:      51117 HIT:      51092 MISS:         25
LLC TRANSLATION  ACCESS:       1409 HIT:       1374 MISS:         35
LLC PREFETCH REQUESTED:          0 ISSUED:          0 USEFUL:          0 USELESS:          0
LLC AVERAGE MISS LATENCY: 153.6 cycles
cpu0_DTLB TOTAL        ACCESS:   18044334 HIT:   17965605 MISS:      78729
cpu0_DTLB LOAD         ACCESS:   18044334 HIT:   17965605 MISS:      78729
cpu0_DTLB RFO          ACCESS:          0 HIT:          0 MISS:          0
cpu0_DTLB PREFETCH     ACCESS:          0 HIT:          0 MISS:          0
cpu0_DTLB WRITE        ACCESS:          0 HIT:          0 MISS:          0
cpu0_DTLB TRANSLATION  ACCESS:          0 HIT:          0 MISS:          0
cpu0_DTLB PREFETCH REQUESTED:          0 ISSUED:          0 USEFUL:          0 USELESS:          0
cpu0_DTLB AVERAGE MISS LATENCY: 4.258 cycles
cpu0_ITLB TOTAL        ACCESS:   11962453 HIT:   11962453 MISS:          0
cpu0_ITLB LOAD         ACCESS:   11962453 HIT:   11962453 MISS:          0
cpu0_ITLB RFO          ACCESS:          0 HIT:          0 MISS:          0
cpu0_ITLB PREFETCH     ACCESS:          0 HIT:          0 MISS:          0
cpu0_ITLB WRITE        ACCESS:          0 HIT:          0 MISS:          0
cpu0_ITLB TRANSLATION  ACCESS:          0 HIT:          0 MISS:          0
cpu0_ITLB PREFETCH REQUESTED:          0 ISSUED:          0 USEFUL:          0 USELESS:          0
cpu0_ITLB AVERAGE MISS LATENCY: -nan cycles
cpu0_L1D TOTAL        ACCESS:   27374369 HIT:   25976577 MISS:    1397792
cpu0_L1D LOAD         ACCESS:   17346585 HIT:   16851549 MISS:     495036
cpu0_L1D RFO          ACCESS:          0 HIT:          0 MISS:          0
cpu0_L1D PREFETCH     ACCESS:    3239865 HIT:    2964318 MISS:     275547
cpu0_L1D WRITE        ACCESS:    6783899 HIT:    6160234 MISS:     623665
cpu0_L1D TRANSLATION  ACCESS:       4020 HIT:        476 MISS:       3544
cpu0_L1D PREFETCH REQUESTED:    7137480 ISSUED:    3239865 USEFUL:      52194 USELESS:       7368
cpu0_L1D AVERAGE MISS LATENCY: 4.598 cycles
cpu0_L1I TOTAL        ACCESS:   19168148 HIT:   17765103 MISS:    1403045
cpu0_L1I LOAD         ACCESS:    5057316 HIT:    4698066 MISS:     359250
cpu0_L1I RFO          ACCESS:          0 HIT:          0 MISS:          0
cpu0_L1I PREFETCH     ACCESS:   14110832 HIT:   13067037 MISS:    1043795
cpu0_L1I WRITE        ACCESS:          0 HIT:          0 MISS:          0
cpu0_L1I TRANSLATION  ACCESS:          0 HIT:          0 MISS:          0
cpu0_L1I PREFETCH REQUESTED:   94711291 ISSUED:   14110806 USEFUL:     511585 USELESS:     488663
cpu0_L1I AVERAGE MISS LATENCY: 9.832 cycles
cpu0_L2C TOTAL        ACCESS:    3856757 HIT:    3751943 MISS:     104814
cpu0_L2C LOAD         ACCESS:     532653 HIT:     507509 MISS:      25144
cpu0_L2C RFO          ACCESS:     194463 HIT:     158893 MISS:      35570
cpu0_L2C PREFETCH     ACCESS:    2890979 HIT:    2848288 MISS:      42691
cpu0_L2C WRITE        ACCESS:     235118 HIT:     235118 MISS:          0
cpu0_L2C TRANSLATION  ACCESS:       3544 HIT:       2135 MISS:       1409
cpu0_L2C PREFETCH REQUESTED:    1754340 ISSUED:    1669292 USEFUL:       8837 USELESS:      20532
cpu0_L2C AVERAGE MISS LATENCY: 22.42 cycles
cpu0_STLB TOTAL        ACCESS:      41236 HIT:      37216 MISS:       4020
cpu0_STLB LOAD         ACCESS:      41236 HIT:      37216 MISS:       4020
cpu0_STLB RFO          ACCESS:          0 HIT:          0 MISS:          0
cpu0_STLB PREFETCH     ACCESS:          0 HIT:          0 MISS:          0
cpu0_STLB WRITE        ACCESS:          0 HIT:          0 MISS:          0
cpu0_STLB TRANSLATION  ACCESS:          0 HIT:          0 MISS:          0
cpu0_STLB PREFETCH REQUESTED:          0 ISSUED:          0 USEFUL:          0 USELESS:          0
cpu0_STLB AVERAGE MISS LATENCY: 25.19 cycles

DRAM Statistics

Channel 0 RQ ROW_BUFFER_HIT:        164
  ROW_BUFFER_MISS:       1100
 AVG DBUS CONGESTED CYCLE: 3.778
WQ ROW_BUFFER_HIT: Channel 0 
  ROW_BUFFER_MISS:         35
  FULL:        544

Channel 1 RQ ROW_BUFFER_HIT:        162
  ROW_BUFFER_MISS:       1061
 AVG DBUS CONGESTED CYCLE: 3.696
WQ ROW_BUFFER_HIT: Channel 1 
  ROW_BUFFER_MISS:         21
  FULL:        504
BERTI TO_L1: 5414792 TO_L2: 3961799 TO_L2_BC_MSHR: 37435
BERTI AVG_LAT: 16.7484 NUM_TRACK_LATENCY: 439487 NUM_CANT_TRACK_LATENCY: 0
BERTI CROSS_PAGE 1207185 NO_CROSS_PAGE: 8169406
BERTI FOUND_BERTI: 5380880 NO_FOUND_BERTI: 17105547
BERTI AVERAGE_ISSUED: 4.15329
CPU 0 L1I Entangling prefetcher final stats
IP accesses: 249 9240 69859 / 5058234
IP misses: 249 9240 5034 / 360168
IP hits: 0 0 0 / 0
IP late: 2d9 b640 1912 / 156812
IP wrong: 208 8200 4188 / 482793
miss rate: 0.0712043
coverage: 0
coverage_late: 0.435386
accuracy: 0
accuracy_late: 0.245171
discarded: 0
evicts entangled j table: 0
evicts entangled k table: 25191
max bb size: 25
formats: 67 0 3029 16234 9549 10538 0 
hist_lookups: 21153 31758 29774 23097 18053 12596 6989 3598 2192 1553 941 456 238 102 19 0 0 1316 
hist_lookups_evict: 0 %
hist_lookups_shortlat: 0.855463 %
bb_found_hist: 0 816052 449002 490913 377815 268333 198556 179357 122936 170390 131087 108361 89949 76752 13824 36681 27157 30434 12401 2662 29624 23499 12019 0 10088 2791 0 0 0 0 0 0 0 0 0 0 0 0 0 0 0 0 0 0 0 0 0 0 0 0 0 0 0 0 0 0 0 0 0 0 0 0 0 0 
bb_found_summary: 19215259 3680683 5.22057
entangled_found_hist: 0 444881 363497 521142 1265990 389642 147313 0 
entangled_found_summary: 10631349 3132465 3.39393
bb_ent_found_hist: 0 2436132 782903 1034852 887778 441245 387108 381517 176680 426950 175428 468771 197133 317698 227902 294022 278043 199583 4055 4907 144610 297566 52346 0 130588 44268 0 0 0 0 0 0 0 0 0 0 0 0 0 0 0 0 0 0 0 0 0 0 0 0 0 0 0 0 0 0 0 0 0 0 0 0 0 0 
bb_ent_found_summary: 66661809 9792085 6.80773
