WARNING: physical memory size is smaller than virtual memory size.

*** ChampSim Multicore Out-of-Order Simulator ***
Warmup Instructions: 30000000
Simulation Instructions: 100000000
Number of CPUs: 1
Page size: 4096

BTB:
Basic BTB sets: 1024 ways: 8
Indirect:
history lengths: 0 0 10 16 27 44 60 96 109 219 449 487 714 1313 2146 3881 
ITTAGE tables: 64768 bytes;Region table: 240 bytes;IUM: 384 bytes;Total Storage= 65392 bytes;
RAS:
RAS size: 64
Berti Prefetcher
CPU 0 Entangling prefetcher
Off-chip DRAM Size: 8 GiB Channels: 2 Width: 64-bit Data Race: 6400 MT/s
Heartbeat CPU 0 instructions: 10000008 cycles: 1767937 heartbeat IPC: 5.656 cumulative IPC: 5.656 (Simulation time: 00 hr 00 min 58 sec)
Heartbeat CPU 0 instructions: 20000002 cycles: 3534189 heartbeat IPC: 5.662 cumulative IPC: 5.659 (Simulation time: 00 hr 01 min 57 sec)
Heartbeat CPU 0 instructions: 30000001 cycles: 5273923 heartbeat IPC: 5.748 cumulative IPC: 5.688 (Simulation time: 00 hr 02 min 53 sec)
Warmup finished CPU 0 instructions: 30000001 cycles: 5273924 cumulative IPC: 5.688 (Simulation time: 00 hr 02 min 53 sec)
Warmup complete CPU 0 instructions: 30000001 cycles: 5273924 cumulative IPC: 5.688 (Simulation time: 00 hr 02 min 53 sec)
*** Reached end of trace: (0, "../traces/public_traces/compute_int/compute_int_12.champsimtrace.xz")
Heartbeat CPU 0 instructions: 40000004 cycles: 8063890 heartbeat IPC: 3.584 cumulative IPC: 3.584 (Simulation time: 00 hr 04 min 02 sec)
Heartbeat CPU 0 instructions: 50000001 cycles: 10995958 heartbeat IPC: 3.411 cumulative IPC: 3.495 (Simulation time: 00 hr 05 min 16 sec)
Heartbeat CPU 0 instructions: 60000011 cycles: 13675108 heartbeat IPC: 3.733 cumulative IPC: 3.571 (Simulation time: 00 hr 06 min 26 sec)
*** Reached end of trace: (0, "../traces/public_traces/compute_int/compute_int_12.champsimtrace.xz")
Heartbeat CPU 0 instructions: 70000007 cycles: 16367688 heartbeat IPC: 3.714 cumulative IPC: 3.606 (Simulation time: 00 hr 07 min 35 sec)
Heartbeat CPU 0 instructions: 80000010 cycles: 19190855 heartbeat IPC: 3.542 cumulative IPC: 3.593 (Simulation time: 00 hr 08 min 44 sec)
Heartbeat CPU 0 instructions: 90000001 cycles: 21894337 heartbeat IPC: 3.699 cumulative IPC: 3.61 (Simulation time: 00 hr 09 min 47 sec)
*** Reached end of trace: (0, "../traces/public_traces/compute_int/compute_int_12.champsimtrace.xz")
Heartbeat CPU 0 instructions: 100000002 cycles: 24583137 heartbeat IPC: 3.719 cumulative IPC: 3.625 (Simulation time: 00 hr 11 min 03 sec)
Heartbeat CPU 0 instructions: 110000005 cycles: 27233069 heartbeat IPC: 3.774 cumulative IPC: 3.643 (Simulation time: 00 hr 12 min 21 sec)
Heartbeat CPU 0 instructions: 120000007 cycles: 30073180 heartbeat IPC: 3.521 cumulative IPC: 3.629 (Simulation time: 00 hr 13 min 38 sec)
*** Reached end of trace: (0, "../traces/public_traces/compute_int/compute_int_12.champsimtrace.xz")
Heartbeat CPU 0 instructions: 130000007 cycles: 32722168 heartbeat IPC: 3.775 cumulative IPC: 3.643 (Simulation time: 00 hr 14 min 44 sec)
Simulation finished CPU 0 instructions: 100000006 cycles: 27448245 cumulative IPC: 3.643 (Simulation time: 00 hr 14 min 44 sec)
Simulation complete CPU 0 instructions: 100000006 cycles: 27448245 cumulative IPC: 3.643 (Simulation time: 00 hr 14 min 44 sec)

ChampSim completed all CPUs

=== Simulation ===
CPU 0 runs ../traces/public_traces/compute_int/compute_int_12.champsimtrace.xz
Region of Interest Statistics

CPU 0 cumulative IPC: 3.643 instructions: 100000006 cycles: 27448245
CPU 0 Branch Prediction Accuracy: 99.16% MPKI: 1.692 Average ROB Occupancy at Mispredict: 68.69
Branch type MPKI
BRANCH_DIRECT_JUMP: 0.015
BRANCH_INDIRECT: 0.878
BRANCH_CONDITIONAL: 0.557
BRANCH_DIRECT_CALL: 0.0181
BRANCH_INDIRECT_CALL: 0.214
BRANCH_RETURN: 0.00951

LLC TOTAL        ACCESS:     294732 HIT:     117190 MISS:     177542
LLC LOAD         ACCESS:     100343 HIT:      29176 MISS:      71167
LLC RFO          ACCESS:      16052 HIT:       4028 MISS:      12024
LLC PREFETCH     ACCESS:     124551 HIT:      40862 MISS:      83689
LLC WRITE        ACCESS:      43806 HIT:      41814 MISS:       1992
LLC TRANSLATION  ACCESS:       9980 HIT:       1310 MISS:       8670
LLC PREFETCH REQUESTED:          0 ISSUED:          0 USEFUL:          0 USELESS:          0
LLC AVERAGE MISS LATENCY: 192.1 cycles
cpu0_DTLB TOTAL        ACCESS:   17511655 HIT:   16959766 MISS:     551889
cpu0_DTLB LOAD         ACCESS:   17511655 HIT:   16959766 MISS:     551889
cpu0_DTLB RFO          ACCESS:          0 HIT:          0 MISS:          0
cpu0_DTLB PREFETCH     ACCESS:          0 HIT:          0 MISS:          0
cpu0_DTLB WRITE        ACCESS:          0 HIT:          0 MISS:          0
cpu0_DTLB TRANSLATION  ACCESS:          0 HIT:          0 MISS:          0
cpu0_DTLB PREFETCH REQUESTED:          0 ISSUED:          0 USEFUL:          0 USELESS:          0
cpu0_DTLB AVERAGE MISS LATENCY: 8.147 cycles
cpu0_ITLB TOTAL        ACCESS:   10023517 HIT:   10019420 MISS:       4097
cpu0_ITLB LOAD         ACCESS:   10023517 HIT:   10019420 MISS:       4097
cpu0_ITLB RFO          ACCESS:          0 HIT:          0 MISS:          0
cpu0_ITLB PREFETCH     ACCESS:          0 HIT:          0 MISS:          0
cpu0_ITLB WRITE        ACCESS:          0 HIT:          0 MISS:          0
cpu0_ITLB TRANSLATION  ACCESS:          0 HIT:          0 MISS:          0
cpu0_ITLB PREFETCH REQUESTED:          0 ISSUED:          0 USEFUL:          0 USELESS:          0
cpu0_ITLB AVERAGE MISS LATENCY: 81.07 cycles
cpu0_L1D TOTAL        ACCESS:   27895573 HIT:   26343592 MISS:    1551981
cpu0_L1D LOAD         ACCESS:   15486683 HIT:   14270391 MISS:    1216292
cpu0_L1D RFO          ACCESS:          0 HIT:          0 MISS:          0
cpu0_L1D PREFETCH     ACCESS:     236028 HIT:     125856 MISS:     110172
cpu0_L1D WRITE        ACCESS:   12157917 HIT:   11946195 MISS:     211722
cpu0_L1D TRANSLATION  ACCESS:      14945 HIT:       1150 MISS:      13795
cpu0_L1D PREFETCH REQUESTED:     348807 ISSUED:     236028 USEFUL:      11771 USELESS:       1978
cpu0_L1D AVERAGE MISS LATENCY: 16.32 cycles
cpu0_L1I TOTAL        ACCESS:   15115583 HIT:   13193459 MISS:    1922124
cpu0_L1I LOAD         ACCESS:    4942857 HIT:    4122380 MISS:     820477
cpu0_L1I RFO          ACCESS:          0 HIT:          0 MISS:          0
cpu0_L1I PREFETCH     ACCESS:   10172726 HIT:    9071079 MISS:    1101647
cpu0_L1I WRITE        ACCESS:          0 HIT:          0 MISS:          0
cpu0_L1I TRANSLATION  ACCESS:          0 HIT:          0 MISS:          0
cpu0_L1I PREFETCH REQUESTED:   36337891 ISSUED:   10172726 USEFUL:     473479 USELESS:     564118
cpu0_L1I AVERAGE MISS LATENCY: 10.56 cycles
cpu0_L2C TOTAL        ACCESS:    5085645 HIT:    4778920 MISS:     306725
cpu0_L2C LOAD         ACCESS:    1300363 HIT:    1191646 MISS:     108717
cpu0_L2C RFO          ACCESS:      74284 HIT:      57879 MISS:      16405
cpu0_L2C PREFETCH     ACCESS:    3481681 HIT:    3310153 MISS:     171528
cpu0_L2C WRITE        ACCESS:     215595 HIT:     215500 MISS:         95
cpu0_L2C TRANSLATION  ACCESS:      13722 HIT:       3742 MISS:       9980
cpu0_L2C PREFETCH REQUESTED:    2442396 ISSUED:    2339757 USEFUL:      47357 USELESS:      55684
cpu0_L2C AVERAGE MISS LATENCY: 126.1 cycles
cpu0_STLB TOTAL        ACCESS:     408302 HIT:     396098 MISS:      12204
cpu0_STLB LOAD         ACCESS:     408302 HIT:     396098 MISS:      12204
cpu0_STLB RFO          ACCESS:          0 HIT:          0 MISS:          0
cpu0_STLB PREFETCH     ACCESS:          0 HIT:          0 MISS:          0
cpu0_STLB WRITE        ACCESS:          0 HIT:          0 MISS:          0
cpu0_STLB TRANSLATION  ACCESS:          0 HIT:          0 MISS:          0
cpu0_STLB PREFETCH REQUESTED:          0 ISSUED:          0 USEFUL:          0 USELESS:          0
cpu0_STLB AVERAGE MISS LATENCY: 185.2 cycles

DRAM Statistics

Channel 0 RQ ROW_BUFFER_HIT:      22703
  ROW_BUFFER_MISS:      66061
 AVG DBUS CONGESTED CYCLE: 3.849
WQ ROW_BUFFER_HIT: Channel 0 
  ROW_BUFFER_MISS:       4365
  FULL:      11421

Channel 1 RQ ROW_BUFFER_HIT:      21646
  ROW_BUFFER_MISS:      65117
 AVG DBUS CONGESTED CYCLE: 3.846
WQ ROW_BUFFER_HIT: Channel 1 
  ROW_BUFFER_MISS:       4201
  FULL:      11773
BERTI TO_L1: 204707 TO_L2: 317833 TO_L2_BC_MSHR: 5148
BERTI AVG_LAT: 29.2668 NUM_TRACK_LATENCY: 874444 NUM_CANT_TRACK_LATENCY: 0
BERTI CROSS_PAGE 38818 NO_CROSS_PAGE: 483722
BERTI FOUND_BERTI: 2152579 NO_FOUND_BERTI: 18686731
BERTI AVERAGE_ISSUED: 2.47643
CPU 0 L1I Entangling prefetcher final stats
IP accesses: 28dc a3700 33625 / 4954445
IP misses: 296c a5b00 4373 / 832065
IP hits: 0 0 0 / 0
IP late: 19ac 66b00 2939 / 379791
IP wrong: 28ac a2b00 3670 / 555311
miss rate: 0.167944
coverage: 0
coverage_late: 0.456444
accuracy: 0
accuracy_late: 0.40615
discarded: 0
evicts entangled j table: 0
evicts entangled k table: 111244
max bb size: 47
formats: 167 0 55203 32663 30275 25688 0 
hist_lookups: 31573 64814 82127 84192 77111 56024 38705 27158 18825 13222 8999 5449 2821 1495 560 0 12 42618 
hist_lookups_evict: 0.00215942 %
hist_lookups_shortlat: 7.66918 %
bb_found_hist: 0 1234821 705688 391049 303116 130624 76098 37300 54316 25039 23329 21088 7666 0 28 3409 2305 16585 0 3 0 0 0 2 0 0 0 0 0 0 0 0 0 0 0 0 0 0 0 0 0 0 0 0 0 0 0 3 0 0 0 0 0 0 0 0 0 0 0 0 0 0 0 0 
bb_found_summary: 7990341 3032469 2.63493
entangled_found_hist: 0 394031 508287 1602006 448603 180372 19871 0 
entangled_found_summary: 9032121 3153170 2.86446
bb_ent_found_hist: 0 2962589 1293145 1107999 676701 461679 137349 129069 124912 88262 51239 60233 48319 0 365 17786 7457 48714 0 0 0 0 0 0 0 0 0 0 0 0 0 0 0 0 0 0 0 0 0 0 0 0 0 0 0 0 0 3 0 0 0 0 0 0 0 0 0 0 0 0 0 0 0 0 
bb_ent_found_summary: 20383578 7215821 2.82485
