WARNING: physical memory size is smaller than virtual memory size.

*** ChampSim Multicore Out-of-Order Simulator ***
Warmup Instructions: 30000000
Simulation Instructions: 100000000
Number of CPUs: 1
Page size: 4096

BTB:
Basic BTB sets: 1024 ways: 8
Indirect:
history lengths: 0 0 10 16 27 44 60 96 109 219 449 487 714 1313 2146 3881 
ITTAGE tables: 64768 bytes;Region table: 240 bytes;IUM: 384 bytes;Total Storage= 65392 bytes;
RAS:
RAS size: 64
Berti Prefetcher
CPU 0 Entangling prefetcher
Off-chip DRAM Size: 8 GiB Channels: 2 Width: 64-bit Data Race: 6400 MT/s
Heartbeat CPU 0 instructions: 10000007 cycles: 1666757 heartbeat IPC: 6 cumulative IPC: 6 (Simulation time: 00 hr 00 min 42 sec)
Heartbeat CPU 0 instructions: 20000007 cycles: 3339781 heartbeat IPC: 5.977 cumulative IPC: 5.988 (Simulation time: 00 hr 01 min 26 sec)
Heartbeat CPU 0 instructions: 30000001 cycles: 5012440 heartbeat IPC: 5.979 cumulative IPC: 5.985 (Simulation time: 00 hr 02 min 09 sec)
Warmup finished CPU 0 instructions: 30000001 cycles: 5012441 cumulative IPC: 5.985 (Simulation time: 00 hr 02 min 09 sec)
Warmup complete CPU 0 instructions: 30000001 cycles: 5012441 cumulative IPC: 5.985 (Simulation time: 00 hr 02 min 09 sec)
*** Reached end of trace: (0, "../traces/public_traces/compute_int/compute_int_1.champsimtrace.xz")
Heartbeat CPU 0 instructions: 40000005 cycles: 9424645 heartbeat IPC: 2.266 cumulative IPC: 2.266 (Simulation time: 00 hr 03 min 29 sec)
Heartbeat CPU 0 instructions: 50000010 cycles: 14901087 heartbeat IPC: 1.826 cumulative IPC: 2.023 (Simulation time: 00 hr 04 min 57 sec)
Heartbeat CPU 0 instructions: 60000007 cycles: 20340202 heartbeat IPC: 1.839 cumulative IPC: 1.957 (Simulation time: 00 hr 06 min 27 sec)
*** Reached end of trace: (0, "../traces/public_traces/compute_int/compute_int_1.champsimtrace.xz")
Heartbeat CPU 0 instructions: 70000002 cycles: 24874789 heartbeat IPC: 2.205 cumulative IPC: 2.014 (Simulation time: 00 hr 08 min 00 sec)
Heartbeat CPU 0 instructions: 80000006 cycles: 30185511 heartbeat IPC: 1.883 cumulative IPC: 1.986 (Simulation time: 00 hr 09 min 34 sec)
Heartbeat CPU 0 instructions: 90000000 cycles: 35602231 heartbeat IPC: 1.846 cumulative IPC: 1.961 (Simulation time: 00 hr 11 min 02 sec)
*** Reached end of trace: (0, "../traces/public_traces/compute_int/compute_int_1.champsimtrace.xz")
Heartbeat CPU 0 instructions: 100000004 cycles: 40205707 heartbeat IPC: 2.172 cumulative IPC: 1.989 (Simulation time: 00 hr 12 min 24 sec)
Heartbeat CPU 0 instructions: 110000003 cycles: 45372305 heartbeat IPC: 1.936 cumulative IPC: 1.982 (Simulation time: 00 hr 13 min 55 sec)
Heartbeat CPU 0 instructions: 120000000 cycles: 50852433 heartbeat IPC: 1.825 cumulative IPC: 1.963 (Simulation time: 00 hr 15 min 24 sec)
*** Reached end of trace: (0, "../traces/public_traces/compute_int/compute_int_1.champsimtrace.xz")
Heartbeat CPU 0 instructions: 130000002 cycles: 55490140 heartbeat IPC: 2.156 cumulative IPC: 1.981 (Simulation time: 00 hr 16 min 58 sec)
Simulation finished CPU 0 instructions: 100000001 cycles: 50477700 cumulative IPC: 1.981 (Simulation time: 00 hr 16 min 58 sec)
Simulation complete CPU 0 instructions: 100000001 cycles: 50477700 cumulative IPC: 1.981 (Simulation time: 00 hr 16 min 58 sec)

ChampSim completed all CPUs

=== Simulation ===
CPU 0 runs ../traces/public_traces/compute_int/compute_int_1.champsimtrace.xz
Region of Interest Statistics

CPU 0 cumulative IPC: 1.981 instructions: 100000001 cycles: 50477700
CPU 0 Branch Prediction Accuracy: 99.3% MPKI: 1.289 Average ROB Occupancy at Mispredict: 197.1
Branch type MPKI
BRANCH_DIRECT_JUMP: 0
BRANCH_INDIRECT: 1.19
BRANCH_CONDITIONAL: 0.0985
BRANCH_DIRECT_CALL: 0
BRANCH_INDIRECT_CALL: 1e-05
BRANCH_RETURN: 0.00276

LLC TOTAL        ACCESS:    1123702 HIT:      92592 MISS:    1031110
LLC LOAD         ACCESS:     474837 HIT:      31960 MISS:     442877
LLC RFO          ACCESS:       1372 HIT:        311 MISS:       1061
LLC PREFETCH     ACCESS:     602576 HIT:      39579 MISS:     562997
LLC WRITE        ACCESS:      19263 HIT:      16299 MISS:       2964
LLC TRANSLATION  ACCESS:      25654 HIT:       4443 MISS:      21211
LLC PREFETCH REQUESTED:          0 ISSUED:          0 USEFUL:          0 USELESS:          0
LLC AVERAGE MISS LATENCY: 188.7 cycles
cpu0_DTLB TOTAL        ACCESS:   17210664 HIT:   16813585 MISS:     397079
cpu0_DTLB LOAD         ACCESS:   17210664 HIT:   16813585 MISS:     397079
cpu0_DTLB RFO          ACCESS:          0 HIT:          0 MISS:          0
cpu0_DTLB PREFETCH     ACCESS:          0 HIT:          0 MISS:          0
cpu0_DTLB WRITE        ACCESS:          0 HIT:          0 MISS:          0
cpu0_DTLB TRANSLATION  ACCESS:          0 HIT:          0 MISS:          0
cpu0_DTLB PREFETCH REQUESTED:          0 ISSUED:          0 USEFUL:          0 USELESS:          0
cpu0_DTLB AVERAGE MISS LATENCY: 15.48 cycles
cpu0_ITLB TOTAL        ACCESS:      76979 HIT:      76979 MISS:          0
cpu0_ITLB LOAD         ACCESS:      76979 HIT:      76979 MISS:          0
cpu0_ITLB RFO          ACCESS:          0 HIT:          0 MISS:          0
cpu0_ITLB PREFETCH     ACCESS:          0 HIT:          0 MISS:          0
cpu0_ITLB WRITE        ACCESS:          0 HIT:          0 MISS:          0
cpu0_ITLB TRANSLATION  ACCESS:          0 HIT:          0 MISS:          0
cpu0_ITLB PREFETCH REQUESTED:          0 ISSUED:          0 USEFUL:          0 USELESS:          0
cpu0_ITLB AVERAGE MISS LATENCY: -nan cycles
cpu0_L1D TOTAL        ACCESS:   23480441 HIT:   20568213 MISS:    2912228
cpu0_L1D LOAD         ACCESS:   18848384 HIT:   16272427 MISS:    2575957
cpu0_L1D RFO          ACCESS:          0 HIT:          0 MISS:          0
cpu0_L1D PREFETCH     ACCESS:     391974 HIT:     118734 MISS:     273240
cpu0_L1D WRITE        ACCESS:    4189995 HIT:    4170106 MISS:      19889
cpu0_L1D TRANSLATION  ACCESS:      50088 HIT:       6946 MISS:      43142
cpu0_L1D PREFETCH REQUESTED:     468506 ISSUED:     391974 USEFUL:       9392 USELESS:      25210
cpu0_L1D AVERAGE MISS LATENCY: 35.46 cycles
cpu0_L1I TOTAL        ACCESS:     113758 HIT:     112538 MISS:       1220
cpu0_L1I LOAD         ACCESS:      33976 HIT:      33413 MISS:        563
cpu0_L1I RFO          ACCESS:          0 HIT:          0 MISS:          0
cpu0_L1I PREFETCH     ACCESS:      79782 HIT:      79125 MISS:        657
cpu0_L1I WRITE        ACCESS:          0 HIT:          0 MISS:          0
cpu0_L1I TRANSLATION  ACCESS:          0 HIT:          0 MISS:          0
cpu0_L1I PREFETCH REQUESTED:      81375 ISSUED:      79782 USEFUL:        482 USELESS:         15
cpu0_L1I AVERAGE MISS LATENCY: 186.2 cycles
cpu0_L2C TOTAL        ACCESS:    2158421 HIT:     771960 MISS:    1386461
cpu0_L2C LOAD         ACCESS:     769333 HIT:     259617 MISS:     509716
cpu0_L2C RFO          ACCESS:       6183 HIT:       4811 MISS:       1372
cpu0_L2C PREFETCH     ACCESS:    1288207 HIT:     438600 MISS:     849607
cpu0_L2C WRITE        ACCESS:      51656 HIT:      51544 MISS:        112
cpu0_L2C TRANSLATION  ACCESS:      43042 HIT:      17388 MISS:      25654
cpu0_L2C PREFETCH REQUESTED:    1044441 ISSUED:    1027017 USEFUL:     193406 USELESS:     320584
cpu0_L2C AVERAGE MISS LATENCY: 155.5 cycles
cpu0_STLB TOTAL        ACCESS:     139624 HIT:      91047 MISS:      48577
cpu0_STLB LOAD         ACCESS:     139624 HIT:      91047 MISS:      48577
cpu0_STLB RFO          ACCESS:          0 HIT:          0 MISS:          0
cpu0_STLB PREFETCH     ACCESS:          0 HIT:          0 MISS:          0
cpu0_STLB WRITE        ACCESS:          0 HIT:          0 MISS:          0
cpu0_STLB TRANSLATION  ACCESS:          0 HIT:          0 MISS:          0
cpu0_STLB PREFETCH REQUESTED:          0 ISSUED:          0 USEFUL:          0 USELESS:          0
cpu0_STLB AVERAGE MISS LATENCY: 135.2 cycles

DRAM Statistics

Channel 0 RQ ROW_BUFFER_HIT:     134520
  ROW_BUFFER_MISS:     392211
 AVG DBUS CONGESTED CYCLE: 3.862
WQ ROW_BUFFER_HIT: Channel 0 
  ROW_BUFFER_MISS:       4724
  FULL:       3387

Channel 1 RQ ROW_BUFFER_HIT:     131803
  ROW_BUFFER_MISS:     369574
 AVG DBUS CONGESTED CYCLE: 3.851
WQ ROW_BUFFER_HIT: Channel 1 
  ROW_BUFFER_MISS:       4502
  FULL:       3251
BERTI TO_L1: 162384 TO_L2: 562275 TO_L2_BC_MSHR: 43536
BERTI AVG_LAT: 106.408 NUM_TRACK_LATENCY: 1052271 NUM_CANT_TRACK_LATENCY: 0
BERTI CROSS_PAGE 125374 NO_CROSS_PAGE: 599285
BERTI FOUND_BERTI: 9593928 NO_FOUND_BERTI: 15290478
BERTI AVERAGE_ISSUED: 2.93858
CPU 0 L1I Entangling prefetcher final stats
IP accesses: 46a9 11aa40 1506 / 33976
IP misses: 46ee 11bb80 14 / 563
IP hits: 0 0 0 / 0
IP late: 24a 9280 6 / 352
IP wrong: 46ef 11bbc0 3 / 15
miss rate: 0.0165706
coverage: 0
coverage_late: 0.625223
accuracy: 0
accuracy_late: 0.959129
discarded: 0
evicts entangled j table: 0
evicts entangled k table: 13
max bb size: 11
formats: 10 0 11 6 3 8 0 
hist_lookups: 1 2 3 5 17 14 11 6 4 4 4 1 0 2 1 0 15 541 
hist_lookups_evict: 2.37718 %
hist_lookups_shortlat: 85.737 %
bb_found_hist: 0 8154 3881 3704 608 763 815 0 0 0 0 6 0 0 0 0 0 0 0 0 0 0 0 0 0 0 0 0 0 0 0 0 0 0 0 0 0 0 0 0 0 0 0 0 0 0 0 0 0 0 0 0 0 0 0 0 0 0 0 0 0 0 0 0 
bb_found_summary: 38231 17931 2.13212
entangled_found_hist: 0 5523 2169 2497 74 247 78 0 
entangled_found_summary: 19351 10588 1.82764
bb_ent_found_hist: 0 2110 6640 1695 21 689 47 0 0 0 0 6 0 0 0 0 0 0 0 0 0 0 0 0 0 0 0 0 0 0 0 0 0 0 0 0 0 0 0 0 0 0 0 0 0 0 0 0 0 0 0 0 0 0 0 0 0 0 0 0 0 0 0 0 
bb_ent_found_summary: 24352 11208 2.17274
