WARNING: physical memory size is smaller than virtual memory size.

*** ChampSim Multicore Out-of-Order Simulator ***
Warmup Instructions: 30000000
Simulation Instructions: 100000000
Number of CPUs: 1
Page size: 4096

BTB:
Basic BTB sets: 1024 ways: 8
Indirect:
history lengths: 0 0 10 16 27 44 60 96 109 219 449 487 714 1313 2146 3881 
ITTAGE tables: 64768 bytes;Region table: 240 bytes;IUM: 384 bytes;Total Storage= 65392 bytes;
RAS:
RAS size: 64
Berti Prefetcher
CPU 0 Entangling prefetcher
Off-chip DRAM Size: 8 GiB Channels: 2 Width: 64-bit Data Race: 6400 MT/s
Heartbeat CPU 0 instructions: 10000001 cycles: 1666922 heartbeat IPC: 5.999 cumulative IPC: 5.999 (Simulation time: 00 hr 00 min 50 sec)
Heartbeat CPU 0 instructions: 20000002 cycles: 3333590 heartbeat IPC: 6 cumulative IPC: 6 (Simulation time: 00 hr 01 min 40 sec)
Heartbeat CPU 0 instructions: 30000006 cycles: 5000338 heartbeat IPC: 6 cumulative IPC: 6 (Simulation time: 00 hr 02 min 31 sec)
Warmup finished CPU 0 instructions: 30000006 cycles: 5000339 cumulative IPC: 6 (Simulation time: 00 hr 02 min 31 sec)
Warmup complete CPU 0 instructions: 30000006 cycles: 5000339 cumulative IPC: 6 (Simulation time: 00 hr 02 min 31 sec)
*** Reached end of trace: (0, "../traces/public_traces/compute_int/compute_int_23.champsimtrace.xz")
Heartbeat CPU 0 instructions: 40000009 cycles: 20352189 heartbeat IPC: 0.6514 cumulative IPC: 0.6514 (Simulation time: 00 hr 05 min 33 sec)
Heartbeat CPU 0 instructions: 50000005 cycles: 36941291 heartbeat IPC: 0.6028 cumulative IPC: 0.6262 (Simulation time: 00 hr 08 min 33 sec)
Heartbeat CPU 0 instructions: 60000001 cycles: 54552073 heartbeat IPC: 0.5678 cumulative IPC: 0.6054 (Simulation time: 00 hr 11 min 47 sec)
*** Reached end of trace: (0, "../traces/public_traces/compute_int/compute_int_23.champsimtrace.xz")
Heartbeat CPU 0 instructions: 70000004 cycles: 70072685 heartbeat IPC: 0.6443 cumulative IPC: 0.6147 (Simulation time: 00 hr 14 min 36 sec)
Heartbeat CPU 0 instructions: 80000001 cycles: 86396847 heartbeat IPC: 0.6126 cumulative IPC: 0.6143 (Simulation time: 00 hr 17 min 45 sec)
Heartbeat CPU 0 instructions: 90000001 cycles: 104054060 heartbeat IPC: 0.5663 cumulative IPC: 0.6057 (Simulation time: 00 hr 20 min 54 sec)
*** Reached end of trace: (0, "../traces/public_traces/compute_int/compute_int_23.champsimtrace.xz")
Heartbeat CPU 0 instructions: 100000004 cycles: 119971203 heartbeat IPC: 0.6283 cumulative IPC: 0.6088 (Simulation time: 00 hr 23 min 46 sec)
Heartbeat CPU 0 instructions: 110000004 cycles: 136000648 heartbeat IPC: 0.6239 cumulative IPC: 0.6107 (Simulation time: 00 hr 26 min 44 sec)
Heartbeat CPU 0 instructions: 120000010 cycles: 153728778 heartbeat IPC: 0.5641 cumulative IPC: 0.6051 (Simulation time: 00 hr 29 min 49 sec)
*** Reached end of trace: (0, "../traces/public_traces/compute_int/compute_int_23.champsimtrace.xz")
Heartbeat CPU 0 instructions: 130000006 cycles: 169889181 heartbeat IPC: 0.6188 cumulative IPC: 0.6065 (Simulation time: 00 hr 32 min 47 sec)
Simulation finished CPU 0 instructions: 100000000 cycles: 164888843 cumulative IPC: 0.6065 (Simulation time: 00 hr 32 min 47 sec)
Simulation complete CPU 0 instructions: 100000000 cycles: 164888843 cumulative IPC: 0.6065 (Simulation time: 00 hr 32 min 47 sec)

ChampSim completed all CPUs

=== Simulation ===
CPU 0 runs ../traces/public_traces/compute_int/compute_int_23.champsimtrace.xz
Region of Interest Statistics

CPU 0 cumulative IPC: 0.6065 instructions: 100000000 cycles: 164888843
CPU 0 Branch Prediction Accuracy: 91.01% MPKI: 13.94 Average ROB Occupancy at Mispredict: 96.61
Branch type MPKI
BRANCH_DIRECT_JUMP: 0
BRANCH_INDIRECT: 12.3
BRANCH_CONDITIONAL: 1.61
BRANCH_DIRECT_CALL: 0
BRANCH_INDIRECT_CALL: 0
BRANCH_RETURN: 0

LLC TOTAL        ACCESS:    5033287 HIT:    1015520 MISS:    4017767
LLC LOAD         ACCESS:     426344 HIT:       3002 MISS:     423342
LLC RFO          ACCESS:      80196 HIT:          0 MISS:      80196
LLC PREFETCH     ACCESS:    3497795 HIT:      25801 MISS:    3471994
LLC WRITE        ACCESS:     981176 HIT:     980884 MISS:        292
LLC TRANSLATION  ACCESS:      47776 HIT:       5833 MISS:      41943
LLC PREFETCH REQUESTED:          0 ISSUED:          0 USEFUL:          0 USELESS:          0
LLC AVERAGE MISS LATENCY: 433.1 cycles
cpu0_DTLB TOTAL        ACCESS:   27724664 HIT:   26926017 MISS:     798647
cpu0_DTLB LOAD         ACCESS:   27724664 HIT:   26926017 MISS:     798647
cpu0_DTLB RFO          ACCESS:          0 HIT:          0 MISS:          0
cpu0_DTLB PREFETCH     ACCESS:          0 HIT:          0 MISS:          0
cpu0_DTLB WRITE        ACCESS:          0 HIT:          0 MISS:          0
cpu0_DTLB TRANSLATION  ACCESS:          0 HIT:          0 MISS:          0
cpu0_DTLB PREFETCH REQUESTED:          0 ISSUED:          0 USEFUL:          0 USELESS:          0
cpu0_DTLB AVERAGE MISS LATENCY: 29.51 cycles
cpu0_ITLB TOTAL        ACCESS:       8135 HIT:       8135 MISS:          0
cpu0_ITLB LOAD         ACCESS:       8135 HIT:       8135 MISS:          0
cpu0_ITLB RFO          ACCESS:          0 HIT:          0 MISS:          0
cpu0_ITLB PREFETCH     ACCESS:          0 HIT:          0 MISS:          0
cpu0_ITLB WRITE        ACCESS:          0 HIT:          0 MISS:          0
cpu0_ITLB TRANSLATION  ACCESS:          0 HIT:          0 MISS:          0
cpu0_ITLB PREFETCH REQUESTED:          0 ISSUED:          0 USEFUL:          0 USELESS:          0
cpu0_ITLB AVERAGE MISS LATENCY: -nan cycles
cpu0_L1D TOTAL        ACCESS:   43858588 HIT:   31651775 MISS:   12206813
cpu0_L1D LOAD         ACCESS:   16765943 HIT:   14503902 MISS:    2262041
cpu0_L1D RFO          ACCESS:          0 HIT:          0 MISS:          0
cpu0_L1D PREFETCH     ACCESS:   14553200 HIT:    4810293 MISS:    9742907
cpu0_L1D WRITE        ACCESS:   12239079 HIT:   12130114 MISS:     108965
cpu0_L1D TRANSLATION  ACCESS:     300366 HIT:     207466 MISS:      92900
cpu0_L1D PREFETCH REQUESTED:   15478794 ISSUED:   14553183 USEFUL:     712517 USELESS:     196591
cpu0_L1D AVERAGE MISS LATENCY: 33.42 cycles
cpu0_L1I TOTAL        ACCESS:      11790 HIT:      11790 MISS:          0
cpu0_L1I LOAD         ACCESS:       5931 HIT:       5931 MISS:          0
cpu0_L1I RFO          ACCESS:          0 HIT:          0 MISS:          0
cpu0_L1I PREFETCH     ACCESS:       5859 HIT:       5859 MISS:          0
cpu0_L1I WRITE        ACCESS:          0 HIT:          0 MISS:          0
cpu0_L1I TRANSLATION  ACCESS:          0 HIT:          0 MISS:          0
cpu0_L1I PREFETCH REQUESTED:       6879 ISSUED:       5859 USEFUL:          0 USELESS:          0
cpu0_L1I AVERAGE MISS LATENCY: -nan cycles
cpu0_L2C TOTAL        ACCESS:   21710535 HIT:   12473889 MISS:    9236646
cpu0_L2C LOAD         ACCESS:    1324628 HIT:     663975 MISS:     660653
cpu0_L2C RFO          ACCESS:      89107 HIT:       8854 MISS:      80253
cpu0_L2C PREFETCH     ACCESS:   19213978 HIT:   10766021 MISS:    8447957
cpu0_L2C WRITE        ACCESS:     997772 HIT:     997765 MISS:          7
cpu0_L2C TRANSLATION  ACCESS:      85050 HIT:      37274 MISS:      47776
cpu0_L2C PREFETCH REQUESTED:   10399974 ISSUED:   10176745 USEFUL:     742850 USELESS:    1160216
cpu0_L2C AVERAGE MISS LATENCY: 191 cycles
cpu0_STLB TOTAL        ACCESS:     568798 HIT:     272487 MISS:     296311
cpu0_STLB LOAD         ACCESS:     568798 HIT:     272487 MISS:     296311
cpu0_STLB RFO          ACCESS:          0 HIT:          0 MISS:          0
cpu0_STLB PREFETCH     ACCESS:          0 HIT:          0 MISS:          0
cpu0_STLB WRITE        ACCESS:          0 HIT:          0 MISS:          0
cpu0_STLB TRANSLATION  ACCESS:          0 HIT:          0 MISS:          0
cpu0_STLB PREFETCH REQUESTED:          0 ISSUED:          0 USEFUL:          0 USELESS:          0
cpu0_STLB AVERAGE MISS LATENCY: 77.99 cycles

DRAM Statistics

Channel 0 RQ ROW_BUFFER_HIT:     860625
  ROW_BUFFER_MISS:    1198977
 AVG DBUS CONGESTED CYCLE: 3.954
WQ ROW_BUFFER_HIT: Channel 0 
  ROW_BUFFER_MISS:       5669
  FULL:     520752

Channel 1 RQ ROW_BUFFER_HIT:     821186
  ROW_BUFFER_MISS:    1136670
 AVG DBUS CONGESTED CYCLE: 3.924
WQ ROW_BUFFER_HIT: Channel 1 
  ROW_BUFFER_MISS:      24778
  FULL:     423743
BERTI TO_L1: 3528424 TO_L2: 15689362 TO_L2_BC_MSHR: 449159
BERTI AVG_LAT: 143.307 NUM_TRACK_LATENCY: 2911328 NUM_CANT_TRACK_LATENCY: 5
BERTI CROSS_PAGE 11266137 NO_CROSS_PAGE: 7951649
BERTI FOUND_BERTI: 14207622 NO_FOUND_BERTI: 7611197
BERTI AVERAGE_ISSUED: 2.51898
CPU 0 L1I Entangling prefetcher final stats
IP accesses: 46d8 11b600 70 / 5931
IP misses: 0 0 0 / 0
IP hits: 0 0 0 / 0
IP late: 0 0 0 / 0
IP wrong: 0 0 0 / 0
miss rate: 0
coverage: -nan
coverage_late: -nan
accuracy: -nan
accuracy_late: -nan
discarded: 0
evicts entangled j table: 0
evicts entangled k table: 0
max bb size: 11
formats: 0 0 0 0 0 0 0 
hist_lookups: 0 0 0 0 0 0 0 0 0 0 0 0 0 0 0 0 0 144 
hist_lookups_evict: 0 %
hist_lookups_shortlat: 100 %
bb_found_hist: 0 1206 480 152 80 13 50 13 0 0 0 10 0 0 0 0 0 0 0 0 0 0 0 0 0 0 0 0 0 0 0 0 0 0 0 0 0 0 0 0 0 0 0 0 0 0 0 0 0 0 0 0 0 0 0 0 0 0 0 0 0 0 0 0 
bb_found_summary: 3508 2004 1.7505
entangled_found_hist: 0 519 119 176 40 10 0 0 
entangled_found_summary: 1495 864 1.73033
bb_ent_found_hist: 0 443 295 101 20 32 50 0 0 0 0 0 0 0 0 0 0 0 0 0 0 0 0 0 0 0 0 0 0 0 0 0 0 0 0 0 0 0 0 0 0 0 0 0 0 0 0 0 0 0 0 0 0 0 0 0 0 0 0 0 0 0 0 0 
bb_ent_found_summary: 1876 941 1.99363
