WARNING: physical memory size is smaller than virtual memory size.

*** ChampSim Multicore Out-of-Order Simulator ***
Warmup Instructions: 30000000
Simulation Instructions: 100000000
Number of CPUs: 1
Page size: 4096

BTB:
Basic BTB sets: 1024 ways: 8
Indirect:
history lengths: 0 0 10 16 27 44 60 96 109 219 449 487 714 1313 2146 3881 
ITTAGE tables: 64768 bytes;Region table: 240 bytes;IUM: 384 bytes;Total Storage= 65392 bytes;
RAS:
RAS size: 64
Berti Prefetcher
CPU 0 Entangling prefetcher
Off-chip DRAM Size: 8 GiB Channels: 2 Width: 64-bit Data Race: 6400 MT/s
Heartbeat CPU 0 instructions: 10000000 cycles: 1820893 heartbeat IPC: 5.492 cumulative IPC: 5.492 (Simulation time: 00 hr 00 min 43 sec)
Heartbeat CPU 0 instructions: 20000003 cycles: 3641675 heartbeat IPC: 5.492 cumulative IPC: 5.492 (Simulation time: 00 hr 01 min 24 sec)
Heartbeat CPU 0 instructions: 30000008 cycles: 5519865 heartbeat IPC: 5.324 cumulative IPC: 5.435 (Simulation time: 00 hr 02 min 10 sec)
Warmup finished CPU 0 instructions: 30000008 cycles: 5519866 cumulative IPC: 5.435 (Simulation time: 00 hr 02 min 10 sec)
Warmup complete CPU 0 instructions: 30000008 cycles: 5519866 cumulative IPC: 5.435 (Simulation time: 00 hr 02 min 10 sec)
*** Reached end of trace: (0, "../traces/public_traces/compute_int/compute_int_3.champsimtrace.xz")
Heartbeat CPU 0 instructions: 40000006 cycles: 8010557 heartbeat IPC: 4.015 cumulative IPC: 4.015 (Simulation time: 00 hr 03 min 01 sec)
Heartbeat CPU 0 instructions: 50000000 cycles: 10313835 heartbeat IPC: 4.342 cumulative IPC: 4.172 (Simulation time: 00 hr 03 min 49 sec)
Heartbeat CPU 0 instructions: 60000003 cycles: 14000344 heartbeat IPC: 2.713 cumulative IPC: 3.538 (Simulation time: 00 hr 05 min 01 sec)
*** Reached end of trace: (0, "../traces/public_traces/compute_int/compute_int_3.champsimtrace.xz")
Heartbeat CPU 0 instructions: 70000000 cycles: 16498551 heartbeat IPC: 4.003 cumulative IPC: 3.643 (Simulation time: 00 hr 06 min 01 sec)
Heartbeat CPU 0 instructions: 80000003 cycles: 18767195 heartbeat IPC: 4.408 cumulative IPC: 3.774 (Simulation time: 00 hr 06 min 57 sec)
Heartbeat CPU 0 instructions: 90000004 cycles: 22347318 heartbeat IPC: 2.793 cumulative IPC: 3.566 (Simulation time: 00 hr 07 min 53 sec)
*** Reached end of trace: (0, "../traces/public_traces/compute_int/compute_int_3.champsimtrace.xz")
Heartbeat CPU 0 instructions: 100000001 cycles: 24895689 heartbeat IPC: 3.924 cumulative IPC: 3.613 (Simulation time: 00 hr 08 min 37 sec)
Heartbeat CPU 0 instructions: 110000008 cycles: 27149849 heartbeat IPC: 4.436 cumulative IPC: 3.699 (Simulation time: 00 hr 09 min 20 sec)
Heartbeat CPU 0 instructions: 120000001 cycles: 30626854 heartbeat IPC: 2.876 cumulative IPC: 3.585 (Simulation time: 00 hr 10 min 17 sec)
*** Reached end of trace: (0, "../traces/public_traces/compute_int/compute_int_3.champsimtrace.xz")
Heartbeat CPU 0 instructions: 130000007 cycles: 33241821 heartbeat IPC: 3.824 cumulative IPC: 3.607 (Simulation time: 00 hr 11 min 04 sec)
Simulation finished CPU 0 instructions: 100000000 cycles: 27721957 cumulative IPC: 3.607 (Simulation time: 00 hr 11 min 04 sec)
Simulation complete CPU 0 instructions: 100000000 cycles: 27721957 cumulative IPC: 3.607 (Simulation time: 00 hr 11 min 04 sec)

ChampSim completed all CPUs

=== Simulation ===
CPU 0 runs ../traces/public_traces/compute_int/compute_int_3.champsimtrace.xz
Region of Interest Statistics

CPU 0 cumulative IPC: 3.607 instructions: 100000000 cycles: 27721957
CPU 0 Branch Prediction Accuracy: 99.15% MPKI: 1.837 Average ROB Occupancy at Mispredict: 77.35
Branch type MPKI
BRANCH_DIRECT_JUMP: 0
BRANCH_INDIRECT: 1.68
BRANCH_CONDITIONAL: 0.153
BRANCH_DIRECT_CALL: 2e-05
BRANCH_INDIRECT_CALL: 2e-05
BRANCH_RETURN: 4e-05

LLC TOTAL        ACCESS:     343569 HIT:     227451 MISS:     116118
LLC LOAD         ACCESS:     134628 HIT:      85454 MISS:      49174
LLC RFO          ACCESS:      17629 HIT:       5994 MISS:      11635
LLC PREFETCH     ACCESS:     123822 HIT:      76936 MISS:      46886
LLC WRITE        ACCESS:      55446 HIT:      54996 MISS:        450
LLC TRANSLATION  ACCESS:      12044 HIT:       4071 MISS:       7973
LLC PREFETCH REQUESTED:          0 ISSUED:          0 USEFUL:          0 USELESS:          0
LLC AVERAGE MISS LATENCY: 164.4 cycles
cpu0_DTLB TOTAL        ACCESS:   15242267 HIT:   15064762 MISS:     177505
cpu0_DTLB LOAD         ACCESS:   15242267 HIT:   15064762 MISS:     177505
cpu0_DTLB RFO          ACCESS:          0 HIT:          0 MISS:          0
cpu0_DTLB PREFETCH     ACCESS:          0 HIT:          0 MISS:          0
cpu0_DTLB WRITE        ACCESS:          0 HIT:          0 MISS:          0
cpu0_DTLB TRANSLATION  ACCESS:          0 HIT:          0 MISS:          0
cpu0_DTLB PREFETCH REQUESTED:          0 ISSUED:          0 USEFUL:          0 USELESS:          0
cpu0_DTLB AVERAGE MISS LATENCY: 13.2 cycles
cpu0_ITLB TOTAL        ACCESS:    6505510 HIT:    6505491 MISS:         19
cpu0_ITLB LOAD         ACCESS:    6505510 HIT:    6505491 MISS:         19
cpu0_ITLB RFO          ACCESS:          0 HIT:          0 MISS:          0
cpu0_ITLB PREFETCH     ACCESS:          0 HIT:          0 MISS:          0
cpu0_ITLB WRITE        ACCESS:          0 HIT:          0 MISS:          0
cpu0_ITLB TRANSLATION  ACCESS:          0 HIT:          0 MISS:          0
cpu0_ITLB PREFETCH REQUESTED:          0 ISSUED:          0 USEFUL:          0 USELESS:          0
cpu0_ITLB AVERAGE MISS LATENCY: 414.9 cycles
cpu0_L1D TOTAL        ACCESS:   20030799 HIT:   18922715 MISS:    1108084
cpu0_L1D LOAD         ACCESS:   10320676 HIT:    9645183 MISS:     675493
cpu0_L1D RFO          ACCESS:          0 HIT:          0 MISS:          0
cpu0_L1D PREFETCH     ACCESS:      25713 HIT:      10377 MISS:      15336
cpu0_L1D WRITE        ACCESS:    9660528 HIT:    9263178 MISS:     397350
cpu0_L1D TRANSLATION  ACCESS:      23882 HIT:       3977 MISS:      19905
cpu0_L1D PREFETCH REQUESTED:      26207 ISSUED:      25713 USEFUL:        245 USELESS:        212
cpu0_L1D AVERAGE MISS LATENCY: 16.77 cycles
cpu0_L1I TOTAL        ACCESS:   10299607 HIT:   10257585 MISS:      42022
cpu0_L1I LOAD         ACCESS:    2735511 HIT:    2721639 MISS:      13872
cpu0_L1I RFO          ACCESS:          0 HIT:          0 MISS:          0
cpu0_L1I PREFETCH     ACCESS:    7564096 HIT:    7535946 MISS:      28150
cpu0_L1I WRITE        ACCESS:          0 HIT:          0 MISS:          0
cpu0_L1I TRANSLATION  ACCESS:          0 HIT:          0 MISS:          0
cpu0_L1I PREFETCH REQUESTED:   15584467 ISSUED:    7564096 USEFUL:      16647 USELESS:       9601
cpu0_L1I AVERAGE MISS LATENCY: 26.74 cycles
cpu0_L2C TOTAL        ACCESS:    1271483 HIT:     966587 MISS:     304896
cpu0_L2C LOAD         ACCESS:     268974 HIT:     132770 MISS:     136204
cpu0_L2C RFO          ACCESS:     290157 HIT:     272520 MISS:      17637
cpu0_L2C PREFETCH     ACCESS:     345649 HIT:     206765 MISS:     138884
cpu0_L2C WRITE        ACCESS:     346888 HIT:     346761 MISS:        127
cpu0_L2C TRANSLATION  ACCESS:      19815 HIT:       7771 MISS:      12044
cpu0_L2C PREFETCH REQUESTED:     308557 ISSUED:     306091 USEFUL:      25020 USELESS:      92857
cpu0_L2C AVERAGE MISS LATENCY: 81.76 cycles
cpu0_STLB TOTAL        ACCESS:      79851 HIT:      56821 MISS:      23030
cpu0_STLB LOAD         ACCESS:      79851 HIT:      56821 MISS:      23030
cpu0_STLB RFO          ACCESS:          0 HIT:          0 MISS:          0
cpu0_STLB PREFETCH     ACCESS:          0 HIT:          0 MISS:          0
cpu0_STLB WRITE        ACCESS:          0 HIT:          0 MISS:          0
cpu0_STLB TRANSLATION  ACCESS:          0 HIT:          0 MISS:          0
cpu0_STLB PREFETCH REQUESTED:          0 ISSUED:          0 USEFUL:          0 USELESS:          0
cpu0_STLB AVERAGE MISS LATENCY: 96.75 cycles

DRAM Statistics

Channel 0 RQ ROW_BUFFER_HIT:      15388
  ROW_BUFFER_MISS:      44380
 AVG DBUS CONGESTED CYCLE: 3.789
WQ ROW_BUFFER_HIT: Channel 0 
  ROW_BUFFER_MISS:       2661
  FULL:      11109

Channel 1 RQ ROW_BUFFER_HIT:      14351
  ROW_BUFFER_MISS:      41514
 AVG DBUS CONGESTED CYCLE: 3.768
WQ ROW_BUFFER_HIT: Channel 1 
  ROW_BUFFER_MISS:       2440
  FULL:      10042
BERTI TO_L1: 13575 TO_L2: 42517 TO_L2_BC_MSHR: 2621
BERTI AVG_LAT: 41.2931 NUM_TRACK_LATENCY: 343729 NUM_CANT_TRACK_LATENCY: 0
BERTI CROSS_PAGE 7971 NO_CROSS_PAGE: 48121
BERTI FOUND_BERTI: 1749581 NO_FOUND_BERTI: 12021392
BERTI AVERAGE_ISSUED: 2.04322
CPU 0 L1I Entangling prefetcher final stats
IP accesses: f036 3c0d80 42829 / 2737780
IP misses: bae6 2eb980 595 / 16141
IP hits: 0 0 0 / 0
IP late: acda 2b3680 313 / 6522
IP wrong: 3a66 e9980 556 / 9307
miss rate: 0.00589566
coverage: 0
coverage_late: 0.404065
accuracy: 0
accuracy_late: 0.412029
discarded: 0
evicts entangled j table: 0
evicts entangled k table: 1515
max bb size: 21
formats: 92 0 1314 416 224 318 0 
hist_lookups: 598 909 1260 1091 886 664 535 458 446 222 160 100 66 32 14 0 12 2829 
hist_lookups_evict: 0.116709 %
hist_lookups_shortlat: 27.5142 %
bb_found_hist: 0 566081 315320 267182 155046 111221 67175 42680 32082 17108 9359 12101 7539 0 1231 0 12391 0 0 0 0 9381 0 0 0 0 0 0 0 0 0 0 0 0 0 0 0 0 0 0 0 0 0 0 0 0 0 0 0 0 0 0 0 0 0 0 0 0 0 0 0 0 0 0 
bb_found_summary: 5016654 1625897 3.08547
entangled_found_hist: 0 253721 205199 596828 93941 33407 4558 0 
entangled_found_summary: 3024750 1187654 2.54683
bb_ent_found_hist: 0 746846 434061 477850 96118 166236 189942 85064 22180 0 29449 13 0 0 0 0 31403 0 0 0 0 28616 0 0 0 0 0 0 0 0 0 0 0 0 0 0 0 0 0 0 0 0 0 0 0 0 0 0 0 0 0 0 0 0 0 0 0 0 0 0 0 0 0 0 
bb_ent_found_summary: 7574727 2307778 3.28226
