WARNING: physical memory size is smaller than virtual memory size.

*** ChampSim Multicore Out-of-Order Simulator ***
Warmup Instructions: 30000000
Simulation Instructions: 100000000
Number of CPUs: 1
Page size: 4096

BTB:
Basic BTB sets: 1024 ways: 8
Indirect:
history lengths: 0 0 10 16 27 44 60 96 109 219 449 487 714 1313 2146 3881 
ITTAGE tables: 64768 bytes;Region table: 240 bytes;IUM: 384 bytes;Total Storage= 65392 bytes;
RAS:
RAS size: 64
Berti Prefetcher
CPU 0 Entangling prefetcher
Off-chip DRAM Size: 8 GiB Channels: 2 Width: 64-bit Data Race: 6400 MT/s
Heartbeat CPU 0 instructions: 10000001 cycles: 1727000 heartbeat IPC: 5.79 cumulative IPC: 5.79 (Simulation time: 00 hr 00 min 45 sec)
Heartbeat CPU 0 instructions: 20000008 cycles: 3456561 heartbeat IPC: 5.782 cumulative IPC: 5.786 (Simulation time: 00 hr 01 min 32 sec)
Heartbeat CPU 0 instructions: 30000001 cycles: 5191025 heartbeat IPC: 5.765 cumulative IPC: 5.779 (Simulation time: 00 hr 02 min 17 sec)
Warmup finished CPU 0 instructions: 30000001 cycles: 5191026 cumulative IPC: 5.779 (Simulation time: 00 hr 02 min 17 sec)
Warmup complete CPU 0 instructions: 30000001 cycles: 5191026 cumulative IPC: 5.779 (Simulation time: 00 hr 02 min 17 sec)
*** Reached end of trace: (0, "../traces/public_traces/compute_int/compute_int_6.champsimtrace.xz")
Heartbeat CPU 0 instructions: 40000002 cycles: 8359619 heartbeat IPC: 3.156 cumulative IPC: 3.156 (Simulation time: 00 hr 03 min 16 sec)
Heartbeat CPU 0 instructions: 50000002 cycles: 11644609 heartbeat IPC: 3.044 cumulative IPC: 3.099 (Simulation time: 00 hr 04 min 11 sec)
Heartbeat CPU 0 instructions: 60000003 cycles: 14792785 heartbeat IPC: 3.176 cumulative IPC: 3.124 (Simulation time: 00 hr 05 min 08 sec)
*** Reached end of trace: (0, "../traces/public_traces/compute_int/compute_int_6.champsimtrace.xz")
Heartbeat CPU 0 instructions: 70000001 cycles: 17914616 heartbeat IPC: 3.203 cumulative IPC: 3.144 (Simulation time: 00 hr 06 min 05 sec)
Heartbeat CPU 0 instructions: 80000000 cycles: 21151065 heartbeat IPC: 3.09 cumulative IPC: 3.133 (Simulation time: 00 hr 07 min 16 sec)
Heartbeat CPU 0 instructions: 90000001 cycles: 24298357 heartbeat IPC: 3.177 cumulative IPC: 3.14 (Simulation time: 00 hr 08 min 18 sec)
*** Reached end of trace: (0, "../traces/public_traces/compute_int/compute_int_6.champsimtrace.xz")
Heartbeat CPU 0 instructions: 100000002 cycles: 27386105 heartbeat IPC: 3.239 cumulative IPC: 3.154 (Simulation time: 00 hr 09 min 16 sec)
Heartbeat CPU 0 instructions: 110000010 cycles: 30683289 heartbeat IPC: 3.033 cumulative IPC: 3.138 (Simulation time: 00 hr 10 min 12 sec)
Heartbeat CPU 0 instructions: 120000002 cycles: 33825173 heartbeat IPC: 3.183 cumulative IPC: 3.143 (Simulation time: 00 hr 11 min 02 sec)
*** Reached end of trace: (0, "../traces/public_traces/compute_int/compute_int_6.champsimtrace.xz")
Heartbeat CPU 0 instructions: 130000001 cycles: 36862873 heartbeat IPC: 3.292 cumulative IPC: 3.157 (Simulation time: 00 hr 11 min 54 sec)
Simulation finished CPU 0 instructions: 100000000 cycles: 31671848 cumulative IPC: 3.157 (Simulation time: 00 hr 11 min 54 sec)
Simulation complete CPU 0 instructions: 100000000 cycles: 31671848 cumulative IPC: 3.157 (Simulation time: 00 hr 11 min 54 sec)

ChampSim completed all CPUs

=== Simulation ===
CPU 0 runs ../traces/public_traces/compute_int/compute_int_6.champsimtrace.xz
Region of Interest Statistics

CPU 0 cumulative IPC: 3.157 instructions: 100000000 cycles: 31671848
CPU 0 Branch Prediction Accuracy: 96.74% MPKI: 6.255 Average ROB Occupancy at Mispredict: 36.05
Branch type MPKI
BRANCH_DIRECT_JUMP: 0.00198
BRANCH_INDIRECT: 3.39
BRANCH_CONDITIONAL: 2.83
BRANCH_DIRECT_CALL: 0.0008
BRANCH_INDIRECT_CALL: 0.0297
BRANCH_RETURN: 0.00113

LLC TOTAL        ACCESS:      84495 HIT:      84242 MISS:        253
LLC LOAD         ACCESS:      16832 HIT:      16811 MISS:         21
LLC RFO          ACCESS:      15330 HIT:      15320 MISS:         10
LLC PREFETCH     ACCESS:      23951 HIT:      23731 MISS:        220
LLC WRITE        ACCESS:      28164 HIT:      28164 MISS:          0
LLC TRANSLATION  ACCESS:        218 HIT:        216 MISS:          2
LLC PREFETCH REQUESTED:          0 ISSUED:          0 USEFUL:          0 USELESS:          0
LLC AVERAGE MISS LATENCY: 307.5 cycles
cpu0_DTLB TOTAL        ACCESS:   17458289 HIT:   17363609 MISS:      94680
cpu0_DTLB LOAD         ACCESS:   17458289 HIT:   17363609 MISS:      94680
cpu0_DTLB RFO          ACCESS:          0 HIT:          0 MISS:          0
cpu0_DTLB PREFETCH     ACCESS:          0 HIT:          0 MISS:          0
cpu0_DTLB WRITE        ACCESS:          0 HIT:          0 MISS:          0
cpu0_DTLB TRANSLATION  ACCESS:          0 HIT:          0 MISS:          0
cpu0_DTLB PREFETCH REQUESTED:          0 ISSUED:          0 USEFUL:          0 USELESS:          0
cpu0_DTLB AVERAGE MISS LATENCY: 2.82 cycles
cpu0_ITLB TOTAL        ACCESS:   10635885 HIT:   10635882 MISS:          3
cpu0_ITLB LOAD         ACCESS:   10635885 HIT:   10635882 MISS:          3
cpu0_ITLB RFO          ACCESS:          0 HIT:          0 MISS:          0
cpu0_ITLB PREFETCH     ACCESS:          0 HIT:          0 MISS:          0
cpu0_ITLB WRITE        ACCESS:          0 HIT:          0 MISS:          0
cpu0_ITLB TRANSLATION  ACCESS:          0 HIT:          0 MISS:          0
cpu0_ITLB PREFETCH REQUESTED:          0 ISSUED:          0 USEFUL:          0 USELESS:          0
cpu0_ITLB AVERAGE MISS LATENCY: 56.67 cycles
cpu0_L1D TOTAL        ACCESS:   26078696 HIT:   24328973 MISS:    1749723
cpu0_L1D LOAD         ACCESS:   17037455 HIT:   16473242 MISS:     564213
cpu0_L1D RFO          ACCESS:          0 HIT:          0 MISS:          0
cpu0_L1D PREFETCH     ACCESS:    2602316 HIT:    2277294 MISS:     325022
cpu0_L1D WRITE        ACCESS:    6438643 HIT:    5578434 MISS:     860209
cpu0_L1D TRANSLATION  ACCESS:        282 HIT:          3 MISS:        279
cpu0_L1D PREFETCH REQUESTED:    4606766 ISSUED:    2602316 USEFUL:     100913 USELESS:       9027
cpu0_L1D AVERAGE MISS LATENCY: 4.056 cycles
cpu0_L1I TOTAL        ACCESS:   16981796 HIT:   15589226 MISS:    1392570
cpu0_L1I LOAD         ACCESS:    4540990 HIT:    4172729 MISS:     368261
cpu0_L1I RFO          ACCESS:          0 HIT:          0 MISS:          0
cpu0_L1I PREFETCH     ACCESS:   12440806 HIT:   11416497 MISS:    1024309
cpu0_L1I WRITE        ACCESS:          0 HIT:          0 MISS:          0
cpu0_L1I TRANSLATION  ACCESS:          0 HIT:          0 MISS:          0
cpu0_L1I PREFETCH REQUESTED:   81424598 ISSUED:   12440806 USEFUL:     517684 USELESS:     462257
cpu0_L1I AVERAGE MISS LATENCY: 10.03 cycles
cpu0_L2C TOTAL        ACCESS:    4070613 HIT:    4010489 MISS:      60124
cpu0_L2C LOAD         ACCESS:     576638 HIT:     559494 MISS:      17144
cpu0_L2C RFO          ACCESS:     251884 HIT:     236554 MISS:      15330
cpu0_L2C PREFETCH     ACCESS:    2947924 HIT:    2920492 MISS:      27432
cpu0_L2C WRITE        ACCESS:     293888 HIT:     293888 MISS:          0
cpu0_L2C TRANSLATION  ACCESS:        279 HIT:         61 MISS:        218
cpu0_L2C PREFETCH REQUESTED:    1811418 ISSUED:    1713260 USEFUL:       6236 USELESS:      13607
cpu0_L2C AVERAGE MISS LATENCY: 20.03 cycles
cpu0_STLB TOTAL        ACCESS:      47342 HIT:      47060 MISS:        282
cpu0_STLB LOAD         ACCESS:      47342 HIT:      47060 MISS:        282
cpu0_STLB RFO          ACCESS:          0 HIT:          0 MISS:          0
cpu0_STLB PREFETCH     ACCESS:          0 HIT:          0 MISS:          0
cpu0_STLB WRITE        ACCESS:          0 HIT:          0 MISS:          0
cpu0_STLB TRANSLATION  ACCESS:          0 HIT:          0 MISS:          0
cpu0_STLB PREFETCH REQUESTED:          0 ISSUED:          0 USEFUL:          0 USELESS:          0
cpu0_STLB AVERAGE MISS LATENCY: 34.82 cycles

DRAM Statistics

Channel 0 RQ ROW_BUFFER_HIT:         17
  ROW_BUFFER_MISS:         82
 AVG DBUS CONGESTED CYCLE: 3.75
WQ ROW_BUFFER_HIT: Channel 0 
  ROW_BUFFER_MISS:          0
  FULL:          3

Channel 1 RQ ROW_BUFFER_HIT:         45
  ROW_BUFFER_MISS:        109
 AVG DBUS CONGESTED CYCLE: 3.875
WQ ROW_BUFFER_HIT: Channel 1 
  ROW_BUFFER_MISS:          0
  FULL:         24
BERTI TO_L1: 3582956 TO_L2: 2984344 TO_L2_BC_MSHR: 23638
BERTI AVG_LAT: 18.7667 NUM_TRACK_LATENCY: 542034 NUM_CANT_TRACK_LATENCY: 0
BERTI CROSS_PAGE 1472689 NO_CROSS_PAGE: 5094611
BERTI FOUND_BERTI: 5777171 NO_FOUND_BERTI: 16343677
BERTI AVERAGE_ISSUED: 3.47718
CPU 0 L1I Entangling prefetcher final stats
IP accesses: 249 9240 57744 / 4542714
IP misses: 5f71 17dc40 3937 / 369985
IP hits: 0 0 0 / 0
IP late: 202 8080 1634 / 165672
IP wrong: 208 8200 3789 / 456735
miss rate: 0.0814459
coverage: 0
coverage_late: 0.447781
accuracy: 0
accuracy_late: 0.26618
discarded: 0
evicts entangled j table: 0
evicts entangled k table: 25689
max bb size: 29
formats: 91 0 3228 17863 8968 10191 0 
hist_lookups: 21745 31497 30034 23376 17655 12200 7135 3823 2226 1351 795 398 241 113 34 0 0 1311 
hist_lookups_evict: 0 %
hist_lookups_shortlat: 0.851664 %
bb_found_hist: 0 781713 494182 428218 412433 192432 179817 143793 156336 98283 92384 98916 60013 51351 24985 10664 29606 27882 22676 23394 0 21025 0 4171 0 0 0 0 0 8159 0 0 0 0 0 0 0 0 0 0 0 0 0 0 0 0 0 0 0 0 0 0 0 0 0 0 0 0 0 0 0 0 0 0 
bb_found_summary: 16371109 3362433 4.86883
entangled_found_hist: 0 409341 337478 544637 1151336 280560 89659 0 
entangled_found_summary: 9264306 2813011 3.29338
bb_ent_found_hist: 0 1939826 882583 872668 747798 534330 362934 250114 376658 160099 167117 434603 205097 138136 229703 97276 273031 164286 272 174732 0 257596 0 112558 0 0 0 0 0 115870 0 0 0 0 0 0 0 0 0 0 0 0 0 0 0 0 0 0 0 0 0 0 0 0 0 0 0 0 0 0 0 0 0 0 
bb_ent_found_summary: 57596854 8497287 6.77827
