WARNING: physical memory size is smaller than virtual memory size.

*** ChampSim Multicore Out-of-Order Simulator ***
Warmup Instructions: 30000000
Simulation Instructions: 100000000
Number of CPUs: 1
Page size: 4096

BTB:
Basic BTB sets: 1024 ways: 8
Indirect:
history lengths: 0 0 10 16 27 44 60 96 109 219 449 487 714 1313 2146 3881 
ITTAGE tables: 64768 bytes;Region table: 240 bytes;IUM: 384 bytes;Total Storage= 65392 bytes;
RAS:
RAS size: 64
Berti Prefetcher
CPU 0 Entangling prefetcher
Off-chip DRAM Size: 8 GiB Channels: 2 Width: 64-bit Data Race: 6400 MT/s
Heartbeat CPU 0 instructions: 10000011 cycles: 2121259 heartbeat IPC: 4.714 cumulative IPC: 4.714 (Simulation time: 00 hr 00 min 56 sec)
Heartbeat CPU 0 instructions: 20000005 cycles: 4293258 heartbeat IPC: 4.604 cumulative IPC: 4.658 (Simulation time: 00 hr 01 min 50 sec)
Heartbeat CPU 0 instructions: 30000004 cycles: 6443713 heartbeat IPC: 4.65 cumulative IPC: 4.656 (Simulation time: 00 hr 02 min 40 sec)
Warmup finished CPU 0 instructions: 30000004 cycles: 6443714 cumulative IPC: 4.656 (Simulation time: 00 hr 02 min 40 sec)
Warmup complete CPU 0 instructions: 30000004 cycles: 6443714 cumulative IPC: 4.656 (Simulation time: 00 hr 02 min 40 sec)
*** Reached end of trace: (0, "../traces/public_traces/compute_int/compute_int_31.champsimtrace.xz")
Heartbeat CPU 0 instructions: 40000003 cycles: 12982334 heartbeat IPC: 1.529 cumulative IPC: 1.529 (Simulation time: 00 hr 04 min 17 sec)
Heartbeat CPU 0 instructions: 50000000 cycles: 18072400 heartbeat IPC: 1.965 cumulative IPC: 1.72 (Simulation time: 00 hr 05 min 47 sec)
Heartbeat CPU 0 instructions: 60000001 cycles: 24151146 heartbeat IPC: 1.645 cumulative IPC: 1.694 (Simulation time: 00 hr 07 min 36 sec)
*** Reached end of trace: (0, "../traces/public_traces/compute_int/compute_int_31.champsimtrace.xz")
Heartbeat CPU 0 instructions: 70000011 cycles: 30424984 heartbeat IPC: 1.594 cumulative IPC: 1.668 (Simulation time: 00 hr 09 min 18 sec)
Heartbeat CPU 0 instructions: 80000003 cycles: 35744066 heartbeat IPC: 1.88 cumulative IPC: 1.706 (Simulation time: 00 hr 10 min 48 sec)
Heartbeat CPU 0 instructions: 90000004 cycles: 41854367 heartbeat IPC: 1.637 cumulative IPC: 1.694 (Simulation time: 00 hr 12 min 29 sec)
*** Reached end of trace: (0, "../traces/public_traces/compute_int/compute_int_31.champsimtrace.xz")
Heartbeat CPU 0 instructions: 100000008 cycles: 47857190 heartbeat IPC: 1.666 cumulative IPC: 1.69 (Simulation time: 00 hr 14 min 07 sec)
Heartbeat CPU 0 instructions: 110000005 cycles: 53327782 heartbeat IPC: 1.828 cumulative IPC: 1.706 (Simulation time: 00 hr 15 min 39 sec)
Heartbeat CPU 0 instructions: 120000001 cycles: 59481690 heartbeat IPC: 1.625 cumulative IPC: 1.697 (Simulation time: 00 hr 17 min 14 sec)
*** Reached end of trace: (0, "../traces/public_traces/compute_int/compute_int_31.champsimtrace.xz")
Heartbeat CPU 0 instructions: 130000000 cycles: 65351418 heartbeat IPC: 1.704 cumulative IPC: 1.698 (Simulation time: 00 hr 19 min 01 sec)
Simulation finished CPU 0 instructions: 100000008 cycles: 58907706 cumulative IPC: 1.698 (Simulation time: 00 hr 19 min 01 sec)
Simulation complete CPU 0 instructions: 100000008 cycles: 58907706 cumulative IPC: 1.698 (Simulation time: 00 hr 19 min 01 sec)

ChampSim completed all CPUs

=== Simulation ===
CPU 0 runs ../traces/public_traces/compute_int/compute_int_31.champsimtrace.xz
Region of Interest Statistics

CPU 0 cumulative IPC: 1.698 instructions: 100000008 cycles: 58907706
CPU 0 Branch Prediction Accuracy: 97.52% MPKI: 6.094 Average ROB Occupancy at Mispredict: 69.79
Branch type MPKI
BRANCH_DIRECT_JUMP: 0
BRANCH_INDIRECT: 5
BRANCH_CONDITIONAL: 1.09
BRANCH_DIRECT_CALL: 0
BRANCH_INDIRECT_CALL: 0.00542
BRANCH_RETURN: 0.00023

LLC TOTAL        ACCESS:    2361320 HIT:    1377460 MISS:     983860
LLC LOAD         ACCESS:     541096 HIT:     250946 MISS:     290150
LLC RFO          ACCESS:     174507 HIT:      32923 MISS:     141584
LLC PREFETCH     ACCESS:    1145715 HIT:     627572 MISS:     518143
LLC WRITE        ACCESS:     474676 HIT:     464018 MISS:      10658
LLC TRANSLATION  ACCESS:      25326 HIT:       2001 MISS:      23325
LLC PREFETCH REQUESTED:          0 ISSUED:          0 USEFUL:          0 USELESS:          0
LLC AVERAGE MISS LATENCY: 309.3 cycles
cpu0_DTLB TOTAL        ACCESS:   20861756 HIT:   20373708 MISS:     488048
cpu0_DTLB LOAD         ACCESS:   20861756 HIT:   20373708 MISS:     488048
cpu0_DTLB RFO          ACCESS:          0 HIT:          0 MISS:          0
cpu0_DTLB PREFETCH     ACCESS:          0 HIT:          0 MISS:          0
cpu0_DTLB WRITE        ACCESS:          0 HIT:          0 MISS:          0
cpu0_DTLB TRANSLATION  ACCESS:          0 HIT:          0 MISS:          0
cpu0_DTLB PREFETCH REQUESTED:          0 ISSUED:          0 USEFUL:          0 USELESS:          0
cpu0_DTLB AVERAGE MISS LATENCY: 16.17 cycles
cpu0_ITLB TOTAL        ACCESS:    1414698 HIT:    1414698 MISS:          0
cpu0_ITLB LOAD         ACCESS:    1414698 HIT:    1414698 MISS:          0
cpu0_ITLB RFO          ACCESS:          0 HIT:          0 MISS:          0
cpu0_ITLB PREFETCH     ACCESS:          0 HIT:          0 MISS:          0
cpu0_ITLB WRITE        ACCESS:          0 HIT:          0 MISS:          0
cpu0_ITLB TRANSLATION  ACCESS:          0 HIT:          0 MISS:          0
cpu0_ITLB PREFETCH REQUESTED:          0 ISSUED:          0 USEFUL:          0 USELESS:          0
cpu0_ITLB AVERAGE MISS LATENCY: -nan cycles
cpu0_L1D TOTAL        ACCESS:   35560605 HIT:   27482308 MISS:    8078297
cpu0_L1D LOAD         ACCESS:   17391279 HIT:   14175533 MISS:    3215746
cpu0_L1D RFO          ACCESS:          0 HIT:          0 MISS:          0
cpu0_L1D PREFETCH     ACCESS:   11486736 HIT:    7355588 MISS:    4131148
cpu0_L1D WRITE        ACCESS:    6642470 HIT:    5945254 MISS:     697216
cpu0_L1D TRANSLATION  ACCESS:      40120 HIT:       5933 MISS:      34187
cpu0_L1D PREFETCH REQUESTED:   25864174 ISSUED:   11486720 USEFUL:     500600 USELESS:     266991
cpu0_L1D AVERAGE MISS LATENCY: 23.26 cycles
cpu0_L1I TOTAL        ACCESS:    2166729 HIT:    2158898 MISS:       7831
cpu0_L1I LOAD         ACCESS:     599324 HIT:     597630 MISS:       1694
cpu0_L1I RFO          ACCESS:          0 HIT:          0 MISS:          0
cpu0_L1I PREFETCH     ACCESS:    1567405 HIT:    1561268 MISS:       6137
cpu0_L1I WRITE        ACCESS:          0 HIT:          0 MISS:          0
cpu0_L1I TRANSLATION  ACCESS:          0 HIT:          0 MISS:          0
cpu0_L1I PREFETCH REQUESTED:    2896345 ISSUED:    1567405 USEFUL:       4500 USELESS:       1085
cpu0_L1I AVERAGE MISS LATENCY: 196.4 cycles
cpu0_L2C TOTAL        ACCESS:   11304959 HIT:    8677729 MISS:    2627230
cpu0_L2C LOAD         ACCESS:    2028023 HIT:    1442693 MISS:     585330
cpu0_L2C RFO          ACCESS:     276676 HIT:      95346 MISS:     181330
cpu0_L2C PREFETCH     ACCESS:    8335254 HIT:    6500284 MISS:    1834970
cpu0_L2C WRITE        ACCESS:     630930 HIT:     630656 MISS:        274
cpu0_L2C TRANSLATION  ACCESS:      34076 HIT:       8750 MISS:      25326
cpu0_L2C PREFETCH REQUESTED:    5828531 ISSUED:    4687821 USEFUL:     330347 USELESS:     346937
cpu0_L2C AVERAGE MISS LATENCY: 127.7 cycles
cpu0_STLB TOTAL        ACCESS:     299040 HIT:     269983 MISS:      29057
cpu0_STLB LOAD         ACCESS:     299040 HIT:     269983 MISS:      29057
cpu0_STLB RFO          ACCESS:          0 HIT:          0 MISS:          0
cpu0_STLB PREFETCH     ACCESS:          0 HIT:          0 MISS:          0
cpu0_STLB WRITE        ACCESS:          0 HIT:          0 MISS:          0
cpu0_STLB TRANSLATION  ACCESS:          0 HIT:          0 MISS:          0
cpu0_STLB PREFETCH REQUESTED:          0 ISSUED:          0 USEFUL:          0 USELESS:          0
cpu0_STLB AVERAGE MISS LATENCY: 248.2 cycles

DRAM Statistics

Channel 0 RQ ROW_BUFFER_HIT:     128181
  ROW_BUFFER_MISS:     361099
 AVG DBUS CONGESTED CYCLE: 3.912
WQ ROW_BUFFER_HIT: Channel 0 
  ROW_BUFFER_MISS:      22148
  FULL:     151918

Channel 1 RQ ROW_BUFFER_HIT:     127046
  ROW_BUFFER_MISS:     356287
 AVG DBUS CONGESTED CYCLE: 3.91
WQ ROW_BUFFER_HIT: Channel 1 
  ROW_BUFFER_MISS:      21747
  FULL:     151691
BERTI TO_L1: 14435466 TO_L2: 19226102 TO_L2_BC_MSHR: 2295804
BERTI AVG_LAT: 52.9173 NUM_TRACK_LATENCY: 3609202 NUM_CANT_TRACK_LATENCY: 66
BERTI CROSS_PAGE 8996251 NO_CROSS_PAGE: 24665317
BERTI FOUND_BERTI: 12405541 NO_FOUND_BERTI: 11502783
BERTI AVERAGE_ISSUED: 3.99783
CPU 0 L1I Entangling prefetcher final stats
IP accesses: 3ebe faf80 17669 / 602333
IP misses: 54cf 1533c0 214 / 4703
IP hits: 0 0 0 / 0
IP late: 253c 94f00 9 / 911
IP wrong: 479 11e40 88 / 1057
miss rate: 0.00780798
coverage: 0
coverage_late: 0.193707
accuracy: 0
accuracy_late: 0.462907
discarded: 0
evicts entangled j table: 0
evicts entangled k table: 215
max bb size: 18
formats: 60 0 236 34 25 51 0 
hist_lookups: 86 109 121 91 82 92 84 66 61 40 34 19 13 8 5 0 0 512 
hist_lookups_evict: 0 %
hist_lookups_shortlat: 35.9804 %
bb_found_hist: 0 85522 71526 46582 46985 20798 18517 15480 14564 15073 16 14933 4568 2865 0 0 2040 0 3245 0 0 0 0 0 0 0 0 0 0 0 0 0 0 0 0 0 0 0 0 0 0 0 0 0 0 0 0 0 0 0 0 0 0 0 0 0 0 0 0 0 0 0 0 0 
bb_found_summary: 1479415 362714 4.07874
entangled_found_hist: 0 61755 39352 69312 3345 4201 0 0 
entangled_found_summary: 382780 177965 2.15088
bb_ent_found_hist: 0 103838 78680 41115 30318 27173 3481 6397 6926 15796 0 0 6261 0 0 0 2197 0 1272 0 0 0 0 0 0 0 0 0 0 0 0 0 0 0 0 0 0 0 0 0 0 0 0 0 0 0 0 0 0 0 0 0 0 0 0 0 0 0 0 0 0 0 0 0 
bb_ent_found_summary: 1038097 323454 3.20942
