WARNING: physical memory size is smaller than virtual memory size.

*** ChampSim Multicore Out-of-Order Simulator ***
Warmup Instructions: 30000000
Simulation Instructions: 100000000
Number of CPUs: 1
Page size: 4096

BTB:
Basic BTB sets: 1024 ways: 8
Indirect:
history lengths: 0 0 10 16 27 44 60 96 109 219 449 487 714 1313 2146 3881 
ITTAGE tables: 64768 bytes;Region table: 240 bytes;IUM: 384 bytes;Total Storage= 65392 bytes;
RAS:
RAS size: 64
[LLC] INSTR Demand IPV: 1 2 2 1 4 Prefetch IPV: 1 2 1 1 4
[LLC] DATA  Demand IPV: 1 1 1 2 4 Prefetch IPV: 1 1 2 2 4
Berti Prefetcher
CPU 0 Entangling prefetcher
Off-chip DRAM Size: 8 GiB Channels: 2 Width: 64-bit Data Race: 6400 MT/s
[DUEL] Epoch ended. INSTR misses = 33, DATA misses = 32. Winner = DATA
[DUEL] Epoch ended. INSTR misses = 29, DATA misses = 29. Winner = INSTR
[DUEL] Epoch ended. INSTR misses = 32, DATA misses = 32. Winner = INSTR
[DUEL] Epoch ended. INSTR misses = 30, DATA misses = 19. Winner = DATA
[DUEL] Epoch ended. INSTR misses = 18, DATA misses = 29. Winner = INSTR
[DUEL] Epoch ended. INSTR misses = 35, DATA misses = 35. Winner = INSTR
[DUEL] Epoch ended. INSTR misses = 22, DATA misses = 24. Winner = INSTR
[DUEL] Epoch ended. INSTR misses = 29, DATA misses = 28. Winner = DATA
[DUEL] Epoch ended. INSTR misses = 43, DATA misses = 47. Winner = INSTR
[DUEL] Epoch ended. INSTR misses = 57, DATA misses = 55. Winner = DATA
[DUEL] Epoch ended. INSTR misses = 51, DATA misses = 50. Winner = DATA
[DUEL] Epoch ended. INSTR misses = 47, DATA misses = 48. Winner = INSTR
[DUEL] Epoch ended. INSTR misses = 60, DATA misses = 60. Winner = INSTR
[DUEL] Epoch ended. INSTR misses = 35, DATA misses = 36. Winner = INSTR
[DUEL] Epoch ended. INSTR misses = 50, DATA misses = 49. Winner = DATA
[DUEL] Epoch ended. INSTR misses = 60, DATA misses = 59. Winner = DATA
[DUEL] Epoch ended. INSTR misses = 78, DATA misses = 77. Winner = DATA
[DUEL] Epoch ended. INSTR misses = 52, DATA misses = 52. Winner = INSTR
[DUEL] Epoch ended. INSTR misses = 64, DATA misses = 59. Winner = DATA
[DUEL] Epoch ended. INSTR misses = 54, DATA misses = 57. Winner = INSTR
[DUEL] Epoch ended. INSTR misses = 38, DATA misses = 40. Winner = INSTR
[DUEL] Epoch ended. INSTR misses = 58, DATA misses = 58. Winner = INSTR
[DUEL] Epoch ended. INSTR misses = 37, DATA misses = 37. Winner = INSTR
[DUEL] Epoch ended. INSTR misses = 67, DATA misses = 69. Winner = INSTR
[DUEL] Epoch ended. INSTR misses = 47, DATA misses = 39. Winner = DATA
[DUEL] Epoch ended. INSTR misses = 50, DATA misses = 55. Winner = INSTR
[DUEL] Epoch ended. INSTR misses = 46, DATA misses = 43. Winner = DATA
[DUEL] Epoch ended. INSTR misses = 56, DATA misses = 59. Winner = INSTR
[DUEL] Epoch ended. INSTR misses = 23, DATA misses = 22. Winner = DATA
[DUEL] Epoch ended. INSTR misses = 45, DATA misses = 43. Winner = DATA
[DUEL] Epoch ended. INSTR misses = 69, DATA misses = 72. Winner = INSTR
[DUEL] Epoch ended. INSTR misses = 32, DATA misses = 32. Winner = INSTR
[DUEL] Epoch ended. INSTR misses = 63, DATA misses = 64. Winner = INSTR
[DUEL] Epoch ended. INSTR misses = 38, DATA misses = 39. Winner = INSTR
[DUEL] Epoch ended. INSTR misses = 36, DATA misses = 25. Winner = DATA
[DUEL] Epoch ended. INSTR misses = 22, DATA misses = 32. Winner = INSTR
[DUEL] Epoch ended. INSTR misses = 62, DATA misses = 63. Winner = INSTR
[DUEL] Epoch ended. INSTR misses = 43, DATA misses = 45. Winner = INSTR
[DUEL] Epoch ended. INSTR misses = 36, DATA misses = 34. Winner = DATA
Heartbeat CPU 0 instructions: 10000002 cycles: 1675761 heartbeat IPC: 5.967 cumulative IPC: 5.967 (Simulation time: 00 hr 00 min 22 sec)
[DUEL] Epoch ended. INSTR misses = 48, DATA misses = 48. Winner = INSTR
[DUEL] Epoch ended. INSTR misses = 42, DATA misses = 42. Winner = INSTR
[DUEL] Epoch ended. INSTR misses = 45, DATA misses = 43. Winner = DATA
[DUEL] Epoch ended. INSTR misses = 41, DATA misses = 42. Winner = INSTR
[DUEL] Epoch ended. INSTR misses = 32, DATA misses = 32. Winner = INSTR
[DUEL] Epoch ended. INSTR misses = 44, DATA misses = 43. Winner = DATA
[DUEL] Epoch ended. INSTR misses = 24, DATA misses = 29. Winner = INSTR
[DUEL] Epoch ended. INSTR misses = 58, DATA misses = 54. Winner = DATA
[DUEL] Epoch ended. INSTR misses = 33, DATA misses = 33. Winner = INSTR
[DUEL] Epoch ended. INSTR misses = 61, DATA misses = 61. Winner = INSTR
[DUEL] Epoch ended. INSTR misses = 54, DATA misses = 57. Winner = INSTR
[DUEL] Epoch ended. INSTR misses = 48, DATA misses = 47. Winner = DATA
[DUEL] Epoch ended. INSTR misses = 53, DATA misses = 56. Winner = INSTR
[DUEL] Epoch ended. INSTR misses = 52, DATA misses = 50. Winner = DATA
[DUEL] Epoch ended. INSTR misses = 64, DATA misses = 64. Winner = INSTR
[DUEL] Epoch ended. INSTR misses = 46, DATA misses = 44. Winner = DATA
[DUEL] Epoch ended. INSTR misses = 50, DATA misses = 52. Winner = INSTR
[DUEL] Epoch ended. INSTR misses = 48, DATA misses = 47. Winner = DATA
[DUEL] Epoch ended. INSTR misses = 54, DATA misses = 55. Winner = INSTR
[DUEL] Epoch ended. INSTR misses = 39, DATA misses = 28. Winner = DATA
[DUEL] Epoch ended. INSTR misses = 30, DATA misses = 31. Winner = INSTR
[DUEL] Epoch ended. INSTR misses = 16, DATA misses = 17. Winner = INSTR
[DUEL] Epoch ended. INSTR misses = 35, DATA misses = 38. Winner = INSTR
[DUEL] Epoch ended. INSTR misses = 24, DATA misses = 16. Winner = DATA
[DUEL] Epoch ended. INSTR misses = 26, DATA misses = 36. Winner = INSTR
[DUEL] Epoch ended. INSTR misses = 49, DATA misses = 51. Winner = INSTR
[DUEL] Epoch ended. INSTR misses = 79, DATA misses = 79. Winner = INSTR
[DUEL] Epoch ended. INSTR misses = 56, DATA misses = 54. Winner = DATA
[DUEL] Epoch ended. INSTR misses = 22, DATA misses = 22. Winner = INSTR
[DUEL] Epoch ended. INSTR misses = 68, DATA misses = 67. Winner = DATA
[DUEL] Epoch ended. INSTR misses = 107, DATA misses = 109. Winner = INSTR
[DUEL] Epoch ended. INSTR misses = 53, DATA misses = 48. Winner = DATA
[DUEL] Epoch ended. INSTR misses = 77, DATA misses = 78. Winner = INSTR
[DUEL] Epoch ended. INSTR misses = 121, DATA misses = 119. Winner = DATA
[DUEL] Epoch ended. INSTR misses = 16, DATA misses = 16. Winner = INSTR
[DUEL] Epoch ended. INSTR misses = 61, DATA misses = 60. Winner = DATA
[DUEL] Epoch ended. INSTR misses = 51, DATA misses = 51. Winner = INSTR
[DUEL] Epoch ended. INSTR misses = 54, DATA misses = 55. Winner = INSTR
[DUEL] Epoch ended. INSTR misses = 55, DATA misses = 50. Winner = DATA
Heartbeat CPU 0 instructions: 20000009 cycles: 3352291 heartbeat IPC: 5.965 cumulative IPC: 5.966 (Simulation time: 00 hr 00 min 44 sec)
[DUEL] Epoch ended. INSTR misses = 26, DATA misses = 28. Winner = INSTR
[DUEL] Epoch ended. INSTR misses = 39, DATA misses = 39. Winner = INSTR
[DUEL] Epoch ended. INSTR misses = 31, DATA misses = 32. Winner = INSTR
[DUEL] Epoch ended. INSTR misses = 63, DATA misses = 50. Winner = DATA
[DUEL] Epoch ended. INSTR misses = 20, DATA misses = 32. Winner = INSTR
[DUEL] Epoch ended. INSTR misses = 16, DATA misses = 16. Winner = INSTR
[DUEL] Epoch ended. INSTR misses = 19, DATA misses = 19. Winner = INSTR
[DUEL] Epoch ended. INSTR misses = 67, DATA misses = 67. Winner = INSTR
[DUEL] Epoch ended. INSTR misses = 47, DATA misses = 44. Winner = DATA
[DUEL] Epoch ended. INSTR misses = 20, DATA misses = 22. Winner = INSTR
[DUEL] Epoch ended. INSTR misses = 26, DATA misses = 26. Winner = INSTR
[DUEL] Epoch ended. INSTR misses = 44, DATA misses = 44. Winner = INSTR
[DUEL] Epoch ended. INSTR misses = 16, DATA misses = 16. Winner = INSTR
[DUEL] Epoch ended. INSTR misses = 63, DATA misses = 64. Winner = INSTR
[DUEL] Epoch ended. INSTR misses = 9, DATA misses = 11. Winner = INSTR
[DUEL] Epoch ended. INSTR misses = 48, DATA misses = 47. Winner = DATA
[DUEL] Epoch ended. INSTR misses = 15, DATA misses = 16. Winner = INSTR
[DUEL] Epoch ended. INSTR misses = 23, DATA misses = 22. Winner = DATA
[DUEL] Epoch ended. INSTR misses = 47, DATA misses = 48. Winner = INSTR
[DUEL] Epoch ended. INSTR misses = 17, DATA misses = 16. Winner = DATA
[DUEL] Epoch ended. INSTR misses = 16, DATA misses = 16. Winner = INSTR
[DUEL] Epoch ended. INSTR misses = 76, DATA misses = 75. Winner = DATA
[DUEL] Epoch ended. INSTR misses = 31, DATA misses = 26. Winner = DATA
[DUEL] Epoch ended. INSTR misses = 26, DATA misses = 25. Winner = DATA
[DUEL] Epoch ended. INSTR misses = 54, DATA misses = 60. Winner = INSTR
[DUEL] Epoch ended. INSTR misses = 93, DATA misses = 93. Winner = INSTR
[DUEL] Epoch ended. INSTR misses = 85, DATA misses = 86. Winner = INSTR
[DUEL] Epoch ended. INSTR misses = 36, DATA misses = 39. Winner = INSTR
[DUEL] Epoch ended. INSTR misses = 45, DATA misses = 44. Winner = DATA
[DUEL] Epoch ended. INSTR misses = 42, DATA misses = 38. Winner = DATA
[DUEL] Epoch ended. INSTR misses = 89, DATA misses = 93. Winner = INSTR
[DUEL] Epoch ended. INSTR misses = 41, DATA misses = 42. Winner = INSTR
[DUEL] Epoch ended. INSTR misses = 62, DATA misses = 61. Winner = DATA
[DUEL] Epoch ended. INSTR misses = 34, DATA misses = 36. Winner = INSTR
[DUEL] Epoch ended. INSTR misses = 80, DATA misses = 80. Winner = INSTR
[DUEL] Epoch ended. INSTR misses = 77, DATA misses = 78. Winner = INSTR
[DUEL] Epoch ended. INSTR misses = 51, DATA misses = 50. Winner = DATA
[DUEL] Epoch ended. INSTR misses = 11, DATA misses = 12. Winner = INSTR
[DUEL] Epoch ended. INSTR misses = 45, DATA misses = 43. Winner = DATA
Heartbeat CPU 0 instructions: 30000010 cycles: 5018958 heartbeat IPC: 6 cumulative IPC: 5.977 (Simulation time: 00 hr 01 min 07 sec)
Warmup finished CPU 0 instructions: 30000010 cycles: 5018959 cumulative IPC: 5.977 (Simulation time: 00 hr 01 min 07 sec)
Warmup complete CPU 0 instructions: 30000010 cycles: 5018959 cumulative IPC: 5.977 (Simulation time: 00 hr 01 min 07 sec)
*** Reached end of trace: (0, "../traces/public_traces/compute_fp/compute_fp_10.champsimtrace.xz")
[DUEL] Epoch ended. INSTR misses = 7, DATA misses = 6. Winner = DATA
[DUEL] Epoch ended. INSTR misses = 13, DATA misses = 11. Winner = DATA
[DUEL] Epoch ended. INSTR misses = 20, DATA misses = 21. Winner = INSTR
[DUEL] Epoch ended. INSTR misses = 1, DATA misses = 0. Winner = DATA
[DUEL] Epoch ended. INSTR misses = 4, DATA misses = 5. Winner = INSTR
[DUEL] Epoch ended. INSTR misses = 26, DATA misses = 29. Winner = INSTR
[DUEL] Epoch ended. INSTR misses = 16, DATA misses = 16. Winner = INSTR
[DUEL] Epoch ended. INSTR misses = 31, DATA misses = 31. Winner = INSTR
[DUEL] Epoch ended. INSTR misses = 35, DATA misses = 37. Winner = INSTR
[DUEL] Epoch ended. INSTR misses = 67, DATA misses = 64. Winner = DATA
[DUEL] Epoch ended. INSTR misses = 8, DATA misses = 6. Winner = DATA
[DUEL] Epoch ended. INSTR misses = 88, DATA misses = 90. Winner = INSTR
[DUEL] Epoch ended. INSTR misses = 46, DATA misses = 47. Winner = INSTR
[DUEL] Epoch ended. INSTR misses = 36, DATA misses = 31. Winner = DATA
[DUEL] Epoch ended. INSTR misses = 61, DATA misses = 62. Winner = INSTR
[DUEL] Epoch ended. INSTR misses = 55, DATA misses = 52. Winner = DATA
[DUEL] Epoch ended. INSTR misses = 71, DATA misses = 71. Winner = INSTR
[DUEL] Epoch ended. INSTR misses = 63, DATA misses = 64. Winner = INSTR
[DUEL] Epoch ended. INSTR misses = 44, DATA misses = 43. Winner = DATA
[DUEL] Epoch ended. INSTR misses = 51, DATA misses = 52. Winner = INSTR
[DUEL] Epoch ended. INSTR misses = 61, DATA misses = 61. Winner = INSTR
[DUEL] Epoch ended. INSTR misses = 55, DATA misses = 53. Winner = DATA
[DUEL] Epoch ended. INSTR misses = 40, DATA misses = 41. Winner = INSTR
[DUEL] Epoch ended. INSTR misses = 55, DATA misses = 55. Winner = INSTR
[DUEL] Epoch ended. INSTR misses = 55, DATA misses = 52. Winner = DATA
[DUEL] Epoch ended. INSTR misses = 54, DATA misses = 54. Winner = INSTR
[DUEL] Epoch ended. INSTR misses = 46, DATA misses = 43. Winner = DATA
[DUEL] Epoch ended. INSTR misses = 39, DATA misses = 42. Winner = INSTR
[DUEL] Epoch ended. INSTR misses = 39, DATA misses = 38. Winner = DATA
[DUEL] Epoch ended. INSTR misses = 44, DATA misses = 43. Winner = DATA
[DUEL] Epoch ended. INSTR misses = 37, DATA misses = 40. Winner = INSTR
[DUEL] Epoch ended. INSTR misses = 61, DATA misses = 61. Winner = INSTR
[DUEL] Epoch ended. INSTR misses = 66, DATA misses = 67. Winner = INSTR
[DUEL] Epoch ended. INSTR misses = 31, DATA misses = 31. Winner = INSTR
[DUEL] Epoch ended. INSTR misses = 30, DATA misses = 31. Winner = INSTR
[DUEL] Epoch ended. INSTR misses = 32, DATA misses = 32. Winner = INSTR
[DUEL] Epoch ended. INSTR misses = 43, DATA misses = 45. Winner = INSTR
[DUEL] Epoch ended. INSTR misses = 50, DATA misses = 49. Winner = DATA
[DUEL] Epoch ended. INSTR misses = 48, DATA misses = 47. Winner = DATA
Heartbeat CPU 0 instructions: 40000011 cycles: 16697427 heartbeat IPC: 0.8563 cumulative IPC: 0.8563 (Simulation time: 00 hr 02 min 44 sec)
[DUEL] Epoch ended. INSTR misses = 25, DATA misses = 27. Winner = INSTR
[DUEL] Epoch ended. INSTR misses = 65, DATA misses = 63. Winner = DATA
[DUEL] Epoch ended. INSTR misses = 38, DATA misses = 37. Winner = DATA
[DUEL] Epoch ended. INSTR misses = 46, DATA misses = 46. Winner = INSTR
[DUEL] Epoch ended. INSTR misses = 32, DATA misses = 32. Winner = INSTR
[DUEL] Epoch ended. INSTR misses = 16, DATA misses = 16. Winner = INSTR
[DUEL] Epoch ended. INSTR misses = 51, DATA misses = 53. Winner = INSTR
[DUEL] Epoch ended. INSTR misses = 46, DATA misses = 48. Winner = INSTR
[DUEL] Epoch ended. INSTR misses = 43, DATA misses = 34. Winner = DATA
[DUEL] Epoch ended. INSTR misses = 40, DATA misses = 47. Winner = INSTR
[DUEL] Epoch ended. INSTR misses = 58, DATA misses = 63. Winner = INSTR
[DUEL] Epoch ended. INSTR misses = 65, DATA misses = 63. Winner = DATA
[DUEL] Epoch ended. INSTR misses = 41, DATA misses = 42. Winner = INSTR
[DUEL] Epoch ended. INSTR misses = 64, DATA misses = 64. Winner = INSTR
[DUEL] Epoch ended. INSTR misses = 46, DATA misses = 43. Winner = DATA
[DUEL] Epoch ended. INSTR misses = 50, DATA misses = 52. Winner = INSTR
[DUEL] Epoch ended. INSTR misses = 58, DATA misses = 58. Winner = INSTR
[DUEL] Epoch ended. INSTR misses = 52, DATA misses = 52. Winner = INSTR
[DUEL] Epoch ended. INSTR misses = 54, DATA misses = 54. Winner = INSTR
[DUEL] Epoch ended. INSTR misses = 25, DATA misses = 21. Winner = DATA
[DUEL] Epoch ended. INSTR misses = 29, DATA misses = 30. Winner = INSTR
[DUEL] Epoch ended. INSTR misses = 16, DATA misses = 16. Winner = INSTR
[DUEL] Epoch ended. INSTR misses = 31, DATA misses = 33. Winner = INSTR
[DUEL] Epoch ended. INSTR misses = 10, DATA misses = 12. Winner = INSTR
[DUEL] Epoch ended. INSTR misses = 43, DATA misses = 44. Winner = INSTR
[DUEL] Epoch ended. INSTR misses = 48, DATA misses = 50. Winner = INSTR
[DUEL] Epoch ended. INSTR misses = 64, DATA misses = 63. Winner = DATA
[DUEL] Epoch ended. INSTR misses = 71, DATA misses = 69. Winner = DATA
[DUEL] Epoch ended. INSTR misses = 13, DATA misses = 13. Winner = INSTR
[DUEL] Epoch ended. INSTR misses = 77, DATA misses = 75. Winner = DATA
[DUEL] Epoch ended. INSTR misses = 65, DATA misses = 65. Winner = INSTR
[DUEL] Epoch ended. INSTR misses = 95, DATA misses = 92. Winner = DATA
[DUEL] Epoch ended. INSTR misses = 62, DATA misses = 63. Winner = INSTR
[DUEL] Epoch ended. INSTR misses = 65, DATA misses = 65. Winner = INSTR
[DUEL] Epoch ended. INSTR misses = 80, DATA misses = 79. Winner = DATA
[DUEL] Epoch ended. INSTR misses = 67, DATA misses = 66. Winner = DATA
[DUEL] Epoch ended. INSTR misses = 44, DATA misses = 45. Winner = INSTR
[DUEL] Epoch ended. INSTR misses = 61, DATA misses = 61. Winner = INSTR
[DUEL] Epoch ended. INSTR misses = 37, DATA misses = 34. Winner = DATA
Heartbeat CPU 0 instructions: 50000010 cycles: 28766245 heartbeat IPC: 0.8286 cumulative IPC: 0.8422 (Simulation time: 00 hr 04 min 23 sec)
[DUEL] Epoch ended. INSTR misses = 44, DATA misses = 44. Winner = INSTR
[DUEL] Epoch ended. INSTR misses = 25, DATA misses = 26. Winner = INSTR
[DUEL] Epoch ended. INSTR misses = 32, DATA misses = 32. Winner = INSTR
[DUEL] Epoch ended. INSTR misses = 64, DATA misses = 62. Winner = DATA
[DUEL] Epoch ended. INSTR misses = 32, DATA misses = 32. Winner = INSTR
[DUEL] Epoch ended. INSTR misses = 16, DATA misses = 16. Winner = INSTR
[DUEL] Epoch ended. INSTR misses = 6, DATA misses = 7. Winner = INSTR
[DUEL] Epoch ended. INSTR misses = 62, DATA misses = 61. Winner = DATA
[DUEL] Epoch ended. INSTR misses = 59, DATA misses = 58. Winner = DATA
[DUEL] Epoch ended. INSTR misses = 20, DATA misses = 19. Winner = DATA
[DUEL] Epoch ended. INSTR misses = 32, DATA misses = 32. Winner = INSTR
[DUEL] Epoch ended. INSTR misses = 43, DATA misses = 44. Winner = INSTR
[DUEL] Epoch ended. INSTR misses = 16, DATA misses = 16. Winner = INSTR
[DUEL] Epoch ended. INSTR misses = 31, DATA misses = 32. Winner = INSTR
[DUEL] Epoch ended. INSTR misses = 41, DATA misses = 43. Winner = INSTR
[DUEL] Epoch ended. INSTR misses = 22, DATA misses = 21. Winner = DATA
[DUEL] Epoch ended. INSTR misses = 41, DATA misses = 42. Winner = INSTR
[DUEL] Epoch ended. INSTR misses = 20, DATA misses = 19. Winner = DATA
[DUEL] Epoch ended. INSTR misses = 47, DATA misses = 47. Winner = INSTR
[DUEL] Epoch ended. INSTR misses = 20, DATA misses = 19. Winner = DATA
[DUEL] Epoch ended. INSTR misses = 7, DATA misses = 7. Winner = INSTR
[DUEL] Epoch ended. INSTR misses = 62, DATA misses = 62. Winner = INSTR
[DUEL] Epoch ended. INSTR misses = 27, DATA misses = 25. Winner = DATA
[DUEL] Epoch ended. INSTR misses = 49, DATA misses = 48. Winner = DATA
[DUEL] Epoch ended. INSTR misses = 58, DATA misses = 60. Winner = INSTR
[DUEL] Epoch ended. INSTR misses = 62, DATA misses = 49. Winner = DATA
[DUEL] Epoch ended. INSTR misses = 112, DATA misses = 127. Winner = INSTR
[DUEL] Epoch ended. INSTR misses = 32, DATA misses = 31. Winner = DATA
[DUEL] Epoch ended. INSTR misses = 29, DATA misses = 30. Winner = INSTR
[DUEL] Epoch ended. INSTR misses = 64, DATA misses = 63. Winner = DATA
[DUEL] Epoch ended. INSTR misses = 63, DATA misses = 65. Winner = INSTR
[DUEL] Epoch ended. INSTR misses = 57, DATA misses = 58. Winner = INSTR
[DUEL] Epoch ended. INSTR misses = 68, DATA misses = 66. Winner = DATA
[DUEL] Epoch ended. INSTR misses = 40, DATA misses = 42. Winner = INSTR
[DUEL] Epoch ended. INSTR misses = 80, DATA misses = 79. Winner = DATA
[DUEL] Epoch ended. INSTR misses = 73, DATA misses = 74. Winner = INSTR
[DUEL] Epoch ended. INSTR misses = 40, DATA misses = 40. Winner = INSTR
[DUEL] Epoch ended. INSTR misses = 10, DATA misses = 12. Winner = INSTR
[DUEL] Epoch ended. INSTR misses = 59, DATA misses = 57. Winner = DATA
Heartbeat CPU 0 instructions: 60000005 cycles: 41389695 heartbeat IPC: 0.7922 cumulative IPC: 0.8248 (Simulation time: 00 hr 06 min 07 sec)
*** Reached end of trace: (0, "../traces/public_traces/compute_fp/compute_fp_10.champsimtrace.xz")
[DUEL] Epoch ended. INSTR misses = 7, DATA misses = 6. Winner = DATA
[DUEL] Epoch ended. INSTR misses = 12, DATA misses = 11. Winner = DATA
[DUEL] Epoch ended. INSTR misses = 20, DATA misses = 21. Winner = INSTR
[DUEL] Epoch ended. INSTR misses = 1, DATA misses = 0. Winner = DATA
[DUEL] Epoch ended. INSTR misses = 4, DATA misses = 4. Winner = INSTR
[DUEL] Epoch ended. INSTR misses = 8, DATA misses = 11. Winner = INSTR
[DUEL] Epoch ended. INSTR misses = 34, DATA misses = 34. Winner = INSTR
[DUEL] Epoch ended. INSTR misses = 30, DATA misses = 29. Winner = DATA
[DUEL] Epoch ended. INSTR misses = 36, DATA misses = 38. Winner = INSTR
[DUEL] Epoch ended. INSTR misses = 42, DATA misses = 40. Winner = DATA
[DUEL] Epoch ended. INSTR misses = 33, DATA misses = 29. Winner = DATA
[DUEL] Epoch ended. INSTR misses = 82, DATA misses = 83. Winner = INSTR
[DUEL] Epoch ended. INSTR misses = 42, DATA misses = 40. Winner = DATA
[DUEL] Epoch ended. INSTR misses = 45, DATA misses = 44. Winner = DATA
[DUEL] Epoch ended. INSTR misses = 42, DATA misses = 42. Winner = INSTR
[DUEL] Epoch ended. INSTR misses = 74, DATA misses = 72. Winner = DATA
[DUEL] Epoch ended. INSTR misses = 70, DATA misses = 71. Winner = INSTR
[DUEL] Epoch ended. INSTR misses = 43, DATA misses = 46. Winner = INSTR
[DUEL] Epoch ended. INSTR misses = 52, DATA misses = 50. Winner = DATA
[DUEL] Epoch ended. INSTR misses = 63, DATA misses = 63. Winner = INSTR
[DUEL] Epoch ended. INSTR misses = 55, DATA misses = 55. Winner = INSTR
[DUEL] Epoch ended. INSTR misses = 61, DATA misses = 59. Winner = DATA
[DUEL] Epoch ended. INSTR misses = 28, DATA misses = 29. Winner = INSTR
[DUEL] Epoch ended. INSTR misses = 67, DATA misses = 67. Winner = INSTR
[DUEL] Epoch ended. INSTR misses = 48, DATA misses = 46. Winner = DATA
[DUEL] Epoch ended. INSTR misses = 61, DATA misses = 60. Winner = DATA
[DUEL] Epoch ended. INSTR misses = 29, DATA misses = 29. Winner = INSTR
[DUEL] Epoch ended. INSTR misses = 56, DATA misses = 56. Winner = INSTR
[DUEL] Epoch ended. INSTR misses = 39, DATA misses = 38. Winner = DATA
[DUEL] Epoch ended. INSTR misses = 19, DATA misses = 18. Winner = DATA
[DUEL] Epoch ended. INSTR misses = 62, DATA misses = 65. Winner = INSTR
[DUEL] Epoch ended. INSTR misses = 61, DATA misses = 61. Winner = INSTR
[DUEL] Epoch ended. INSTR misses = 35, DATA misses = 35. Winner = INSTR
[DUEL] Epoch ended. INSTR misses = 62, DATA misses = 63. Winner = INSTR
[DUEL] Epoch ended. INSTR misses = 20, DATA misses = 21. Winner = INSTR
[DUEL] Epoch ended. INSTR misses = 42, DATA misses = 42. Winner = INSTR
[DUEL] Epoch ended. INSTR misses = 35, DATA misses = 29. Winner = DATA
[DUEL] Epoch ended. INSTR misses = 58, DATA misses = 65. Winner = INSTR
[DUEL] Epoch ended. INSTR misses = 38, DATA misses = 37. Winner = DATA
Heartbeat CPU 0 instructions: 70000007 cycles: 52816903 heartbeat IPC: 0.8751 cumulative IPC: 0.8369 (Simulation time: 00 hr 07 min 42 sec)
[DUEL] Epoch ended. INSTR misses = 35, DATA misses = 37. Winner = INSTR
[DUEL] Epoch ended. INSTR misses = 39, DATA misses = 37. Winner = DATA
[DUEL] Epoch ended. INSTR misses = 64, DATA misses = 63. Winner = DATA
[DUEL] Epoch ended. INSTR misses = 28, DATA misses = 26. Winner = DATA
[DUEL] Epoch ended. INSTR misses = 34, DATA misses = 36. Winner = INSTR
[DUEL] Epoch ended. INSTR misses = 32, DATA misses = 32. Winner = INSTR
[DUEL] Epoch ended. INSTR misses = 36, DATA misses = 38. Winner = INSTR
[DUEL] Epoch ended. INSTR misses = 61, DATA misses = 63. Winner = INSTR
[DUEL] Epoch ended. INSTR misses = 30, DATA misses = 28. Winner = DATA
[DUEL] Epoch ended. INSTR misses = 53, DATA misses = 53. Winner = INSTR
[DUEL] Epoch ended. INSTR misses = 58, DATA misses = 63. Winner = INSTR
[DUEL] Epoch ended. INSTR misses = 46, DATA misses = 44. Winner = DATA
[DUEL] Epoch ended. INSTR misses = 60, DATA misses = 61. Winner = INSTR
[DUEL] Epoch ended. INSTR misses = 44, DATA misses = 46. Winner = INSTR
[DUEL] Epoch ended. INSTR misses = 66, DATA misses = 61. Winner = DATA
[DUEL] Epoch ended. INSTR misses = 47, DATA misses = 49. Winner = INSTR
[DUEL] Epoch ended. INSTR misses = 61, DATA misses = 61. Winner = INSTR
[DUEL] Epoch ended. INSTR misses = 43, DATA misses = 43. Winner = INSTR
[DUEL] Epoch ended. INSTR misses = 43, DATA misses = 43. Winner = INSTR
[DUEL] Epoch ended. INSTR misses = 44, DATA misses = 41. Winner = DATA
[DUEL] Epoch ended. INSTR misses = 24, DATA misses = 23. Winner = DATA
[DUEL] Epoch ended. INSTR misses = 20, DATA misses = 23. Winner = INSTR
[DUEL] Epoch ended. INSTR misses = 10, DATA misses = 12. Winner = INSTR
[DUEL] Epoch ended. INSTR misses = 29, DATA misses = 32. Winner = INSTR
[DUEL] Epoch ended. INSTR misses = 43, DATA misses = 44. Winner = INSTR
[DUEL] Epoch ended. INSTR misses = 48, DATA misses = 47. Winner = DATA
[DUEL] Epoch ended. INSTR misses = 60, DATA misses = 61. Winner = INSTR
[DUEL] Epoch ended. INSTR misses = 58, DATA misses = 48. Winner = DATA
[DUEL] Epoch ended. INSTR misses = 30, DATA misses = 37. Winner = INSTR
[DUEL] Epoch ended. INSTR misses = 40, DATA misses = 39. Winner = DATA
[DUEL] Epoch ended. INSTR misses = 102, DATA misses = 100. Winner = DATA
[DUEL] Epoch ended. INSTR misses = 78, DATA misses = 76. Winner = DATA
[DUEL] Epoch ended. INSTR misses = 78, DATA misses = 79. Winner = INSTR
[DUEL] Epoch ended. INSTR misses = 62, DATA misses = 62. Winner = INSTR
[DUEL] Epoch ended. INSTR misses = 82, DATA misses = 82. Winner = INSTR
[DUEL] Epoch ended. INSTR misses = 30, DATA misses = 28. Winner = DATA
[DUEL] Epoch ended. INSTR misses = 82, DATA misses = 83. Winner = INSTR
[DUEL] Epoch ended. INSTR misses = 45, DATA misses = 45. Winner = INSTR
[DUEL] Epoch ended. INSTR misses = 53, DATA misses = 50. Winner = DATA
Heartbeat CPU 0 instructions: 80000002 cycles: 64741023 heartbeat IPC: 0.8386 cumulative IPC: 0.8372 (Simulation time: 00 hr 09 min 20 sec)
[DUEL] Epoch ended. INSTR misses = 37, DATA misses = 38. Winner = INSTR
[DUEL] Epoch ended. INSTR misses = 32, DATA misses = 32. Winner = INSTR
[DUEL] Epoch ended. INSTR misses = 32, DATA misses = 32. Winner = INSTR
[DUEL] Epoch ended. INSTR misses = 55, DATA misses = 53. Winner = DATA
[DUEL] Epoch ended. INSTR misses = 41, DATA misses = 41. Winner = INSTR
[DUEL] Epoch ended. INSTR misses = 16, DATA misses = 16. Winner = INSTR
[DUEL] Epoch ended. INSTR misses = 6, DATA misses = 7. Winner = INSTR
[DUEL] Epoch ended. INSTR misses = 50, DATA misses = 47. Winner = DATA
[DUEL] Epoch ended. INSTR misses = 71, DATA misses = 67. Winner = DATA
[DUEL] Epoch ended. INSTR misses = 20, DATA misses = 24. Winner = INSTR
[DUEL] Epoch ended. INSTR misses = 28, DATA misses = 29. Winner = INSTR
[DUEL] Epoch ended. INSTR misses = 47, DATA misses = 47. Winner = INSTR
[DUEL] Epoch ended. INSTR misses = 7, DATA misses = 6. Winner = DATA
[DUEL] Epoch ended. INSTR misses = 40, DATA misses = 42. Winner = INSTR
[DUEL] Epoch ended. INSTR misses = 34, DATA misses = 32. Winner = DATA
[DUEL] Epoch ended. INSTR misses = 29, DATA misses = 32. Winner = INSTR
[DUEL] Epoch ended. INSTR misses = 32, DATA misses = 32. Winner = INSTR
[DUEL] Epoch ended. INSTR misses = 29, DATA misses = 29. Winner = INSTR
[DUEL] Epoch ended. INSTR misses = 47, DATA misses = 47. Winner = INSTR
[DUEL] Epoch ended. INSTR misses = 11, DATA misses = 10. Winner = DATA
[DUEL] Epoch ended. INSTR misses = 16, DATA misses = 16. Winner = INSTR
[DUEL] Epoch ended. INSTR misses = 32, DATA misses = 32. Winner = INSTR
[DUEL] Epoch ended. INSTR misses = 57, DATA misses = 55. Winner = DATA
[DUEL] Epoch ended. INSTR misses = 49, DATA misses = 48. Winner = DATA
[DUEL] Epoch ended. INSTR misses = 38, DATA misses = 35. Winner = DATA
[DUEL] Epoch ended. INSTR misses = 70, DATA misses = 72. Winner = INSTR
[DUEL] Epoch ended. INSTR misses = 124, DATA misses = 129. Winner = INSTR
[DUEL] Epoch ended. INSTR misses = 32, DATA misses = 31. Winner = DATA
[DUEL] Epoch ended. INSTR misses = 17, DATA misses = 16. Winner = DATA
[DUEL] Epoch ended. INSTR misses = 66, DATA misses = 68. Winner = INSTR
[DUEL] Epoch ended. INSTR misses = 73, DATA misses = 74. Winner = INSTR
[DUEL] Epoch ended. INSTR misses = 48, DATA misses = 46. Winner = DATA
[DUEL] Epoch ended. INSTR misses = 77, DATA misses = 78. Winner = INSTR
[DUEL] Epoch ended. INSTR misses = 37, DATA misses = 39. Winner = INSTR
[DUEL] Epoch ended. INSTR misses = 81, DATA misses = 66. Winner = DATA
[DUEL] Epoch ended. INSTR misses = 47, DATA misses = 60. Winner = INSTR
[DUEL] Epoch ended. INSTR misses = 68, DATA misses = 70. Winner = INSTR
[DUEL] Epoch ended. INSTR misses = 10, DATA misses = 12. Winner = INSTR
[DUEL] Epoch ended. INSTR misses = 52, DATA misses = 50. Winner = DATA
Heartbeat CPU 0 instructions: 90000001 cycles: 77140498 heartbeat IPC: 0.8065 cumulative IPC: 0.8319 (Simulation time: 00 hr 11 min 01 sec)
*** Reached end of trace: (0, "../traces/public_traces/compute_fp/compute_fp_10.champsimtrace.xz")
[DUEL] Epoch ended. INSTR misses = 12, DATA misses = 13. Winner = INSTR
[DUEL] Epoch ended. INSTR misses = 0, DATA misses = 0. Winner = INSTR
[DUEL] Epoch ended. INSTR misses = 31, DATA misses = 32. Winner = INSTR
[DUEL] Epoch ended. INSTR misses = 1, DATA misses = 0. Winner = DATA
[DUEL] Epoch ended. INSTR misses = 0, DATA misses = 1. Winner = INSTR
[DUEL] Epoch ended. INSTR misses = 12, DATA misses = 13. Winner = INSTR
[DUEL] Epoch ended. INSTR misses = 25, DATA misses = 24. Winner = DATA
[DUEL] Epoch ended. INSTR misses = 39, DATA misses = 39. Winner = INSTR
[DUEL] Epoch ended. INSTR misses = 25, DATA misses = 25. Winner = INSTR
[DUEL] Epoch ended. INSTR misses = 53, DATA misses = 52. Winner = DATA
[DUEL] Epoch ended. INSTR misses = 32, DATA misses = 29. Winner = DATA
[DUEL] Epoch ended. INSTR misses = 83, DATA misses = 83. Winner = INSTR
[DUEL] Epoch ended. INSTR misses = 41, DATA misses = 40. Winner = DATA
[DUEL] Epoch ended. INSTR misses = 46, DATA misses = 35. Winner = DATA
[DUEL] Epoch ended. INSTR misses = 42, DATA misses = 51. Winner = INSTR
[DUEL] Epoch ended. INSTR misses = 48, DATA misses = 49. Winner = INSTR
[DUEL] Epoch ended. INSTR misses = 76, DATA misses = 76. Winner = INSTR
[DUEL] Epoch ended. INSTR misses = 63, DATA misses = 64. Winner = INSTR
[DUEL] Epoch ended. INSTR misses = 52, DATA misses = 50. Winner = DATA
[DUEL] Epoch ended. INSTR misses = 58, DATA misses = 56. Winner = DATA
[DUEL] Epoch ended. INSTR misses = 60, DATA misses = 62. Winner = INSTR
[DUEL] Epoch ended. INSTR misses = 41, DATA misses = 41. Winner = INSTR
[DUEL] Epoch ended. INSTR misses = 48, DATA misses = 47. Winner = DATA
[DUEL] Epoch ended. INSTR misses = 44, DATA misses = 45. Winner = INSTR
[DUEL] Epoch ended. INSTR misses = 72, DATA misses = 68. Winner = DATA
[DUEL] Epoch ended. INSTR misses = 28, DATA misses = 28. Winner = INSTR
[DUEL] Epoch ended. INSTR misses = 61, DATA misses = 61. Winner = INSTR
[DUEL] Epoch ended. INSTR misses = 43, DATA misses = 44. Winner = INSTR
[DUEL] Epoch ended. INSTR misses = 52, DATA misses = 50. Winner = DATA
[DUEL] Epoch ended. INSTR misses = 16, DATA misses = 16. Winner = INSTR
[DUEL] Epoch ended. INSTR misses = 48, DATA misses = 47. Winner = DATA
[DUEL] Epoch ended. INSTR misses = 78, DATA misses = 81. Winner = INSTR
[DUEL] Epoch ended. INSTR misses = 35, DATA misses = 35. Winner = INSTR
[DUEL] Epoch ended. INSTR misses = 55, DATA misses = 57. Winner = INSTR
[DUEL] Epoch ended. INSTR misses = 27, DATA misses = 27. Winner = INSTR
[DUEL] Epoch ended. INSTR misses = 24, DATA misses = 23. Winner = DATA
[DUEL] Epoch ended. INSTR misses = 46, DATA misses = 48. Winner = INSTR
[DUEL] Epoch ended. INSTR misses = 49, DATA misses = 42. Winner = DATA
[DUEL] Epoch ended. INSTR misses = 54, DATA misses = 60. Winner = INSTR
Heartbeat CPU 0 instructions: 100000006 cycles: 88490805 heartbeat IPC: 0.881 cumulative IPC: 0.8386 (Simulation time: 00 hr 12 min 35 sec)
[DUEL] Epoch ended. INSTR misses = 26, DATA misses = 26. Winner = INSTR
[DUEL] Epoch ended. INSTR misses = 48, DATA misses = 48. Winner = INSTR
[DUEL] Epoch ended. INSTR misses = 64, DATA misses = 63. Winner = DATA
[DUEL] Epoch ended. INSTR misses = 28, DATA misses = 26. Winner = DATA
[DUEL] Epoch ended. INSTR misses = 34, DATA misses = 36. Winner = INSTR
[DUEL] Epoch ended. INSTR misses = 22, DATA misses = 22. Winner = INSTR
[DUEL] Epoch ended. INSTR misses = 46, DATA misses = 48. Winner = INSTR
[DUEL] Epoch ended. INSTR misses = 47, DATA misses = 46. Winner = DATA
[DUEL] Epoch ended. INSTR misses = 44, DATA misses = 45. Winner = INSTR
[DUEL] Epoch ended. INSTR misses = 50, DATA misses = 50. Winner = INSTR
[DUEL] Epoch ended. INSTR misses = 56, DATA misses = 52. Winner = DATA
[DUEL] Epoch ended. INSTR misses = 51, DATA misses = 58. Winner = INSTR
[DUEL] Epoch ended. INSTR misses = 50, DATA misses = 52. Winner = INSTR
[DUEL] Epoch ended. INSTR misses = 54, DATA misses = 55. Winner = INSTR
[DUEL] Epoch ended. INSTR misses = 52, DATA misses = 49. Winner = DATA
[DUEL] Epoch ended. INSTR misses = 61, DATA misses = 61. Winner = INSTR
[DUEL] Epoch ended. INSTR misses = 61, DATA misses = 61. Winner = INSTR
[DUEL] Epoch ended. INSTR misses = 40, DATA misses = 39. Winner = DATA
[DUEL] Epoch ended. INSTR misses = 46, DATA misses = 47. Winner = INSTR
[DUEL] Epoch ended. INSTR misses = 41, DATA misses = 34. Winner = DATA
[DUEL] Epoch ended. INSTR misses = 27, DATA misses = 30. Winner = INSTR
[DUEL] Epoch ended. INSTR misses = 3, DATA misses = 7. Winner = INSTR
[DUEL] Epoch ended. INSTR misses = 26, DATA misses = 28. Winner = INSTR
[DUEL] Epoch ended. INSTR misses = 29, DATA misses = 32. Winner = INSTR
[DUEL] Epoch ended. INSTR misses = 42, DATA misses = 32. Winner = DATA
[DUEL] Epoch ended. INSTR misses = 39, DATA misses = 49. Winner = INSTR
[DUEL] Epoch ended. INSTR misses = 70, DATA misses = 71. Winner = INSTR
[DUEL] Epoch ended. INSTR misses = 45, DATA misses = 41. Winner = DATA
[DUEL] Epoch ended. INSTR misses = 36, DATA misses = 37. Winner = INSTR
[DUEL] Epoch ended. INSTR misses = 47, DATA misses = 46. Winner = DATA
[DUEL] Epoch ended. INSTR misses = 86, DATA misses = 84. Winner = DATA
[DUEL] Epoch ended. INSTR misses = 94, DATA misses = 92. Winner = DATA
[DUEL] Epoch ended. INSTR misses = 61, DATA misses = 65. Winner = INSTR
[DUEL] Epoch ended. INSTR misses = 75, DATA misses = 63. Winner = DATA
[DUEL] Epoch ended. INSTR misses = 86, DATA misses = 95. Winner = INSTR
[DUEL] Epoch ended. INSTR misses = 30, DATA misses = 28. Winner = DATA
[DUEL] Epoch ended. INSTR misses = 79, DATA misses = 80. Winner = INSTR
[DUEL] Epoch ended. INSTR misses = 22, DATA misses = 23. Winner = INSTR
[DUEL] Epoch ended. INSTR misses = 68, DATA misses = 66. Winner = DATA
Heartbeat CPU 0 instructions: 110000005 cycles: 100365705 heartbeat IPC: 0.8421 cumulative IPC: 0.839 (Simulation time: 00 hr 14 min 13 sec)
[DUEL] Epoch ended. INSTR misses = 48, DATA misses = 47. Winner = DATA
[DUEL] Epoch ended. INSTR misses = 32, DATA misses = 32. Winner = INSTR
[DUEL] Epoch ended. INSTR misses = 32, DATA misses = 32. Winner = INSTR
[DUEL] Epoch ended. INSTR misses = 55, DATA misses = 53. Winner = DATA
[DUEL] Epoch ended. INSTR misses = 37, DATA misses = 32. Winner = DATA
[DUEL] Epoch ended. INSTR misses = 20, DATA misses = 25. Winner = INSTR
[DUEL] Epoch ended. INSTR misses = 6, DATA misses = 7. Winner = INSTR
[DUEL] Epoch ended. INSTR misses = 42, DATA misses = 40. Winner = DATA
[DUEL] Epoch ended. INSTR misses = 54, DATA misses = 54. Winner = INSTR
[DUEL] Epoch ended. INSTR misses = 45, DATA misses = 44. Winner = DATA
[DUEL] Epoch ended. INSTR misses = 28, DATA misses = 29. Winner = INSTR
[DUEL] Epoch ended. INSTR misses = 44, DATA misses = 43. Winner = DATA
[DUEL] Epoch ended. INSTR misses = 10, DATA misses = 10. Winner = INSTR
[DUEL] Epoch ended. INSTR misses = 30, DATA misses = 33. Winner = INSTR
[DUEL] Epoch ended. INSTR misses = 42, DATA misses = 41. Winner = DATA
[DUEL] Epoch ended. INSTR misses = 31, DATA misses = 32. Winner = INSTR
[DUEL] Epoch ended. INSTR misses = 32, DATA misses = 32. Winner = INSTR
[DUEL] Epoch ended. INSTR misses = 25, DATA misses = 26. Winner = INSTR
[DUEL] Epoch ended. INSTR misses = 51, DATA misses = 41. Winner = DATA
[DUEL] Epoch ended. INSTR misses = 11, DATA misses = 19. Winner = INSTR
[DUEL] Epoch ended. INSTR misses = 9, DATA misses = 9. Winner = INSTR
[DUEL] Epoch ended. INSTR misses = 39, DATA misses = 39. Winner = INSTR
[DUEL] Epoch ended. INSTR misses = 57, DATA misses = 55. Winner = DATA
[DUEL] Epoch ended. INSTR misses = 48, DATA misses = 48. Winner = INSTR
[DUEL] Epoch ended. INSTR misses = 33, DATA misses = 33. Winner = INSTR
[DUEL] Epoch ended. INSTR misses = 67, DATA misses = 64. Winner = DATA
[DUEL] Epoch ended. INSTR misses = 114, DATA misses = 119. Winner = INSTR
[DUEL] Epoch ended. INSTR misses = 51, DATA misses = 51. Winner = INSTR
[DUEL] Epoch ended. INSTR misses = 17, DATA misses = 16. Winner = DATA
[DUEL] Epoch ended. INSTR misses = 66, DATA misses = 68. Winner = INSTR
[DUEL] Epoch ended. INSTR misses = 67, DATA misses = 68. Winner = INSTR
[DUEL] Epoch ended. INSTR misses = 54, DATA misses = 52. Winner = DATA
[DUEL] Epoch ended. INSTR misses = 38, DATA misses = 40. Winner = INSTR
[DUEL] Epoch ended. INSTR misses = 76, DATA misses = 77. Winner = INSTR
[DUEL] Epoch ended. INSTR misses = 50, DATA misses = 47. Winner = DATA
[DUEL] Epoch ended. INSTR misses = 75, DATA misses = 63. Winner = DATA
[DUEL] Epoch ended. INSTR misses = 68, DATA misses = 82. Winner = INSTR
[DUEL] Epoch ended. INSTR misses = 13, DATA misses = 16. Winner = INSTR
[DUEL] Epoch ended. INSTR misses = 43, DATA misses = 41. Winner = DATA
Heartbeat CPU 0 instructions: 120000002 cycles: 112745838 heartbeat IPC: 0.8077 cumulative IPC: 0.8354 (Simulation time: 00 hr 15 min 53 sec)
*** Reached end of trace: (0, "../traces/public_traces/compute_fp/compute_fp_10.champsimtrace.xz")
[DUEL] Epoch ended. INSTR misses = 21, DATA misses = 22. Winner = INSTR
[DUEL] Epoch ended. INSTR misses = 0, DATA misses = 0. Winner = INSTR
[DUEL] Epoch ended. INSTR misses = 19, DATA misses = 21. Winner = INSTR
[DUEL] Epoch ended. INSTR misses = 13, DATA misses = 11. Winner = DATA
[DUEL] Epoch ended. INSTR misses = 0, DATA misses = 1. Winner = INSTR
[DUEL] Epoch ended. INSTR misses = 12, DATA misses = 13. Winner = INSTR
[DUEL] Epoch ended. INSTR misses = 25, DATA misses = 24. Winner = DATA
[DUEL] Epoch ended. INSTR misses = 24, DATA misses = 25. Winner = INSTR
[DUEL] Epoch ended. INSTR misses = 40, DATA misses = 39. Winner = DATA
[DUEL] Epoch ended. INSTR misses = 35, DATA misses = 32. Winner = DATA
[DUEL] Epoch ended. INSTR misses = 50, DATA misses = 49. Winner = DATA
[DUEL] Epoch ended. INSTR misses = 61, DATA misses = 62. Winner = INSTR
[DUEL] Epoch ended. INSTR misses = 63, DATA misses = 61. Winner = DATA
[DUEL] Epoch ended. INSTR misses = 38, DATA misses = 35. Winner = DATA
[DUEL] Epoch ended. INSTR misses = 39, DATA misses = 39. Winner = INSTR
[DUEL] Epoch ended. INSTR misses = 59, DATA misses = 61. Winner = INSTR
[DUEL] Epoch ended. INSTR misses = 76, DATA misses = 76. Winner = INSTR
[DUEL] Epoch ended. INSTR misses = 51, DATA misses = 50. Winner = DATA
[DUEL] Epoch ended. INSTR misses = 64, DATA misses = 64. Winner = INSTR
[DUEL] Epoch ended. INSTR misses = 55, DATA misses = 53. Winner = DATA
[DUEL] Epoch ended. INSTR misses = 49, DATA misses = 41. Winner = DATA
[DUEL] Epoch ended. INSTR misses = 55, DATA misses = 65. Winner = INSTR
[DUEL] Epoch ended. INSTR misses = 48, DATA misses = 47. Winner = DATA
[DUEL] Epoch ended. INSTR misses = 44, DATA misses = 45. Winner = INSTR
[DUEL] Epoch ended. INSTR misses = 71, DATA misses = 68. Winner = DATA
[DUEL] Epoch ended. INSTR misses = 29, DATA misses = 28. Winner = DATA
[DUEL] Epoch ended. INSTR misses = 58, DATA misses = 58. Winner = INSTR
[DUEL] Epoch ended. INSTR misses = 46, DATA misses = 47. Winner = INSTR
[DUEL] Epoch ended. INSTR misses = 39, DATA misses = 37. Winner = DATA
[DUEL] Epoch ended. INSTR misses = 29, DATA misses = 29. Winner = INSTR
[DUEL] Epoch ended. INSTR misses = 48, DATA misses = 47. Winner = DATA
[DUEL] Epoch ended. INSTR misses = 49, DATA misses = 52. Winner = INSTR
[DUEL] Epoch ended. INSTR misses = 64, DATA misses = 64. Winner = INSTR
[DUEL] Epoch ended. INSTR misses = 40, DATA misses = 40. Winner = INSTR
[DUEL] Epoch ended. INSTR misses = 42, DATA misses = 43. Winner = INSTR
[DUEL] Epoch ended. INSTR misses = 23, DATA misses = 24. Winner = INSTR
[DUEL] Epoch ended. INSTR misses = 47, DATA misses = 48. Winner = INSTR
[DUEL] Epoch ended. INSTR misses = 34, DATA misses = 34. Winner = INSTR
[DUEL] Epoch ended. INSTR misses = 63, DATA misses = 62. Winner = DATA
Heartbeat CPU 0 instructions: 130000002 cycles: 124018222 heartbeat IPC: 0.8871 cumulative IPC: 0.8403 (Simulation time: 00 hr 17 min 27 sec)
Simulation finished CPU 0 instructions: 100000004 cycles: 118999265 cumulative IPC: 0.8403 (Simulation time: 00 hr 17 min 27 sec)
Simulation complete CPU 0 instructions: 100000004 cycles: 118999265 cumulative IPC: 0.8403 (Simulation time: 00 hr 17 min 27 sec)

ChampSim completed all CPUs

=== Simulation ===
CPU 0 runs ../traces/public_traces/compute_fp/compute_fp_10.champsimtrace.xz
Region of Interest Statistics

CPU 0 cumulative IPC: 0.8403 instructions: 100000004 cycles: 118999265
CPU 0 Branch Prediction Accuracy: 99.99% MPKI: 0.00089 Average ROB Occupancy at Mispredict: 327.1
Branch type MPKI
BRANCH_DIRECT_JUMP: 0
BRANCH_INDIRECT: 0.00077
BRANCH_CONDITIONAL: 0.00012
BRANCH_DIRECT_CALL: 0
BRANCH_INDIRECT_CALL: 0
BRANCH_RETURN: 0

LLC TOTAL        ACCESS:    4837360 HIT:     544825 MISS:    4292535
LLC LOAD         ACCESS:       5597 HIT:          8 MISS:       5589
LLC RFO          ACCESS:    2070150 HIT:     217209 MISS:    1852941
LLC PREFETCH     ACCESS:     687881 HIT:        352 MISS:     687529
LLC WRITE        ACCESS:    2072982 HIT:     327256 MISS:    1745726
LLC TRANSLATION  ACCESS:        750 HIT:          0 MISS:        750
LLC PREFETCH REQUESTED:          0 ISSUED:          0 USEFUL:          0 USELESS:          0
LLC AVERAGE MISS LATENCY: 568.4 cycles
cpu0_DTLB TOTAL        ACCESS:   10904544 HIT:   10838573 MISS:      65971
cpu0_DTLB LOAD         ACCESS:   10904544 HIT:   10838573 MISS:      65971
cpu0_DTLB RFO          ACCESS:          0 HIT:          0 MISS:          0
cpu0_DTLB PREFETCH     ACCESS:          0 HIT:          0 MISS:          0
cpu0_DTLB WRITE        ACCESS:          0 HIT:          0 MISS:          0
cpu0_DTLB TRANSLATION  ACCESS:          0 HIT:          0 MISS:          0
cpu0_DTLB PREFETCH REQUESTED:          0 ISSUED:          0 USEFUL:          0 USELESS:          0
cpu0_DTLB AVERAGE MISS LATENCY: 128.8 cycles
cpu0_ITLB TOTAL        ACCESS:       2895 HIT:       2895 MISS:          0
cpu0_ITLB LOAD         ACCESS:       2895 HIT:       2895 MISS:          0
cpu0_ITLB RFO          ACCESS:          0 HIT:          0 MISS:          0
cpu0_ITLB PREFETCH     ACCESS:          0 HIT:          0 MISS:          0
cpu0_ITLB WRITE        ACCESS:          0 HIT:          0 MISS:          0
cpu0_ITLB TRANSLATION  ACCESS:          0 HIT:          0 MISS:          0
cpu0_ITLB PREFETCH REQUESTED:          0 ISSUED:          0 USEFUL:          0 USELESS:          0
cpu0_ITLB AVERAGE MISS LATENCY: -nan cycles
cpu0_L1D TOTAL        ACCESS:   17647931 HIT:    9244902 MISS:    8403029
cpu0_L1D LOAD         ACCESS:    2988111 HIT:    2266014 MISS:     722097
cpu0_L1D RFO          ACCESS:          0 HIT:          0 MISS:          0
cpu0_L1D PREFETCH     ACCESS:    4153420 HIT:     686149 MISS:    3467271
cpu0_L1D WRITE        ACCESS:   10463392 HIT:    6291296 MISS:    4172096
cpu0_L1D TRANSLATION  ACCESS:      43008 HIT:       1443 MISS:      41565
cpu0_L1D PREFETCH REQUESTED:  118639324 ISSUED:    4153400 USEFUL:       9670 USELESS:         31
cpu0_L1D AVERAGE MISS LATENCY: 196.4 cycles
cpu0_L1I TOTAL        ACCESS:       4216 HIT:       4108 MISS:        108
cpu0_L1I LOAD         ACCESS:       2164 HIT:       2095 MISS:         69
cpu0_L1I RFO          ACCESS:          0 HIT:          0 MISS:          0
cpu0_L1I PREFETCH     ACCESS:       2052 HIT:       2013 MISS:         39
cpu0_L1I WRITE        ACCESS:          0 HIT:          0 MISS:          0
cpu0_L1I TRANSLATION  ACCESS:          0 HIT:          0 MISS:          0
cpu0_L1I PREFETCH REQUESTED:       2587 ISSUED:       2052 USEFUL:         26 USELESS:          0
cpu0_L1I AVERAGE MISS LATENCY: 288 cycles
cpu0_L2C TOTAL        ACCESS:   14529706 HIT:   10641871 MISS:    3887835
cpu0_L2C LOAD         ACCESS:     680127 HIT:     660563 MISS:      19564
cpu0_L2C RFO          ACCESS:    3877630 HIT:    1807479 MISS:    2070151
cpu0_L2C PREFETCH     ACCESS:    6052381 HIT:    4255021 MISS:    1797360
cpu0_L2C WRITE        ACCESS:    3878008 HIT:    3877998 MISS:         10
cpu0_L2C TRANSLATION  ACCESS:      41560 HIT:      40810 MISS:        750
cpu0_L2C PREFETCH REQUESTED:    3376051 ISSUED:    3366329 USEFUL:     299238 USELESS:       1349
cpu0_L2C AVERAGE MISS LATENCY: 638 cycles
cpu0_STLB TOTAL        ACCESS:      43575 HIT:        622 MISS:      42953
cpu0_STLB LOAD         ACCESS:      43575 HIT:        622 MISS:      42953
cpu0_STLB RFO          ACCESS:          0 HIT:          0 MISS:          0
cpu0_STLB PREFETCH     ACCESS:          0 HIT:          0 MISS:          0
cpu0_STLB WRITE        ACCESS:          0 HIT:          0 MISS:          0
cpu0_STLB TRANSLATION  ACCESS:          0 HIT:          0 MISS:          0
cpu0_STLB PREFETCH REQUESTED:          0 ISSUED:          0 USEFUL:          0 USELESS:          0
cpu0_STLB AVERAGE MISS LATENCY: 228.9 cycles

DRAM Statistics

Channel 0 RQ ROW_BUFFER_HIT:     318100
  ROW_BUFFER_MISS:     955479
 AVG DBUS CONGESTED CYCLE: 3.979
WQ ROW_BUFFER_HIT: Channel 0 
  ROW_BUFFER_MISS:      73584
  FULL:     854753

Channel 1 RQ ROW_BUFFER_HIT:     316768
  ROW_BUFFER_MISS:     956321
 AVG DBUS CONGESTED CYCLE: 3.979
WQ ROW_BUFFER_HIT: Channel 1 
  ROW_BUFFER_MISS:      74666
  FULL:     853427
BERTI TO_L1: 5531448 TO_L2: 120312883 TO_L2_BC_MSHR: 69395111
BERTI AVG_LAT: 42.5174 NUM_TRACK_LATENCY: 897424 NUM_CANT_TRACK_LATENCY: 211
BERTI CROSS_PAGE 38287749 NO_CROSS_PAGE: 87556582
BERTI FOUND_BERTI: 12402247 NO_FOUND_BERTI: 4907907
BERTI AVERAGE_ISSUED: 5.72204
CPU 0 L1I Entangling prefetcher final stats
IP accesses: 4119 104640 39 / 2164
IP misses: 37 dc0 12 / 69
IP hits: 0 0 0 / 0
IP late: 16b7 5adc0 3 / 27
IP wrong: 0 0 0 / 0
miss rate: 0.0318854
coverage: 0
coverage_late: 0.391305
accuracy: 0
accuracy_late: 1
discarded: 0
evicts entangled j table: 0
evicts entangled k table: 0
max bb size: 25
formats: 0 0 1 0 1 1 0 
hist_lookups: 1 0 0 0 0 0 0 1 1 0 0 0 0 0 0 0 0 92 
hist_lookups_evict: 0 %
hist_lookups_shortlat: 96.8422 %
bb_found_hist: 0 386 182 63 16 17 3 3 0 2 0 0 0 0 0 0 0 0 0 0 0 0 0 0 0 3 0 0 0 0 0 0 0 0 0 0 0 0 0 0 0 0 0 0 0 0 0 0 0 0 0 0 0 0 0 0 0 0 0 0 0 0 0 0 
bb_found_summary: 1220 675 1.80741
entangled_found_hist: 0 151 39 119 3 0 0 0 
entangled_found_summary: 598 312 1.91667
bb_ent_found_hist: 0 236 92 61 11 13 9 3 0 2 0 0 0 0 0 0 0 0 0 0 0 0 0 0 0 0 0 0 0 0 0 0 0 0 0 0 0 0 0 0 0 0 0 0 0 0 0 0 0 0 0 0 0 0 0 0 0 0 0 0 0 0 0 0 
bb_ent_found_summary: 805 427 1.88525
