WARNING: physical memory size is smaller than virtual memory size.

*** ChampSim Multicore Out-of-Order Simulator ***
Warmup Instructions: 30000000
Simulation Instructions: 100000000
Number of CPUs: 1
Page size: 4096

BTB:
Basic BTB sets: 1024 ways: 8
Indirect:
history lengths: 0 0 10 16 27 44 60 96 109 219 449 487 714 1313 2146 3881 
ITTAGE tables: 64768 bytes;Region table: 240 bytes;IUM: 384 bytes;Total Storage= 65392 bytes;
RAS:
RAS size: 64
[LLC] INSTR Demand IPV: 1 2 2 1 4 Prefetch IPV: 1 2 1 1 4
[LLC] DATA  Demand IPV: 1 1 1 2 4 Prefetch IPV: 1 1 2 2 4
Berti Prefetcher
CPU 0 Entangling prefetcher
Off-chip DRAM Size: 8 GiB Channels: 2 Width: 64-bit Data Race: 6400 MT/s
[DUEL] Epoch ended. INSTR misses = 33, DATA misses = 32. Winner = DATA
[DUEL] Epoch ended. INSTR misses = 48, DATA misses = 36. Winner = DATA
[DUEL] Epoch ended. INSTR misses = 32, DATA misses = 44. Winner = INSTR
[DUEL] Epoch ended. INSTR misses = 48, DATA misses = 36. Winner = DATA
[DUEL] Epoch ended. INSTR misses = 32, DATA misses = 32. Winner = INSTR
[DUEL] Epoch ended. INSTR misses = 47, DATA misses = 48. Winner = INSTR
[DUEL] Epoch ended. INSTR misses = 32, DATA misses = 32. Winner = INSTR
[DUEL] Epoch ended. INSTR misses = 32, DATA misses = 32. Winner = INSTR
[DUEL] Epoch ended. INSTR misses = 48, DATA misses = 48. Winner = INSTR
[DUEL] Epoch ended. INSTR misses = 32, DATA misses = 32. Winner = INSTR
[DUEL] Epoch ended. INSTR misses = 48, DATA misses = 48. Winner = INSTR
[DUEL] Epoch ended. INSTR misses = 16, DATA misses = 22. Winner = INSTR
[DUEL] Epoch ended. INSTR misses = 11, DATA misses = 0. Winner = DATA
[DUEL] Epoch ended. INSTR misses = 0, DATA misses = 0. Winner = INSTR
[DUEL] Epoch ended. INSTR misses = 23, DATA misses = 26. Winner = INSTR
[DUEL] Epoch ended. INSTR misses = 28, DATA misses = 41. Winner = INSTR
[DUEL] Epoch ended. INSTR misses = 47, DATA misses = 81. Winner = INSTR
[DUEL] Epoch ended. INSTR misses = 34, DATA misses = 50. Winner = INSTR
[DUEL] Epoch ended. INSTR misses = 32, DATA misses = 32. Winner = INSTR
[DUEL] Epoch ended. INSTR misses = 48, DATA misses = 48. Winner = INSTR
[DUEL] Epoch ended. INSTR misses = 32, DATA misses = 32. Winner = INSTR
[DUEL] Epoch ended. INSTR misses = 48, DATA misses = 48. Winner = INSTR
[DUEL] Epoch ended. INSTR misses = 31, DATA misses = 32. Winner = INSTR
[DUEL] Epoch ended. INSTR misses = 48, DATA misses = 47. Winner = DATA
[DUEL] Epoch ended. INSTR misses = 32, DATA misses = 32. Winner = INSTR
[DUEL] Epoch ended. INSTR misses = 32, DATA misses = 30. Winner = DATA
[DUEL] Epoch ended. INSTR misses = 48, DATA misses = 48. Winner = INSTR
[DUEL] Epoch ended. INSTR misses = 32, DATA misses = 32. Winner = INSTR
[DUEL] Epoch ended. INSTR misses = 43, DATA misses = 42. Winner = DATA
[DUEL] Epoch ended. INSTR misses = 32, DATA misses = 32. Winner = INSTR
[DUEL] Epoch ended. INSTR misses = 36, DATA misses = 45. Winner = INSTR
[DUEL] Epoch ended. INSTR misses = 39, DATA misses = 35. Winner = DATA
[DUEL] Epoch ended. INSTR misses = 35, DATA misses = 31. Winner = DATA
[DUEL] Epoch ended. INSTR misses = 32, DATA misses = 36. Winner = INSTR
[DUEL] Epoch ended. INSTR misses = 44, DATA misses = 32. Winner = DATA
[DUEL] Epoch ended. INSTR misses = 17, DATA misses = 22. Winner = INSTR
[DUEL] Epoch ended. INSTR misses = 57, DATA misses = 49. Winner = DATA
[DUEL] Epoch ended. INSTR misses = 38, DATA misses = 33. Winner = DATA
[DUEL] Epoch ended. INSTR misses = 43, DATA misses = 41. Winner = DATA
Heartbeat CPU 0 instructions: 10000009 cycles: 2055633 heartbeat IPC: 4.865 cumulative IPC: 4.865 (Simulation time: 00 hr 00 min 28 sec)
[DUEL] Epoch ended. INSTR misses = 31, DATA misses = 32. Winner = INSTR
[DUEL] Epoch ended. INSTR misses = 16, DATA misses = 23. Winner = INSTR
[DUEL] Epoch ended. INSTR misses = 48, DATA misses = 48. Winner = INSTR
[DUEL] Epoch ended. INSTR misses = 31, DATA misses = 32. Winner = INSTR
[DUEL] Epoch ended. INSTR misses = 48, DATA misses = 48. Winner = INSTR
[DUEL] Epoch ended. INSTR misses = 32, DATA misses = 18. Winner = DATA
[DUEL] Epoch ended. INSTR misses = 48, DATA misses = 48. Winner = INSTR
[DUEL] Epoch ended. INSTR misses = 32, DATA misses = 32. Winner = INSTR
[DUEL] Epoch ended. INSTR misses = 48, DATA misses = 48. Winner = INSTR
[DUEL] Epoch ended. INSTR misses = 32, DATA misses = 32. Winner = INSTR
[DUEL] Epoch ended. INSTR misses = 48, DATA misses = 39. Winner = DATA
[DUEL] Epoch ended. INSTR misses = 32, DATA misses = 32. Winner = INSTR
[DUEL] Epoch ended. INSTR misses = 39, DATA misses = 40. Winner = INSTR
[DUEL] Epoch ended. INSTR misses = 11, DATA misses = 4. Winner = DATA
[DUEL] Epoch ended. INSTR misses = 2, DATA misses = 6. Winner = INSTR
[DUEL] Epoch ended. INSTR misses = 0, DATA misses = 0. Winner = INSTR
[DUEL] Epoch ended. INSTR misses = 15, DATA misses = 19. Winner = INSTR
[DUEL] Epoch ended. INSTR misses = 42, DATA misses = 25. Winner = DATA
[DUEL] Epoch ended. INSTR misses = 102, DATA misses = 111. Winner = INSTR
[DUEL] Epoch ended. INSTR misses = 78, DATA misses = 64. Winner = DATA
[DUEL] Epoch ended. INSTR misses = 63, DATA misses = 77. Winner = INSTR
[DUEL] Epoch ended. INSTR misses = 51, DATA misses = 41. Winner = DATA
[DUEL] Epoch ended. INSTR misses = 76, DATA misses = 89. Winner = INSTR
[DUEL] Epoch ended. INSTR misses = 86, DATA misses = 106. Winner = INSTR
[DUEL] Epoch ended. INSTR misses = 42, DATA misses = 49. Winner = INSTR
[DUEL] Epoch ended. INSTR misses = 60, DATA misses = 64. Winner = INSTR
[DUEL] Epoch ended. INSTR misses = 69, DATA misses = 80. Winner = INSTR
[DUEL] Epoch ended. INSTR misses = 72, DATA misses = 66. Winner = DATA
[DUEL] Epoch ended. INSTR misses = 87, DATA misses = 73. Winner = DATA
[DUEL] Epoch ended. INSTR misses = 43, DATA misses = 44. Winner = INSTR
[DUEL] Epoch ended. INSTR misses = 79, DATA misses = 71. Winner = DATA
[DUEL] Epoch ended. INSTR misses = 52, DATA misses = 55. Winner = INSTR
[DUEL] Epoch ended. INSTR misses = 80, DATA misses = 106. Winner = INSTR
[DUEL] Epoch ended. INSTR misses = 52, DATA misses = 61. Winner = INSTR
[DUEL] Epoch ended. INSTR misses = 76, DATA misses = 74. Winner = DATA
[DUEL] Epoch ended. INSTR misses = 59, DATA misses = 64. Winner = INSTR
[DUEL] Epoch ended. INSTR misses = 53, DATA misses = 41. Winner = DATA
[DUEL] Epoch ended. INSTR misses = 76, DATA misses = 89. Winner = INSTR
[DUEL] Epoch ended. INSTR misses = 60, DATA misses = 59. Winner = DATA
Heartbeat CPU 0 instructions: 20000006 cycles: 3871166 heartbeat IPC: 5.508 cumulative IPC: 5.166 (Simulation time: 00 hr 00 min 57 sec)
[DUEL] Epoch ended. INSTR misses = 62, DATA misses = 62. Winner = INSTR
[DUEL] Epoch ended. INSTR misses = 56, DATA misses = 63. Winner = INSTR
[DUEL] Epoch ended. INSTR misses = 57, DATA misses = 64. Winner = INSTR
[DUEL] Epoch ended. INSTR misses = 46, DATA misses = 44. Winner = DATA
[DUEL] Epoch ended. INSTR misses = 56, DATA misses = 52. Winner = DATA
[DUEL] Epoch ended. INSTR misses = 75, DATA misses = 84. Winner = INSTR
[DUEL] Epoch ended. INSTR misses = 57, DATA misses = 60. Winner = INSTR
[DUEL] Epoch ended. INSTR misses = 67, DATA misses = 59. Winner = DATA
[DUEL] Epoch ended. INSTR misses = 74, DATA misses = 56. Winner = DATA
[DUEL] Epoch ended. INSTR misses = 87, DATA misses = 68. Winner = DATA
[DUEL] Epoch ended. INSTR misses = 71, DATA misses = 86. Winner = INSTR
[DUEL] Epoch ended. INSTR misses = 85, DATA misses = 86. Winner = INSTR
[DUEL] Epoch ended. INSTR misses = 54, DATA misses = 45. Winner = DATA
[DUEL] Epoch ended. INSTR misses = 51, DATA misses = 70. Winner = INSTR
[DUEL] Epoch ended. INSTR misses = 49, DATA misses = 50. Winner = INSTR
[DUEL] Epoch ended. INSTR misses = 50, DATA misses = 52. Winner = INSTR
[DUEL] Epoch ended. INSTR misses = 62, DATA misses = 40. Winner = DATA
[DUEL] Epoch ended. INSTR misses = 75, DATA misses = 78. Winner = INSTR
[DUEL] Epoch ended. INSTR misses = 107, DATA misses = 87. Winner = DATA
[DUEL] Epoch ended. INSTR misses = 49, DATA misses = 56. Winner = INSTR
[DUEL] Epoch ended. INSTR misses = 46, DATA misses = 70. Winner = INSTR
[DUEL] Epoch ended. INSTR misses = 75, DATA misses = 63. Winner = DATA
[DUEL] Epoch ended. INSTR misses = 47, DATA misses = 46. Winner = DATA
[DUEL] Epoch ended. INSTR misses = 57, DATA misses = 74. Winner = INSTR
[DUEL] Epoch ended. INSTR misses = 67, DATA misses = 73. Winner = INSTR
[DUEL] Epoch ended. INSTR misses = 44, DATA misses = 47. Winner = INSTR
[DUEL] Epoch ended. INSTR misses = 29, DATA misses = 31. Winner = INSTR
[DUEL] Epoch ended. INSTR misses = 51, DATA misses = 55. Winner = INSTR
[DUEL] Epoch ended. INSTR misses = 59, DATA misses = 61. Winner = INSTR
[DUEL] Epoch ended. INSTR misses = 68, DATA misses = 65. Winner = DATA
[DUEL] Epoch ended. INSTR misses = 55, DATA misses = 60. Winner = INSTR
[DUEL] Epoch ended. INSTR misses = 62, DATA misses = 65. Winner = INSTR
[DUEL] Epoch ended. INSTR misses = 56, DATA misses = 66. Winner = INSTR
[DUEL] Epoch ended. INSTR misses = 54, DATA misses = 80. Winner = INSTR
[DUEL] Epoch ended. INSTR misses = 42, DATA misses = 52. Winner = INSTR
[DUEL] Epoch ended. INSTR misses = 30, DATA misses = 36. Winner = INSTR
[DUEL] Epoch ended. INSTR misses = 16, DATA misses = 0. Winner = DATA
[DUEL] Epoch ended. INSTR misses = 1, DATA misses = 16. Winner = INSTR
[DUEL] Epoch ended. INSTR misses = 1, DATA misses = 0. Winner = DATA
Heartbeat CPU 0 instructions: 30000005 cycles: 5586388 heartbeat IPC: 5.83 cumulative IPC: 5.37 (Simulation time: 00 hr 01 min 26 sec)
Warmup finished CPU 0 instructions: 30000005 cycles: 5586389 cumulative IPC: 5.37 (Simulation time: 00 hr 01 min 26 sec)
Warmup complete CPU 0 instructions: 30000005 cycles: 5586389 cumulative IPC: 5.37 (Simulation time: 00 hr 01 min 26 sec)
*** Reached end of trace: (0, "../traces/public_traces/compute_fp/compute_fp_1.champsimtrace.xz")
[DUEL] Epoch ended. INSTR misses = 18, DATA misses = 21. Winner = INSTR
[DUEL] Epoch ended. INSTR misses = 49, DATA misses = 50. Winner = INSTR
[DUEL] Epoch ended. INSTR misses = 48, DATA misses = 52. Winner = INSTR
[DUEL] Epoch ended. INSTR misses = 48, DATA misses = 45. Winner = DATA
[DUEL] Epoch ended. INSTR misses = 32, DATA misses = 29. Winner = DATA
[DUEL] Epoch ended. INSTR misses = 32, DATA misses = 32. Winner = INSTR
[DUEL] Epoch ended. INSTR misses = 48, DATA misses = 48. Winner = INSTR
[DUEL] Epoch ended. INSTR misses = 32, DATA misses = 32. Winner = INSTR
[DUEL] Epoch ended. INSTR misses = 48, DATA misses = 48. Winner = INSTR
[DUEL] Epoch ended. INSTR misses = 32, DATA misses = 24. Winner = DATA
[DUEL] Epoch ended. INSTR misses = 47, DATA misses = 37. Winner = DATA
[DUEL] Epoch ended. INSTR misses = 32, DATA misses = 37. Winner = INSTR
[DUEL] Epoch ended. INSTR misses = 11, DATA misses = 6. Winner = DATA
[DUEL] Epoch ended. INSTR misses = 0, DATA misses = 0. Winner = INSTR
[DUEL] Epoch ended. INSTR misses = 1, DATA misses = 0. Winner = DATA
[DUEL] Epoch ended. INSTR misses = 40, DATA misses = 38. Winner = DATA
[DUEL] Epoch ended. INSTR misses = 51, DATA misses = 72. Winner = INSTR
[DUEL] Epoch ended. INSTR misses = 40, DATA misses = 58. Winner = INSTR
[DUEL] Epoch ended. INSTR misses = 47, DATA misses = 38. Winner = DATA
[DUEL] Epoch ended. INSTR misses = 48, DATA misses = 48. Winner = INSTR
[DUEL] Epoch ended. INSTR misses = 32, DATA misses = 32. Winner = INSTR
[DUEL] Epoch ended. INSTR misses = 48, DATA misses = 48. Winner = INSTR
[DUEL] Epoch ended. INSTR misses = 32, DATA misses = 32. Winner = INSTR
[DUEL] Epoch ended. INSTR misses = 48, DATA misses = 48. Winner = INSTR
[DUEL] Epoch ended. INSTR misses = 32, DATA misses = 32. Winner = INSTR
[DUEL] Epoch ended. INSTR misses = 32, DATA misses = 32. Winner = INSTR
[DUEL] Epoch ended. INSTR misses = 48, DATA misses = 48. Winner = INSTR
[DUEL] Epoch ended. INSTR misses = 32, DATA misses = 32. Winner = INSTR
[DUEL] Epoch ended. INSTR misses = 48, DATA misses = 48. Winner = INSTR
[DUEL] Epoch ended. INSTR misses = 31, DATA misses = 29. Winner = DATA
[DUEL] Epoch ended. INSTR misses = 35, DATA misses = 45. Winner = INSTR
[DUEL] Epoch ended. INSTR misses = 48, DATA misses = 48. Winner = INSTR
[DUEL] Epoch ended. INSTR misses = 19, DATA misses = 20. Winner = INSTR
[DUEL] Epoch ended. INSTR misses = 39, DATA misses = 41. Winner = INSTR
[DUEL] Epoch ended. INSTR misses = 43, DATA misses = 32. Winner = DATA
[DUEL] Epoch ended. INSTR misses = 17, DATA misses = 21. Winner = INSTR
[DUEL] Epoch ended. INSTR misses = 48, DATA misses = 48. Winner = INSTR
[DUEL] Epoch ended. INSTR misses = 51, DATA misses = 43. Winner = DATA
[DUEL] Epoch ended. INSTR misses = 32, DATA misses = 32. Winner = INSTR
Heartbeat CPU 0 instructions: 40000002 cycles: 12455560 heartbeat IPC: 1.456 cumulative IPC: 1.456 (Simulation time: 00 hr 02 min 21 sec)
[DUEL] Epoch ended. INSTR misses = 47, DATA misses = 48. Winner = INSTR
[DUEL] Epoch ended. INSTR misses = 32, DATA misses = 32. Winner = INSTR
[DUEL] Epoch ended. INSTR misses = 32, DATA misses = 42. Winner = INSTR
[DUEL] Epoch ended. INSTR misses = 32, DATA misses = 32. Winner = INSTR
[DUEL] Epoch ended. INSTR misses = 48, DATA misses = 48. Winner = INSTR
[DUEL] Epoch ended. INSTR misses = 35, DATA misses = 32. Winner = DATA
[DUEL] Epoch ended. INSTR misses = 45, DATA misses = 46. Winner = INSTR
[DUEL] Epoch ended. INSTR misses = 31, DATA misses = 31. Winner = INSTR
[DUEL] Epoch ended. INSTR misses = 48, DATA misses = 48. Winner = INSTR
[DUEL] Epoch ended. INSTR misses = 32, DATA misses = 32. Winner = INSTR
[DUEL] Epoch ended. INSTR misses = 48, DATA misses = 40. Winner = DATA
[DUEL] Epoch ended. INSTR misses = 32, DATA misses = 32. Winner = INSTR
[DUEL] Epoch ended. INSTR misses = 45, DATA misses = 40. Winner = DATA
[DUEL] Epoch ended. INSTR misses = 16, DATA misses = 20. Winner = INSTR
[DUEL] Epoch ended. INSTR misses = 15, DATA misses = 9. Winner = DATA
[DUEL] Epoch ended. INSTR misses = 0, DATA misses = 0. Winner = INSTR
[DUEL] Epoch ended. INSTR misses = 15, DATA misses = 16. Winner = INSTR
[DUEL] Epoch ended. INSTR misses = 0, DATA misses = 0. Winner = INSTR
[DUEL] Epoch ended. INSTR misses = 92, DATA misses = 59. Winner = DATA
[DUEL] Epoch ended. INSTR misses = 77, DATA misses = 68. Winner = DATA
[DUEL] Epoch ended. INSTR misses = 51, DATA misses = 46. Winner = DATA
[DUEL] Epoch ended. INSTR misses = 74, DATA misses = 69. Winner = DATA
[DUEL] Epoch ended. INSTR misses = 55, DATA misses = 62. Winner = INSTR
[DUEL] Epoch ended. INSTR misses = 73, DATA misses = 76. Winner = INSTR
[DUEL] Epoch ended. INSTR misses = 68, DATA misses = 59. Winner = DATA
[DUEL] Epoch ended. INSTR misses = 41, DATA misses = 31. Winner = DATA
[DUEL] Epoch ended. INSTR misses = 94, DATA misses = 98. Winner = INSTR
[DUEL] Epoch ended. INSTR misses = 84, DATA misses = 68. Winner = DATA
[DUEL] Epoch ended. INSTR misses = 77, DATA misses = 63. Winner = DATA
[DUEL] Epoch ended. INSTR misses = 45, DATA misses = 41. Winner = DATA
[DUEL] Epoch ended. INSTR misses = 52, DATA misses = 44. Winner = DATA
[DUEL] Epoch ended. INSTR misses = 69, DATA misses = 69. Winner = INSTR
[DUEL] Epoch ended. INSTR misses = 63, DATA misses = 79. Winner = INSTR
[DUEL] Epoch ended. INSTR misses = 66, DATA misses = 74. Winner = INSTR
[DUEL] Epoch ended. INSTR misses = 78, DATA misses = 67. Winner = DATA
[DUEL] Epoch ended. INSTR misses = 55, DATA misses = 66. Winner = INSTR
[DUEL] Epoch ended. INSTR misses = 45, DATA misses = 37. Winner = DATA
[DUEL] Epoch ended. INSTR misses = 69, DATA misses = 66. Winner = DATA
[DUEL] Epoch ended. INSTR misses = 71, DATA misses = 60. Winner = DATA
Heartbeat CPU 0 instructions: 50000011 cycles: 23575250 heartbeat IPC: 0.8993 cumulative IPC: 1.112 (Simulation time: 00 hr 03 min 56 sec)
[DUEL] Epoch ended. INSTR misses = 73, DATA misses = 61. Winner = DATA
[DUEL] Epoch ended. INSTR misses = 62, DATA misses = 72. Winner = INSTR
[DUEL] Epoch ended. INSTR misses = 57, DATA misses = 56. Winner = DATA
[DUEL] Epoch ended. INSTR misses = 51, DATA misses = 44. Winner = DATA
[DUEL] Epoch ended. INSTR misses = 54, DATA misses = 49. Winner = DATA
[DUEL] Epoch ended. INSTR misses = 79, DATA misses = 67. Winner = DATA
[DUEL] Epoch ended. INSTR misses = 72, DATA misses = 68. Winner = DATA
[DUEL] Epoch ended. INSTR misses = 82, DATA misses = 81. Winner = DATA
[DUEL] Epoch ended. INSTR misses = 76, DATA misses = 49. Winner = DATA
[DUEL] Epoch ended. INSTR misses = 96, DATA misses = 66. Winner = DATA
[DUEL] Epoch ended. INSTR misses = 57, DATA misses = 69. Winner = INSTR
[DUEL] Epoch ended. INSTR misses = 68, DATA misses = 80. Winner = INSTR
[DUEL] Epoch ended. INSTR misses = 66, DATA misses = 58. Winner = DATA
[DUEL] Epoch ended. INSTR misses = 79, DATA misses = 88. Winner = INSTR
[DUEL] Epoch ended. INSTR misses = 47, DATA misses = 49. Winner = INSTR
[DUEL] Epoch ended. INSTR misses = 35, DATA misses = 42. Winner = INSTR
[DUEL] Epoch ended. INSTR misses = 71, DATA misses = 67. Winner = DATA
[DUEL] Epoch ended. INSTR misses = 32, DATA misses = 40. Winner = INSTR
[DUEL] Epoch ended. INSTR misses = 96, DATA misses = 102. Winner = INSTR
[DUEL] Epoch ended. INSTR misses = 68, DATA misses = 61. Winner = DATA
[DUEL] Epoch ended. INSTR misses = 45, DATA misses = 54. Winner = INSTR
[DUEL] Epoch ended. INSTR misses = 82, DATA misses = 91. Winner = INSTR
[DUEL] Epoch ended. INSTR misses = 51, DATA misses = 31. Winner = DATA
[DUEL] Epoch ended. INSTR misses = 62, DATA misses = 77. Winner = INSTR
[DUEL] Epoch ended. INSTR misses = 43, DATA misses = 51. Winner = INSTR
[DUEL] Epoch ended. INSTR misses = 58, DATA misses = 61. Winner = INSTR
[DUEL] Epoch ended. INSTR misses = 38, DATA misses = 41. Winner = INSTR
[DUEL] Epoch ended. INSTR misses = 51, DATA misses = 55. Winner = INSTR
[DUEL] Epoch ended. INSTR misses = 63, DATA misses = 62. Winner = DATA
[DUEL] Epoch ended. INSTR misses = 72, DATA misses = 68. Winner = DATA
[DUEL] Epoch ended. INSTR misses = 50, DATA misses = 52. Winner = INSTR
[DUEL] Epoch ended. INSTR misses = 58, DATA misses = 52. Winner = DATA
[DUEL] Epoch ended. INSTR misses = 65, DATA misses = 76. Winner = INSTR
[DUEL] Epoch ended. INSTR misses = 54, DATA misses = 76. Winner = INSTR
[DUEL] Epoch ended. INSTR misses = 45, DATA misses = 52. Winner = INSTR
[DUEL] Epoch ended. INSTR misses = 50, DATA misses = 57. Winner = INSTR
[DUEL] Epoch ended. INSTR misses = 0, DATA misses = 0. Winner = INSTR
[DUEL] Epoch ended. INSTR misses = 16, DATA misses = 15. Winner = DATA
[DUEL] Epoch ended. INSTR misses = 1, DATA misses = 0. Winner = DATA
Heartbeat CPU 0 instructions: 60000000 cycles: 39265803 heartbeat IPC: 0.6373 cumulative IPC: 0.8908 (Simulation time: 00 hr 06 min 14 sec)
*** Reached end of trace: (0, "../traces/public_traces/compute_fp/compute_fp_1.champsimtrace.xz")
[DUEL] Epoch ended. INSTR misses = 2, DATA misses = 1. Winner = DATA
[DUEL] Epoch ended. INSTR misses = 53, DATA misses = 60. Winner = INSTR
[DUEL] Epoch ended. INSTR misses = 42, DATA misses = 46. Winner = INSTR
[DUEL] Epoch ended. INSTR misses = 48, DATA misses = 48. Winner = INSTR
[DUEL] Epoch ended. INSTR misses = 32, DATA misses = 26. Winner = DATA
[DUEL] Epoch ended. INSTR misses = 47, DATA misses = 48. Winner = INSTR
[DUEL] Epoch ended. INSTR misses = 32, DATA misses = 32. Winner = INSTR
[DUEL] Epoch ended. INSTR misses = 48, DATA misses = 48. Winner = INSTR
[DUEL] Epoch ended. INSTR misses = 32, DATA misses = 32. Winner = INSTR
[DUEL] Epoch ended. INSTR misses = 48, DATA misses = 43. Winner = DATA
[DUEL] Epoch ended. INSTR misses = 32, DATA misses = 32. Winner = INSTR
[DUEL] Epoch ended. INSTR misses = 47, DATA misses = 46. Winner = DATA
[DUEL] Epoch ended. INSTR misses = 11, DATA misses = 6. Winner = DATA
[DUEL] Epoch ended. INSTR misses = 0, DATA misses = 0. Winner = INSTR
[DUEL] Epoch ended. INSTR misses = 1, DATA misses = 0. Winner = DATA
[DUEL] Epoch ended. INSTR misses = 16, DATA misses = 16. Winner = INSTR
[DUEL] Epoch ended. INSTR misses = 44, DATA misses = 52. Winner = INSTR
[DUEL] Epoch ended. INSTR misses = 63, DATA misses = 115. Winner = INSTR
[DUEL] Epoch ended. INSTR misses = 32, DATA misses = 25. Winner = DATA
[DUEL] Epoch ended. INSTR misses = 50, DATA misses = 48. Winner = DATA
[DUEL] Epoch ended. INSTR misses = 32, DATA misses = 32. Winner = INSTR
[DUEL] Epoch ended. INSTR misses = 48, DATA misses = 48. Winner = INSTR
[DUEL] Epoch ended. INSTR misses = 32, DATA misses = 32. Winner = INSTR
[DUEL] Epoch ended. INSTR misses = 48, DATA misses = 48. Winner = INSTR
[DUEL] Epoch ended. INSTR misses = 32, DATA misses = 32. Winner = INSTR
[DUEL] Epoch ended. INSTR misses = 47, DATA misses = 48. Winner = INSTR
[DUEL] Epoch ended. INSTR misses = 32, DATA misses = 32. Winner = INSTR
[DUEL] Epoch ended. INSTR misses = 48, DATA misses = 48. Winner = INSTR
[DUEL] Epoch ended. INSTR misses = 32, DATA misses = 32. Winner = INSTR
[DUEL] Epoch ended. INSTR misses = 43, DATA misses = 42. Winner = DATA
[DUEL] Epoch ended. INSTR misses = 26, DATA misses = 31. Winner = INSTR
[DUEL] Epoch ended. INSTR misses = 48, DATA misses = 48. Winner = INSTR
[DUEL] Epoch ended. INSTR misses = 23, DATA misses = 19. Winner = DATA
[DUEL] Epoch ended. INSTR misses = 34, DATA misses = 42. Winner = INSTR
[DUEL] Epoch ended. INSTR misses = 48, DATA misses = 48. Winner = INSTR
[DUEL] Epoch ended. INSTR misses = 27, DATA misses = 16. Winner = DATA
[DUEL] Epoch ended. INSTR misses = 33, DATA misses = 41. Winner = INSTR
[DUEL] Epoch ended. INSTR misses = 57, DATA misses = 49. Winner = DATA
[DUEL] Epoch ended. INSTR misses = 38, DATA misses = 24. Winner = DATA
Heartbeat CPU 0 instructions: 70000002 cycles: 46032358 heartbeat IPC: 1.478 cumulative IPC: 0.989 (Simulation time: 00 hr 07 min 08 sec)
[DUEL] Epoch ended. INSTR misses = 34, DATA misses = 48. Winner = INSTR
[DUEL] Epoch ended. INSTR misses = 48, DATA misses = 48. Winner = INSTR
[DUEL] Epoch ended. INSTR misses = 16, DATA misses = 26. Winner = INSTR
[DUEL] Epoch ended. INSTR misses = 48, DATA misses = 48. Winner = INSTR
[DUEL] Epoch ended. INSTR misses = 32, DATA misses = 32. Winner = INSTR
[DUEL] Epoch ended. INSTR misses = 48, DATA misses = 43. Winner = DATA
[DUEL] Epoch ended. INSTR misses = 32, DATA misses = 28. Winner = DATA
[DUEL] Epoch ended. INSTR misses = 32, DATA misses = 32. Winner = INSTR
[DUEL] Epoch ended. INSTR misses = 48, DATA misses = 48. Winner = INSTR
[DUEL] Epoch ended. INSTR misses = 32, DATA misses = 32. Winner = INSTR
[DUEL] Epoch ended. INSTR misses = 48, DATA misses = 48. Winner = INSTR
[DUEL] Epoch ended. INSTR misses = 38, DATA misses = 27. Winner = DATA
[DUEL] Epoch ended. INSTR misses = 37, DATA misses = 40. Winner = INSTR
[DUEL] Epoch ended. INSTR misses = 32, DATA misses = 39. Winner = INSTR
[DUEL] Epoch ended. INSTR misses = 14, DATA misses = 10. Winner = DATA
[DUEL] Epoch ended. INSTR misses = 0, DATA misses = 0. Winner = INSTR
[DUEL] Epoch ended. INSTR misses = 15, DATA misses = 16. Winner = INSTR
[DUEL] Epoch ended. INSTR misses = 0, DATA misses = 0. Winner = INSTR
[DUEL] Epoch ended. INSTR misses = 57, DATA misses = 26. Winner = DATA
[DUEL] Epoch ended. INSTR misses = 95, DATA misses = 85. Winner = DATA
[DUEL] Epoch ended. INSTR misses = 50, DATA misses = 46. Winner = DATA
[DUEL] Epoch ended. INSTR misses = 64, DATA misses = 70. Winner = INSTR
[DUEL] Epoch ended. INSTR misses = 49, DATA misses = 45. Winner = DATA
[DUEL] Epoch ended. INSTR misses = 70, DATA misses = 67. Winner = DATA
[DUEL] Epoch ended. INSTR misses = 75, DATA misses = 72. Winner = DATA
[DUEL] Epoch ended. INSTR misses = 42, DATA misses = 20. Winner = DATA
[DUEL] Epoch ended. INSTR misses = 69, DATA misses = 73. Winner = INSTR
[DUEL] Epoch ended. INSTR misses = 82, DATA misses = 85. Winner = INSTR
[DUEL] Epoch ended. INSTR misses = 102, DATA misses = 83. Winner = DATA
[DUEL] Epoch ended. INSTR misses = 50, DATA misses = 34. Winner = DATA
[DUEL] Epoch ended. INSTR misses = 57, DATA misses = 52. Winner = DATA
[DUEL] Epoch ended. INSTR misses = 68, DATA misses = 69. Winner = INSTR
[DUEL] Epoch ended. INSTR misses = 59, DATA misses = 49. Winner = DATA
[DUEL] Epoch ended. INSTR misses = 69, DATA misses = 97. Winner = INSTR
[DUEL] Epoch ended. INSTR misses = 64, DATA misses = 67. Winner = INSTR
[DUEL] Epoch ended. INSTR misses = 60, DATA misses = 62. Winner = INSTR
[DUEL] Epoch ended. INSTR misses = 74, DATA misses = 63. Winner = DATA
[DUEL] Epoch ended. INSTR misses = 42, DATA misses = 41. Winner = DATA
[DUEL] Epoch ended. INSTR misses = 77, DATA misses = 74. Winner = DATA
Heartbeat CPU 0 instructions: 80000005 cycles: 57195713 heartbeat IPC: 0.8958 cumulative IPC: 0.9688 (Simulation time: 00 hr 08 min 45 sec)
[DUEL] Epoch ended. INSTR misses = 60, DATA misses = 46. Winner = DATA
[DUEL] Epoch ended. INSTR misses = 68, DATA misses = 68. Winner = INSTR
[DUEL] Epoch ended. INSTR misses = 40, DATA misses = 52. Winner = INSTR
[DUEL] Epoch ended. INSTR misses = 67, DATA misses = 63. Winner = DATA
[DUEL] Epoch ended. INSTR misses = 48, DATA misses = 43. Winner = DATA
[DUEL] Epoch ended. INSTR misses = 60, DATA misses = 54. Winner = DATA
[DUEL] Epoch ended. INSTR misses = 79, DATA misses = 68. Winner = DATA
[DUEL] Epoch ended. INSTR misses = 73, DATA misses = 80. Winner = INSTR
[DUEL] Epoch ended. INSTR misses = 76, DATA misses = 52. Winner = DATA
[DUEL] Epoch ended. INSTR misses = 75, DATA misses = 56. Winner = DATA
[DUEL] Epoch ended. INSTR misses = 100, DATA misses = 65. Winner = DATA
[DUEL] Epoch ended. INSTR misses = 76, DATA misses = 105. Winner = INSTR
[DUEL] Epoch ended. INSTR misses = 60, DATA misses = 57. Winner = DATA
[DUEL] Epoch ended. INSTR misses = 67, DATA misses = 63. Winner = DATA
[DUEL] Epoch ended. INSTR misses = 49, DATA misses = 61. Winner = INSTR
[DUEL] Epoch ended. INSTR misses = 31, DATA misses = 33. Winner = INSTR
[DUEL] Epoch ended. INSTR misses = 69, DATA misses = 64. Winner = DATA
[DUEL] Epoch ended. INSTR misses = 56, DATA misses = 46. Winner = DATA
[DUEL] Epoch ended. INSTR misses = 66, DATA misses = 55. Winner = DATA
[DUEL] Epoch ended. INSTR misses = 98, DATA misses = 72. Winner = DATA
[DUEL] Epoch ended. INSTR misses = 56, DATA misses = 56. Winner = INSTR
[DUEL] Epoch ended. INSTR misses = 58, DATA misses = 81. Winner = INSTR
[DUEL] Epoch ended. INSTR misses = 58, DATA misses = 43. Winner = DATA
[DUEL] Epoch ended. INSTR misses = 80, DATA misses = 79. Winner = DATA
[DUEL] Epoch ended. INSTR misses = 43, DATA misses = 50. Winner = INSTR
[DUEL] Epoch ended. INSTR misses = 56, DATA misses = 63. Winner = INSTR
[DUEL] Epoch ended. INSTR misses = 36, DATA misses = 36. Winner = INSTR
[DUEL] Epoch ended. INSTR misses = 45, DATA misses = 42. Winner = DATA
[DUEL] Epoch ended. INSTR misses = 43, DATA misses = 40. Winner = DATA
[DUEL] Epoch ended. INSTR misses = 63, DATA misses = 77. Winner = INSTR
[DUEL] Epoch ended. INSTR misses = 50, DATA misses = 49. Winner = DATA
[DUEL] Epoch ended. INSTR misses = 67, DATA misses = 59. Winner = DATA
[DUEL] Epoch ended. INSTR misses = 69, DATA misses = 71. Winner = INSTR
[DUEL] Epoch ended. INSTR misses = 48, DATA misses = 72. Winner = INSTR
[DUEL] Epoch ended. INSTR misses = 74, DATA misses = 75. Winner = INSTR
[DUEL] Epoch ended. INSTR misses = 40, DATA misses = 48. Winner = INSTR
[DUEL] Epoch ended. INSTR misses = 13, DATA misses = 17. Winner = INSTR
[DUEL] Epoch ended. INSTR misses = 15, DATA misses = 14. Winner = DATA
[DUEL] Epoch ended. INSTR misses = 1, DATA misses = 0. Winner = DATA
Heartbeat CPU 0 instructions: 90000002 cycles: 72671942 heartbeat IPC: 0.6462 cumulative IPC: 0.8944 (Simulation time: 00 hr 11 min 01 sec)
[DUEL] Epoch ended. INSTR misses = 0, DATA misses = 1. Winner = INSTR
*** Reached end of trace: (0, "../traces/public_traces/compute_fp/compute_fp_1.champsimtrace.xz")
[DUEL] Epoch ended. INSTR misses = 40, DATA misses = 40. Winner = INSTR
[DUEL] Epoch ended. INSTR misses = 45, DATA misses = 49. Winner = INSTR
[DUEL] Epoch ended. INSTR misses = 48, DATA misses = 48. Winner = INSTR
[DUEL] Epoch ended. INSTR misses = 32, DATA misses = 27. Winner = DATA
[DUEL] Epoch ended. INSTR misses = 48, DATA misses = 43. Winner = DATA
[DUEL] Epoch ended. INSTR misses = 32, DATA misses = 32. Winner = INSTR
[DUEL] Epoch ended. INSTR misses = 48, DATA misses = 48. Winner = INSTR
[DUEL] Epoch ended. INSTR misses = 32, DATA misses = 32. Winner = INSTR
[DUEL] Epoch ended. INSTR misses = 48, DATA misses = 43. Winner = DATA
[DUEL] Epoch ended. INSTR misses = 32, DATA misses = 32. Winner = INSTR
[DUEL] Epoch ended. INSTR misses = 48, DATA misses = 44. Winner = DATA
[DUEL] Epoch ended. INSTR misses = 16, DATA misses = 19. Winner = INSTR
[DUEL] Epoch ended. INSTR misses = 12, DATA misses = 6. Winner = DATA
[DUEL] Epoch ended. INSTR misses = 0, DATA misses = 0. Winner = INSTR
[DUEL] Epoch ended. INSTR misses = 18, DATA misses = 16. Winner = DATA
[DUEL] Epoch ended. INSTR misses = 34, DATA misses = 43. Winner = INSTR
[DUEL] Epoch ended. INSTR misses = 36, DATA misses = 84. Winner = INSTR
[DUEL] Epoch ended. INSTR misses = 58, DATA misses = 72. Winner = INSTR
[DUEL] Epoch ended. INSTR misses = 36, DATA misses = 33. Winner = DATA
[DUEL] Epoch ended. INSTR misses = 32, DATA misses = 32. Winner = INSTR
[DUEL] Epoch ended. INSTR misses = 48, DATA misses = 48. Winner = INSTR
[DUEL] Epoch ended. INSTR misses = 48, DATA misses = 48. Winner = INSTR
[DUEL] Epoch ended. INSTR misses = 32, DATA misses = 32. Winner = INSTR
[DUEL] Epoch ended. INSTR misses = 32, DATA misses = 32. Winner = INSTR
[DUEL] Epoch ended. INSTR misses = 48, DATA misses = 48. Winner = INSTR
[DUEL] Epoch ended. INSTR misses = 32, DATA misses = 32. Winner = INSTR
[DUEL] Epoch ended. INSTR misses = 48, DATA misses = 48. Winner = INSTR
[DUEL] Epoch ended. INSTR misses = 32, DATA misses = 32. Winner = INSTR
[DUEL] Epoch ended. INSTR misses = 48, DATA misses = 48. Winner = INSTR
[DUEL] Epoch ended. INSTR misses = 32, DATA misses = 32. Winner = INSTR
[DUEL] Epoch ended. INSTR misses = 47, DATA misses = 44. Winner = DATA
[DUEL] Epoch ended. INSTR misses = 40, DATA misses = 40. Winner = INSTR
[DUEL] Epoch ended. INSTR misses = 22, DATA misses = 24. Winner = INSTR
[DUEL] Epoch ended. INSTR misses = 48, DATA misses = 48. Winner = INSTR
[DUEL] Epoch ended. INSTR misses = 25, DATA misses = 16. Winner = DATA
[DUEL] Epoch ended. INSTR misses = 33, DATA misses = 39. Winner = INSTR
[DUEL] Epoch ended. INSTR misses = 57, DATA misses = 49. Winner = DATA
[DUEL] Epoch ended. INSTR misses = 26, DATA misses = 26. Winner = INSTR
Heartbeat CPU 0 instructions: 100000001 cycles: 79303225 heartbeat IPC: 1.508 cumulative IPC: 0.9496 (Simulation time: 00 hr 11 min 55 sec)
[DUEL] Epoch ended. INSTR misses = 47, DATA misses = 48. Winner = INSTR
[DUEL] Epoch ended. INSTR misses = 46, DATA misses = 46. Winner = INSTR
[DUEL] Epoch ended. INSTR misses = 16, DATA misses = 26. Winner = INSTR
[DUEL] Epoch ended. INSTR misses = 48, DATA misses = 48. Winner = INSTR
[DUEL] Epoch ended. INSTR misses = 32, DATA misses = 32. Winner = INSTR
[DUEL] Epoch ended. INSTR misses = 48, DATA misses = 48. Winner = INSTR
[DUEL] Epoch ended. INSTR misses = 32, DATA misses = 31. Winner = DATA
[DUEL] Epoch ended. INSTR misses = 48, DATA misses = 48. Winner = INSTR
[DUEL] Epoch ended. INSTR misses = 32, DATA misses = 32. Winner = INSTR
[DUEL] Epoch ended. INSTR misses = 48, DATA misses = 48. Winner = INSTR
[DUEL] Epoch ended. INSTR misses = 32, DATA misses = 32. Winner = INSTR
[DUEL] Epoch ended. INSTR misses = 48, DATA misses = 43. Winner = DATA
[DUEL] Epoch ended. INSTR misses = 32, DATA misses = 32. Winner = INSTR
[DUEL] Epoch ended. INSTR misses = 43, DATA misses = 47. Winner = INSTR
[DUEL] Epoch ended. INSTR misses = 15, DATA misses = 10. Winner = DATA
[DUEL] Epoch ended. INSTR misses = 0, DATA misses = 0. Winner = INSTR
[DUEL] Epoch ended. INSTR misses = 0, DATA misses = 0. Winner = INSTR
[DUEL] Epoch ended. INSTR misses = 15, DATA misses = 16. Winner = INSTR
[DUEL] Epoch ended. INSTR misses = 37, DATA misses = 20. Winner = DATA
[DUEL] Epoch ended. INSTR misses = 93, DATA misses = 75. Winner = DATA
[DUEL] Epoch ended. INSTR misses = 61, DATA misses = 53. Winner = DATA
[DUEL] Epoch ended. INSTR misses = 67, DATA misses = 75. Winner = INSTR
[DUEL] Epoch ended. INSTR misses = 39, DATA misses = 35. Winner = DATA
[DUEL] Epoch ended. INSTR misses = 53, DATA misses = 66. Winner = INSTR
[DUEL] Epoch ended. INSTR misses = 100, DATA misses = 85. Winner = DATA
[DUEL] Epoch ended. INSTR misses = 46, DATA misses = 43. Winner = DATA
[DUEL] Epoch ended. INSTR misses = 57, DATA misses = 52. Winner = DATA
[DUEL] Epoch ended. INSTR misses = 91, DATA misses = 84. Winner = DATA
[DUEL] Epoch ended. INSTR misses = 87, DATA misses = 72. Winner = DATA
[DUEL] Epoch ended. INSTR misses = 80, DATA misses = 69. Winner = DATA
[DUEL] Epoch ended. INSTR misses = 60, DATA misses = 44. Winner = DATA
[DUEL] Epoch ended. INSTR misses = 74, DATA misses = 63. Winner = DATA
[DUEL] Epoch ended. INSTR misses = 67, DATA misses = 56. Winner = DATA
[DUEL] Epoch ended. INSTR misses = 64, DATA misses = 86. Winner = INSTR
[DUEL] Epoch ended. INSTR misses = 61, DATA misses = 57. Winner = DATA
[DUEL] Epoch ended. INSTR misses = 63, DATA misses = 66. Winner = INSTR
[DUEL] Epoch ended. INSTR misses = 44, DATA misses = 50. Winner = INSTR
[DUEL] Epoch ended. INSTR misses = 62, DATA misses = 30. Winner = DATA
[DUEL] Epoch ended. INSTR misses = 85, DATA misses = 86. Winner = INSTR
Heartbeat CPU 0 instructions: 110000001 cycles: 90129371 heartbeat IPC: 0.9237 cumulative IPC: 0.9463 (Simulation time: 00 hr 13 min 28 sec)
[DUEL] Epoch ended. INSTR misses = 62, DATA misses = 56. Winner = DATA
[DUEL] Epoch ended. INSTR misses = 61, DATA misses = 54. Winner = DATA
[DUEL] Epoch ended. INSTR misses = 63, DATA misses = 60. Winner = DATA
[DUEL] Epoch ended. INSTR misses = 68, DATA misses = 67. Winner = DATA
[DUEL] Epoch ended. INSTR misses = 45, DATA misses = 42. Winner = DATA
[DUEL] Epoch ended. INSTR misses = 54, DATA misses = 53. Winner = DATA
[DUEL] Epoch ended. INSTR misses = 88, DATA misses = 78. Winner = DATA
[DUEL] Epoch ended. INSTR misses = 67, DATA misses = 68. Winner = INSTR
[DUEL] Epoch ended. INSTR misses = 70, DATA misses = 62. Winner = DATA
[DUEL] Epoch ended. INSTR misses = 85, DATA misses = 58. Winner = DATA
[DUEL] Epoch ended. INSTR misses = 86, DATA misses = 62. Winner = DATA
[DUEL] Epoch ended. INSTR misses = 67, DATA misses = 86. Winner = INSTR
[DUEL] Epoch ended. INSTR misses = 79, DATA misses = 83. Winner = INSTR
[DUEL] Epoch ended. INSTR misses = 52, DATA misses = 44. Winner = DATA
[DUEL] Epoch ended. INSTR misses = 70, DATA misses = 73. Winner = INSTR
[DUEL] Epoch ended. INSTR misses = 50, DATA misses = 50. Winner = INSTR
[DUEL] Epoch ended. INSTR misses = 51, DATA misses = 48. Winner = DATA
[DUEL] Epoch ended. INSTR misses = 58, DATA misses = 41. Winner = DATA
[DUEL] Epoch ended. INSTR misses = 57, DATA misses = 64. Winner = INSTR
[DUEL] Epoch ended. INSTR misses = 94, DATA misses = 75. Winner = DATA
[DUEL] Epoch ended. INSTR misses = 58, DATA misses = 55. Winner = DATA
[DUEL] Epoch ended. INSTR misses = 48, DATA misses = 72. Winner = INSTR
[DUEL] Epoch ended. INSTR misses = 70, DATA misses = 60. Winner = DATA
[DUEL] Epoch ended. INSTR misses = 44, DATA misses = 42. Winner = DATA
[DUEL] Epoch ended. INSTR misses = 52, DATA misses = 69. Winner = INSTR
[DUEL] Epoch ended. INSTR misses = 59, DATA misses = 64. Winner = INSTR
[DUEL] Epoch ended. INSTR misses = 47, DATA misses = 47. Winner = INSTR
[DUEL] Epoch ended. INSTR misses = 26, DATA misses = 27. Winner = INSTR
[DUEL] Epoch ended. INSTR misses = 53, DATA misses = 54. Winner = INSTR
[DUEL] Epoch ended. INSTR misses = 55, DATA misses = 62. Winner = INSTR
[DUEL] Epoch ended. INSTR misses = 70, DATA misses = 65. Winner = DATA
[DUEL] Epoch ended. INSTR misses = 54, DATA misses = 47. Winner = DATA
[DUEL] Epoch ended. INSTR misses = 66, DATA misses = 72. Winner = INSTR
[DUEL] Epoch ended. INSTR misses = 48, DATA misses = 60. Winner = INSTR
[DUEL] Epoch ended. INSTR misses = 51, DATA misses = 71. Winner = INSTR
[DUEL] Epoch ended. INSTR misses = 36, DATA misses = 45. Winner = INSTR
[DUEL] Epoch ended. INSTR misses = 32, DATA misses = 33. Winner = INSTR
[DUEL] Epoch ended. INSTR misses = 9, DATA misses = 0. Winner = DATA
[DUEL] Epoch ended. INSTR misses = 6, DATA misses = 15. Winner = INSTR
Heartbeat CPU 0 instructions: 120000007 cycles: 105539518 heartbeat IPC: 0.6489 cumulative IPC: 0.9004 (Simulation time: 00 hr 15 min 45 sec)
[DUEL] Epoch ended. INSTR misses = 1, DATA misses = 0. Winner = DATA
*** Reached end of trace: (0, "../traces/public_traces/compute_fp/compute_fp_1.champsimtrace.xz")
[DUEL] Epoch ended. INSTR misses = 17, DATA misses = 19. Winner = INSTR
[DUEL] Epoch ended. INSTR misses = 46, DATA misses = 51. Winner = INSTR
[DUEL] Epoch ended. INSTR misses = 48, DATA misses = 53. Winner = INSTR
[DUEL] Epoch ended. INSTR misses = 48, DATA misses = 44. Winner = DATA
[DUEL] Epoch ended. INSTR misses = 32, DATA misses = 29. Winner = DATA
[DUEL] Epoch ended. INSTR misses = 32, DATA misses = 32. Winner = INSTR
[DUEL] Epoch ended. INSTR misses = 48, DATA misses = 48. Winner = INSTR
[DUEL] Epoch ended. INSTR misses = 32, DATA misses = 32. Winner = INSTR
[DUEL] Epoch ended. INSTR misses = 48, DATA misses = 48. Winner = INSTR
[DUEL] Epoch ended. INSTR misses = 32, DATA misses = 28. Winner = DATA
[DUEL] Epoch ended. INSTR misses = 48, DATA misses = 43. Winner = DATA
[DUEL] Epoch ended. INSTR misses = 32, DATA misses = 38. Winner = INSTR
[DUEL] Epoch ended. INSTR misses = 12, DATA misses = 0. Winner = DATA
[DUEL] Epoch ended. INSTR misses = 0, DATA misses = 6. Winner = INSTR
[DUEL] Epoch ended. INSTR misses = 1, DATA misses = 0. Winner = DATA
[DUEL] Epoch ended. INSTR misses = 33, DATA misses = 34. Winner = INSTR
[DUEL] Epoch ended. INSTR misses = 38, DATA misses = 86. Winner = INSTR
[DUEL] Epoch ended. INSTR misses = 30, DATA misses = 69. Winner = INSTR
[DUEL] Epoch ended. INSTR misses = 52, DATA misses = 42. Winner = DATA
[DUEL] Epoch ended. INSTR misses = 48, DATA misses = 48. Winner = INSTR
[DUEL] Epoch ended. INSTR misses = 32, DATA misses = 32. Winner = INSTR
[DUEL] Epoch ended. INSTR misses = 48, DATA misses = 48. Winner = INSTR
[DUEL] Epoch ended. INSTR misses = 32, DATA misses = 32. Winner = INSTR
[DUEL] Epoch ended. INSTR misses = 32, DATA misses = 32. Winner = INSTR
[DUEL] Epoch ended. INSTR misses = 48, DATA misses = 48. Winner = INSTR
[DUEL] Epoch ended. INSTR misses = 32, DATA misses = 32. Winner = INSTR
[DUEL] Epoch ended. INSTR misses = 48, DATA misses = 48. Winner = INSTR
[DUEL] Epoch ended. INSTR misses = 32, DATA misses = 32. Winner = INSTR
[DUEL] Epoch ended. INSTR misses = 48, DATA misses = 48. Winner = INSTR
[DUEL] Epoch ended. INSTR misses = 31, DATA misses = 28. Winner = DATA
[DUEL] Epoch ended. INSTR misses = 37, DATA misses = 46. Winner = INSTR
[DUEL] Epoch ended. INSTR misses = 48, DATA misses = 48. Winner = INSTR
[DUEL] Epoch ended. INSTR misses = 21, DATA misses = 23. Winner = INSTR
[DUEL] Epoch ended. INSTR misses = 44, DATA misses = 41. Winner = DATA
[DUEL] Epoch ended. INSTR misses = 32, DATA misses = 32. Winner = INSTR
[DUEL] Epoch ended. INSTR misses = 28, DATA misses = 21. Winner = DATA
[DUEL] Epoch ended. INSTR misses = 48, DATA misses = 48. Winner = INSTR
[DUEL] Epoch ended. INSTR misses = 52, DATA misses = 38. Winner = DATA
Heartbeat CPU 0 instructions: 130000001 cycles: 112119814 heartbeat IPC: 1.52 cumulative IPC: 0.9387 (Simulation time: 00 hr 16 min 38 sec)
Simulation finished CPU 0 instructions: 100000002 cycles: 106533428 cumulative IPC: 0.9387 (Simulation time: 00 hr 16 min 38 sec)
Simulation complete CPU 0 instructions: 100000002 cycles: 106533428 cumulative IPC: 0.9387 (Simulation time: 00 hr 16 min 38 sec)

ChampSim completed all CPUs

=== Simulation ===
CPU 0 runs ../traces/public_traces/compute_fp/compute_fp_1.champsimtrace.xz
Region of Interest Statistics

CPU 0 cumulative IPC: 0.9387 instructions: 100000002 cycles: 106533428
CPU 0 Branch Prediction Accuracy: 95.94% MPKI: 6.03 Average ROB Occupancy at Mispredict: 37.56
Branch type MPKI
BRANCH_DIRECT_JUMP: 0
BRANCH_INDIRECT: 0.158
BRANCH_CONDITIONAL: 5.87
BRANCH_DIRECT_CALL: 0
BRANCH_INDIRECT_CALL: 3e-05
BRANCH_RETURN: 4e-05

LLC TOTAL        ACCESS:    7172466 HIT:    1820092 MISS:    5352374
LLC LOAD         ACCESS:    1293802 HIT:     489246 MISS:     804556
LLC RFO          ACCESS:      31982 HIT:       5042 MISS:      26940
LLC PREFETCH     ACCESS:    4276058 HIT:     536249 MISS:    3739809
LLC WRITE        ACCESS:    1545807 HIT:     786693 MISS:     759114
LLC TRANSLATION  ACCESS:      24817 HIT:       2862 MISS:      21955
LLC PREFETCH REQUESTED:          0 ISSUED:          0 USEFUL:          0 USELESS:          0
LLC AVERAGE MISS LATENCY: 345.4 cycles
cpu0_DTLB TOTAL        ACCESS:   26917213 HIT:   26129263 MISS:     787950
cpu0_DTLB LOAD         ACCESS:   26917213 HIT:   26129263 MISS:     787950
cpu0_DTLB RFO          ACCESS:          0 HIT:          0 MISS:          0
cpu0_DTLB PREFETCH     ACCESS:          0 HIT:          0 MISS:          0
cpu0_DTLB WRITE        ACCESS:          0 HIT:          0 MISS:          0
cpu0_DTLB TRANSLATION  ACCESS:          0 HIT:          0 MISS:          0
cpu0_DTLB PREFETCH REQUESTED:          0 ISSUED:          0 USEFUL:          0 USELESS:          0
cpu0_DTLB AVERAGE MISS LATENCY: 20.93 cycles
cpu0_ITLB TOTAL        ACCESS:      13304 HIT:      13304 MISS:          0
cpu0_ITLB LOAD         ACCESS:      13304 HIT:      13304 MISS:          0
cpu0_ITLB RFO          ACCESS:          0 HIT:          0 MISS:          0
cpu0_ITLB PREFETCH     ACCESS:          0 HIT:          0 MISS:          0
cpu0_ITLB WRITE        ACCESS:          0 HIT:          0 MISS:          0
cpu0_ITLB TRANSLATION  ACCESS:          0 HIT:          0 MISS:          0
cpu0_ITLB PREFETCH REQUESTED:          0 ISSUED:          0 USEFUL:          0 USELESS:          0
cpu0_ITLB AVERAGE MISS LATENCY: -nan cycles
cpu0_L1D TOTAL        ACCESS:   58028059 HIT:   40361763 MISS:   17666296
cpu0_L1D LOAD         ACCESS:   17527946 HIT:    9884079 MISS:    7643867
cpu0_L1D RFO          ACCESS:          0 HIT:          0 MISS:          0
cpu0_L1D PREFETCH     ACCESS:   33680602 HIT:   23982047 MISS:    9698555
cpu0_L1D WRITE        ACCESS:    6733013 HIT:    6449124 MISS:     283889
cpu0_L1D TRANSLATION  ACCESS:      86498 HIT:      46513 MISS:      39985
cpu0_L1D PREFETCH REQUESTED:  150611553 ISSUED:   33680611 USEFUL:    1770624 USELESS:     229234
cpu0_L1D AVERAGE MISS LATENCY: 59.82 cycles
cpu0_L1I TOTAL        ACCESS:      19319 HIT:      15761 MISS:       3558
cpu0_L1I LOAD         ACCESS:       8881 HIT:       7349 MISS:       1532
cpu0_L1I RFO          ACCESS:          0 HIT:          0 MISS:          0
cpu0_L1I PREFETCH     ACCESS:      10438 HIT:       8412 MISS:       2026
cpu0_L1I WRITE        ACCESS:          0 HIT:          0 MISS:          0
cpu0_L1I TRANSLATION  ACCESS:          0 HIT:          0 MISS:          0
cpu0_L1I PREFETCH REQUESTED:      12222 ISSUED:      10438 USEFUL:       1691 USELESS:         29
cpu0_L1I AVERAGE MISS LATENCY: 231.8 cycles
cpu0_L2C TOTAL        ACCESS:   22782755 HIT:    6479595 MISS:   16303160
cpu0_L2C LOAD         ACCESS:    3024459 HIT:     895808 MISS:    2128651
cpu0_L2C RFO          ACCESS:      53100 HIT:      21111 MISS:      31989
cpu0_L2C PREFETCH     ACCESS:   17864282 HIT:    3746579 MISS:   14117703
cpu0_L2C WRITE        ACCESS:    1801275 HIT:    1801275 MISS:          0
cpu0_L2C TRANSLATION  ACCESS:      39639 HIT:      14822 MISS:      24817
cpu0_L2C PREFETCH REQUESTED:   10859201 ISSUED:   10230756 USEFUL:    1093410 USELESS:    1413709
cpu0_L2C AVERAGE MISS LATENCY: 111.8 cycles
cpu0_STLB TOTAL        ACCESS:     369570 HIT:     284662 MISS:      84908
cpu0_STLB LOAD         ACCESS:     369570 HIT:     284662 MISS:      84908
cpu0_STLB RFO          ACCESS:          0 HIT:          0 MISS:          0
cpu0_STLB PREFETCH     ACCESS:          0 HIT:          0 MISS:          0
cpu0_STLB WRITE        ACCESS:          0 HIT:          0 MISS:          0
cpu0_STLB TRANSLATION  ACCESS:          0 HIT:          0 MISS:          0
cpu0_STLB PREFETCH REQUESTED:          0 ISSUED:          0 USEFUL:          0 USELESS:          0
cpu0_STLB AVERAGE MISS LATENCY: 209.8 cycles

DRAM Statistics

Channel 0 RQ ROW_BUFFER_HIT:    1123437
  ROW_BUFFER_MISS:    1176845
 AVG DBUS CONGESTED CYCLE: 3.949
WQ ROW_BUFFER_HIT: Channel 0 
  ROW_BUFFER_MISS:      11845
  FULL:     430358

Channel 1 RQ ROW_BUFFER_HIT:    1122744
  ROW_BUFFER_MISS:    1167613
 AVG DBUS CONGESTED CYCLE: 3.945
WQ ROW_BUFFER_HIT: Channel 1 
  ROW_BUFFER_MISS:      12088
  FULL:     431163
BERTI TO_L1: 62327504 TO_L2: 118767977 TO_L2_BC_MSHR: 54342345
BERTI AVG_LAT: 219.472 NUM_TRACK_LATENCY: 6569934 NUM_CANT_TRACK_LATENCY: 180
BERTI CROSS_PAGE 23657461 NO_CROSS_PAGE: 157438020
BERTI FOUND_BERTI: 52236998 NO_FOUND_BERTI: 1148473
BERTI AVERAGE_ISSUED: 3.60211
CPU 0 L1I Entangling prefetcher final stats
IP accesses: f9dc 3e7700 291 / 10143
IP misses: f9dc 3e7700 291 / 2794
IP hits: 0 0 0 / 0
IP late: f6 3d80 7 / 733
IP wrong: d8a 36280 4 / 29
miss rate: 0.275461
coverage: 0
coverage_late: 0.262348
accuracy: 0
accuracy_late: 0.961943
discarded: 0
evicts entangled j table: 0
evicts entangled k table: 37
max bb size: 19
formats: 5 0 33 27 18 17 0 
hist_lookups: 12 14 13 16 23 26 24 12 13 21 20 12 9 2 2 0 9 982 
hist_lookups_evict: 0.743802 %
hist_lookups_shortlat: 81.1571 %
bb_found_hist: 0 1382 424 196 74 126 54 4 6 43 24 7 8 7 38 5 0 0 0 7 0 0 0 0 0 0 0 0 0 0 0 0 0 0 0 0 0 0 0 0 0 0 0 0 0 0 0 0 0 0 0 0 0 0 0 0 0 0 0 0 0 0 0 0 
bb_found_summary: 5775 2405 2.40125
entangled_found_hist: 0 631 283 339 136 29 0 0 
entangled_found_summary: 2903 1418 2.04725
bb_ent_found_hist: 0 908 492 270 125 13 65 8 12 26 22 7 7 0 46 0 0 0 0 14 0 0 0 0 0 0 0 0 0 0 0 0 0 0 0 0 0 0 0 0 0 0 0 0 0 0 0 0 0 0 0 0 0 0 0 0 0 0 0 0 0 0 0 0 
bb_ent_found_summary: 5334 2015 2.64715
