WARNING: physical memory size is smaller than virtual memory size.

*** ChampSim Multicore Out-of-Order Simulator ***
Warmup Instructions: 30000000
Simulation Instructions: 100000000
Number of CPUs: 1
Page size: 4096

BTB:
Basic BTB sets: 1024 ways: 8
Indirect:
history lengths: 0 0 10 16 27 44 60 96 109 219 449 487 714 1313 2146 3881 
ITTAGE tables: 64768 bytes;Region table: 240 bytes;IUM: 384 bytes;Total Storage= 65392 bytes;
RAS:
RAS size: 64
[LLC] INSTR Demand IPV: 1 2 2 1 4 Prefetch IPV: 1 2 1 1 4
[LLC] DATA  Demand IPV: 1 1 1 2 4 Prefetch IPV: 1 1 2 2 4
Berti Prefetcher
CPU 0 Entangling prefetcher
Off-chip DRAM Size: 8 GiB Channels: 2 Width: 64-bit Data Race: 6400 MT/s
[DUEL] Epoch ended. INSTR misses = 12, DATA misses = 19. Winner = INSTR
[DUEL] Epoch ended. INSTR misses = 0, DATA misses = 0. Winner = INSTR
[DUEL] Epoch ended. INSTR misses = 0, DATA misses = 0. Winner = INSTR
[DUEL] Epoch ended. INSTR misses = 0, DATA misses = 0. Winner = INSTR
[DUEL] Epoch ended. INSTR misses = 0, DATA misses = 0. Winner = INSTR
[DUEL] Epoch ended. INSTR misses = 0, DATA misses = 0. Winner = INSTR
[DUEL] Epoch ended. INSTR misses = 0, DATA misses = 0. Winner = INSTR
[DUEL] Epoch ended. INSTR misses = 0, DATA misses = 0. Winner = INSTR
[DUEL] Epoch ended. INSTR misses = 0, DATA misses = 0. Winner = INSTR
[DUEL] Epoch ended. INSTR misses = 0, DATA misses = 0. Winner = INSTR
[DUEL] Epoch ended. INSTR misses = 0, DATA misses = 0. Winner = INSTR
[DUEL] Epoch ended. INSTR misses = 0, DATA misses = 0. Winner = INSTR
[DUEL] Epoch ended. INSTR misses = 0, DATA misses = 0. Winner = INSTR
[DUEL] Epoch ended. INSTR misses = 0, DATA misses = 0. Winner = INSTR
[DUEL] Epoch ended. INSTR misses = 0, DATA misses = 0. Winner = INSTR
[DUEL] Epoch ended. INSTR misses = 0, DATA misses = 0. Winner = INSTR
[DUEL] Epoch ended. INSTR misses = 0, DATA misses = 0. Winner = INSTR
[DUEL] Epoch ended. INSTR misses = 0, DATA misses = 0. Winner = INSTR
[DUEL] Epoch ended. INSTR misses = 0, DATA misses = 0. Winner = INSTR
[DUEL] Epoch ended. INSTR misses = 0, DATA misses = 0. Winner = INSTR
[DUEL] Epoch ended. INSTR misses = 0, DATA misses = 0. Winner = INSTR
[DUEL] Epoch ended. INSTR misses = 0, DATA misses = 0. Winner = INSTR
[DUEL] Epoch ended. INSTR misses = 3, DATA misses = 0. Winner = DATA
[DUEL] Epoch ended. INSTR misses = 0, DATA misses = 0. Winner = INSTR
[DUEL] Epoch ended. INSTR misses = 0, DATA misses = 0. Winner = INSTR
[DUEL] Epoch ended. INSTR misses = 0, DATA misses = 0. Winner = INSTR
[DUEL] Epoch ended. INSTR misses = 0, DATA misses = 0. Winner = INSTR
[DUEL] Epoch ended. INSTR misses = 0, DATA misses = 0. Winner = INSTR
[DUEL] Epoch ended. INSTR misses = 0, DATA misses = 0. Winner = INSTR
[DUEL] Epoch ended. INSTR misses = 0, DATA misses = 0. Winner = INSTR
[DUEL] Epoch ended. INSTR misses = 0, DATA misses = 0. Winner = INSTR
[DUEL] Epoch ended. INSTR misses = 0, DATA misses = 0. Winner = INSTR
[DUEL] Epoch ended. INSTR misses = 0, DATA misses = 0. Winner = INSTR
[DUEL] Epoch ended. INSTR misses = 0, DATA misses = 0. Winner = INSTR
[DUEL] Epoch ended. INSTR misses = 0, DATA misses = 0. Winner = INSTR
Heartbeat CPU 0 instructions: 10000001 cycles: 1668855 heartbeat IPC: 5.992 cumulative IPC: 5.992 (Simulation time: 00 hr 00 min 23 sec)
[DUEL] Epoch ended. INSTR misses = 0, DATA misses = 0. Winner = INSTR
[DUEL] Epoch ended. INSTR misses = 0, DATA misses = 0. Winner = INSTR
[DUEL] Epoch ended. INSTR misses = 0, DATA misses = 0. Winner = INSTR
[DUEL] Epoch ended. INSTR misses = 0, DATA misses = 0. Winner = INSTR
[DUEL] Epoch ended. INSTR misses = 0, DATA misses = 0. Winner = INSTR
[DUEL] Epoch ended. INSTR misses = 0, DATA misses = 0. Winner = INSTR
[DUEL] Epoch ended. INSTR misses = 0, DATA misses = 0. Winner = INSTR
[DUEL] Epoch ended. INSTR misses = 0, DATA misses = 0. Winner = INSTR
[DUEL] Epoch ended. INSTR misses = 0, DATA misses = 0. Winner = INSTR
[DUEL] Epoch ended. INSTR misses = 0, DATA misses = 0. Winner = INSTR
[DUEL] Epoch ended. INSTR misses = 0, DATA misses = 0. Winner = INSTR
[DUEL] Epoch ended. INSTR misses = 0, DATA misses = 0. Winner = INSTR
[DUEL] Epoch ended. INSTR misses = 0, DATA misses = 0. Winner = INSTR
[DUEL] Epoch ended. INSTR misses = 0, DATA misses = 0. Winner = INSTR
[DUEL] Epoch ended. INSTR misses = 0, DATA misses = 0. Winner = INSTR
[DUEL] Epoch ended. INSTR misses = 0, DATA misses = 0. Winner = INSTR
[DUEL] Epoch ended. INSTR misses = 0, DATA misses = 0. Winner = INSTR
[DUEL] Epoch ended. INSTR misses = 0, DATA misses = 0. Winner = INSTR
[DUEL] Epoch ended. INSTR misses = 0, DATA misses = 0. Winner = INSTR
[DUEL] Epoch ended. INSTR misses = 0, DATA misses = 0. Winner = INSTR
[DUEL] Epoch ended. INSTR misses = 0, DATA misses = 0. Winner = INSTR
[DUEL] Epoch ended. INSTR misses = 0, DATA misses = 0. Winner = INSTR
[DUEL] Epoch ended. INSTR misses = 0, DATA misses = 0. Winner = INSTR
[DUEL] Epoch ended. INSTR misses = 0, DATA misses = 0. Winner = INSTR
[DUEL] Epoch ended. INSTR misses = 0, DATA misses = 0. Winner = INSTR
[DUEL] Epoch ended. INSTR misses = 0, DATA misses = 0. Winner = INSTR
[DUEL] Epoch ended. INSTR misses = 0, DATA misses = 0. Winner = INSTR
[DUEL] Epoch ended. INSTR misses = 0, DATA misses = 0. Winner = INSTR
[DUEL] Epoch ended. INSTR misses = 0, DATA misses = 0. Winner = INSTR
[DUEL] Epoch ended. INSTR misses = 0, DATA misses = 0. Winner = INSTR
[DUEL] Epoch ended. INSTR misses = 0, DATA misses = 0. Winner = INSTR
[DUEL] Epoch ended. INSTR misses = 0, DATA misses = 0. Winner = INSTR
[DUEL] Epoch ended. INSTR misses = 0, DATA misses = 0. Winner = INSTR
Heartbeat CPU 0 instructions: 20000011 cycles: 3336488 heartbeat IPC: 5.997 cumulative IPC: 5.994 (Simulation time: 00 hr 00 min 47 sec)
[DUEL] Epoch ended. INSTR misses = 0, DATA misses = 0. Winner = INSTR
[DUEL] Epoch ended. INSTR misses = 0, DATA misses = 0. Winner = INSTR
[DUEL] Epoch ended. INSTR misses = 0, DATA misses = 0. Winner = INSTR
[DUEL] Epoch ended. INSTR misses = 0, DATA misses = 0. Winner = INSTR
[DUEL] Epoch ended. INSTR misses = 0, DATA misses = 0. Winner = INSTR
[DUEL] Epoch ended. INSTR misses = 0, DATA misses = 0. Winner = INSTR
[DUEL] Epoch ended. INSTR misses = 0, DATA misses = 0. Winner = INSTR
[DUEL] Epoch ended. INSTR misses = 0, DATA misses = 0. Winner = INSTR
[DUEL] Epoch ended. INSTR misses = 0, DATA misses = 0. Winner = INSTR
[DUEL] Epoch ended. INSTR misses = 0, DATA misses = 0. Winner = INSTR
[DUEL] Epoch ended. INSTR misses = 0, DATA misses = 0. Winner = INSTR
[DUEL] Epoch ended. INSTR misses = 0, DATA misses = 0. Winner = INSTR
[DUEL] Epoch ended. INSTR misses = 0, DATA misses = 0. Winner = INSTR
[DUEL] Epoch ended. INSTR misses = 0, DATA misses = 0. Winner = INSTR
[DUEL] Epoch ended. INSTR misses = 0, DATA misses = 0. Winner = INSTR
[DUEL] Epoch ended. INSTR misses = 0, DATA misses = 0. Winner = INSTR
[DUEL] Epoch ended. INSTR misses = 0, DATA misses = 0. Winner = INSTR
Heartbeat CPU 0 instructions: 30000000 cycles: 5003405 heartbeat IPC: 5.999 cumulative IPC: 5.996 (Simulation time: 00 hr 01 min 10 sec)
Warmup finished CPU 0 instructions: 30000000 cycles: 5003406 cumulative IPC: 5.996 (Simulation time: 00 hr 01 min 10 sec)
Warmup complete CPU 0 instructions: 30000000 cycles: 5003406 cumulative IPC: 5.996 (Simulation time: 00 hr 01 min 10 sec)
*** Reached end of trace: (0, "../traces/public_traces/compute_fp/compute_fp_4.champsimtrace.xz")
[DUEL] Epoch ended. INSTR misses = 0, DATA misses = 0. Winner = INSTR
[DUEL] Epoch ended. INSTR misses = 0, DATA misses = 0. Winner = INSTR
[DUEL] Epoch ended. INSTR misses = 0, DATA misses = 0. Winner = INSTR
Heartbeat CPU 0 instructions: 40000008 cycles: 6781580 heartbeat IPC: 5.624 cumulative IPC: 5.624 (Simulation time: 00 hr 01 min 38 sec)
[DUEL] Epoch ended. INSTR misses = 0, DATA misses = 0. Winner = INSTR
Heartbeat CPU 0 instructions: 50000007 cycles: 8514876 heartbeat IPC: 5.769 cumulative IPC: 5.696 (Simulation time: 00 hr 02 min 05 sec)
[DUEL] Epoch ended. INSTR misses = 0, DATA misses = 0. Winner = INSTR
[DUEL] Epoch ended. INSTR misses = 0, DATA misses = 0. Winner = INSTR
Heartbeat CPU 0 instructions: 60000004 cycles: 10204157 heartbeat IPC: 5.92 cumulative IPC: 5.768 (Simulation time: 00 hr 02 min 33 sec)
*** Reached end of trace: (0, "../traces/public_traces/compute_fp/compute_fp_4.champsimtrace.xz")
Heartbeat CPU 0 instructions: 70000001 cycles: 11933975 heartbeat IPC: 5.781 cumulative IPC: 5.772 (Simulation time: 00 hr 03 min 00 sec)
[DUEL] Epoch ended. INSTR misses = 0, DATA misses = 0. Winner = INSTR
Heartbeat CPU 0 instructions: 80000005 cycles: 13644821 heartbeat IPC: 5.845 cumulative IPC: 5.786 (Simulation time: 00 hr 03 min 28 sec)
Heartbeat CPU 0 instructions: 90000000 cycles: 15332227 heartbeat IPC: 5.926 cumulative IPC: 5.809 (Simulation time: 00 hr 03 min 55 sec)
*** Reached end of trace: (0, "../traces/public_traces/compute_fp/compute_fp_4.champsimtrace.xz")
[DUEL] Epoch ended. INSTR misses = 0, DATA misses = 0. Winner = INSTR
Heartbeat CPU 0 instructions: 100000000 cycles: 17046081 heartbeat IPC: 5.835 cumulative IPC: 5.813 (Simulation time: 00 hr 04 min 23 sec)
Heartbeat CPU 0 instructions: 110000000 cycles: 18748805 heartbeat IPC: 5.873 cumulative IPC: 5.82 (Simulation time: 00 hr 04 min 51 sec)
Heartbeat CPU 0 instructions: 120000001 cycles: 20435182 heartbeat IPC: 5.93 cumulative IPC: 5.832 (Simulation time: 00 hr 05 min 18 sec)
*** Reached end of trace: (0, "../traces/public_traces/compute_fp/compute_fp_4.champsimtrace.xz")
[DUEL] Epoch ended. INSTR misses = 0, DATA misses = 0. Winner = INSTR
[DUEL] Epoch ended. INSTR misses = 0, DATA misses = 0. Winner = INSTR
Heartbeat CPU 0 instructions: 130000006 cycles: 22138802 heartbeat IPC: 5.87 cumulative IPC: 5.836 (Simulation time: 00 hr 05 min 46 sec)
Simulation finished CPU 0 instructions: 100000006 cycles: 17135397 cumulative IPC: 5.836 (Simulation time: 00 hr 05 min 46 sec)
Simulation complete CPU 0 instructions: 100000006 cycles: 17135397 cumulative IPC: 5.836 (Simulation time: 00 hr 05 min 46 sec)

ChampSim completed all CPUs

=== Simulation ===
CPU 0 runs ../traces/public_traces/compute_fp/compute_fp_4.champsimtrace.xz
Region of Interest Statistics

CPU 0 cumulative IPC: 5.836 instructions: 100000006 cycles: 17135397
CPU 0 Branch Prediction Accuracy: 99.86% MPKI: 0.1895 Average ROB Occupancy at Mispredict: 81.96
Branch type MPKI
BRANCH_DIRECT_JUMP: 0
BRANCH_INDIRECT: 0.0469
BRANCH_CONDITIONAL: 0.128
BRANCH_DIRECT_CALL: 0
BRANCH_INDIRECT_CALL: 0.0143
BRANCH_RETURN: 0.00052

LLC TOTAL        ACCESS:         89 HIT:          0 MISS:         89
LLC LOAD         ACCESS:          0 HIT:          0 MISS:          0
LLC RFO          ACCESS:          0 HIT:          0 MISS:          0
LLC PREFETCH     ACCESS:         84 HIT:          0 MISS:         84
LLC WRITE        ACCESS:          0 HIT:          0 MISS:          0
LLC TRANSLATION  ACCESS:          5 HIT:          0 MISS:          5
LLC PREFETCH REQUESTED:          0 ISSUED:          0 USEFUL:          0 USELESS:          0
LLC AVERAGE MISS LATENCY: 141.9 cycles
cpu0_DTLB TOTAL        ACCESS:   16016736 HIT:   15861821 MISS:     154915
cpu0_DTLB LOAD         ACCESS:   16016736 HIT:   15861821 MISS:     154915
cpu0_DTLB RFO          ACCESS:          0 HIT:          0 MISS:          0
cpu0_DTLB PREFETCH     ACCESS:          0 HIT:          0 MISS:          0
cpu0_DTLB WRITE        ACCESS:          0 HIT:          0 MISS:          0
cpu0_DTLB TRANSLATION  ACCESS:          0 HIT:          0 MISS:          0
cpu0_DTLB PREFETCH REQUESTED:          0 ISSUED:          0 USEFUL:          0 USELESS:          0
cpu0_DTLB AVERAGE MISS LATENCY: 2.193 cycles
cpu0_ITLB TOTAL        ACCESS:    4531876 HIT:    4531872 MISS:          4
cpu0_ITLB LOAD         ACCESS:    4531876 HIT:    4531872 MISS:          4
cpu0_ITLB RFO          ACCESS:          0 HIT:          0 MISS:          0
cpu0_ITLB PREFETCH     ACCESS:          0 HIT:          0 MISS:          0
cpu0_ITLB WRITE        ACCESS:          0 HIT:          0 MISS:          0
cpu0_ITLB TRANSLATION  ACCESS:          0 HIT:          0 MISS:          0
cpu0_ITLB PREFETCH REQUESTED:          0 ISSUED:          0 USEFUL:          0 USELESS:          0
cpu0_ITLB AVERAGE MISS LATENCY: 402.5 cycles
cpu0_L1D TOTAL        ACCESS:   27531094 HIT:   26337191 MISS:    1193903
cpu0_L1D LOAD         ACCESS:   17164266 HIT:   16240744 MISS:     923522
cpu0_L1D RFO          ACCESS:          0 HIT:          0 MISS:          0
cpu0_L1D PREFETCH     ACCESS:        375 HIT:        132 MISS:        243
cpu0_L1D WRITE        ACCESS:   10366446 HIT:   10096315 MISS:     270131
cpu0_L1D TRANSLATION  ACCESS:          7 HIT:          0 MISS:          7
cpu0_L1D PREFETCH REQUESTED:        375 ISSUED:        375 USEFUL:          0 USELESS:          0
cpu0_L1D AVERAGE MISS LATENCY: 3.839 cycles
cpu0_L1I TOTAL        ACCESS:    6998476 HIT:    6503471 MISS:     495005
cpu0_L1I LOAD         ACCESS:    2556863 HIT:    2281566 MISS:     275297
cpu0_L1I RFO          ACCESS:          0 HIT:          0 MISS:          0
cpu0_L1I PREFETCH     ACCESS:    4441613 HIT:    4221905 MISS:     219708
cpu0_L1I WRITE        ACCESS:          0 HIT:          0 MISS:          0
cpu0_L1I TRANSLATION  ACCESS:          0 HIT:          0 MISS:          0
cpu0_L1I PREFETCH REQUESTED:   15314829 ISSUED:    4441626 USEFUL:     154457 USELESS:      53991
cpu0_L1I AVERAGE MISS LATENCY: 8.433 cycles
cpu0_L2C TOTAL        ACCESS:    1974529 HIT:    1974429 MISS:        100
cpu0_L2C LOAD         ACCESS:     667094 HIT:     667094 MISS:          0
cpu0_L2C RFO          ACCESS:      94764 HIT:      94764 MISS:          0
cpu0_L2C PREFETCH     ACCESS:    1067176 HIT:    1067081 MISS:         95
cpu0_L2C WRITE        ACCESS:     145488 HIT:     145488 MISS:          0
cpu0_L2C TRANSLATION  ACCESS:          7 HIT:          2 MISS:          5
cpu0_L2C PREFETCH REQUESTED:     875791 ISSUED:     858481 USEFUL:         11 USELESS:          0
cpu0_L2C AVERAGE MISS LATENCY: 145 cycles
cpu0_STLB TOTAL        ACCESS:      72766 HIT:      72761 MISS:          5
cpu0_STLB LOAD         ACCESS:      72766 HIT:      72761 MISS:          5
cpu0_STLB RFO          ACCESS:          0 HIT:          0 MISS:          0
cpu0_STLB PREFETCH     ACCESS:          0 HIT:          0 MISS:          0
cpu0_STLB WRITE        ACCESS:          0 HIT:          0 MISS:          0
cpu0_STLB TRANSLATION  ACCESS:          0 HIT:          0 MISS:          0
cpu0_STLB PREFETCH REQUESTED:          0 ISSUED:          0 USEFUL:          0 USELESS:          0
cpu0_STLB AVERAGE MISS LATENCY: 379.2 cycles

DRAM Statistics

Channel 0 RQ ROW_BUFFER_HIT:         10
  ROW_BUFFER_MISS:         29
 AVG DBUS CONGESTED CYCLE: 3.433
WQ ROW_BUFFER_HIT: Channel 0 
  ROW_BUFFER_MISS:          0
  FULL:          0

Channel 1 RQ ROW_BUFFER_HIT:         12
  ROW_BUFFER_MISS:         38
 AVG DBUS CONGESTED CYCLE: 3.378
WQ ROW_BUFFER_HIT: Channel 1 
  ROW_BUFFER_MISS:          0
  FULL:          0
BERTI TO_L1: 21 TO_L2: 1816 TO_L2_BC_MSHR: 0
BERTI AVG_LAT: 9.06629 NUM_TRACK_LATENCY: 636217 NUM_CANT_TRACK_LATENCY: 0
BERTI CROSS_PAGE 159 NO_CROSS_PAGE: 1678
BERTI FOUND_BERTI: 2304561 NO_FOUND_BERTI: 20828071
BERTI AVERAGE_ISSUED: 1.43656
CPU 0 L1I Entangling prefetcher final stats
IP accesses: 3318 cc600 51865 / 2558534
IP misses: 1124 44900 3996 / 276968
IP hits: 0 0 0 / 0
IP late: 1146 45180 1873 / 99539
IP wrong: 3347 cd1c0 1714 / 53270
miss rate: 0.108253
coverage: 0
coverage_late: 0.359389
accuracy: 0
accuracy_late: 0.651395
discarded: 0
evicts entangled j table: 0
evicts entangled k table: 6981
max bb size: 26
formats: 58 0 4452 1172 1637 1760 0 
hist_lookups: 5969 9262 8490 10286 11400 5954 3256 2242 1895 1242 633 538 467 149 22 0 0 2293 
hist_lookups_evict: 0 %
hist_lookups_shortlat: 3.57734 %
bb_found_hist: 0 377751 239142 217966 84531 75280 9899 51705 20795 20323 26857 44616 5885 5807 0 1701 5958 0 1519 1436 0 0 1434 0 0 993 1535 0 0 0 0 0 0 0 0 0 0 0 0 0 0 0 0 0 0 0 0 0 0 0 0 0 0 0 0 0 0 0 0 0 0 0 0 0 
bb_found_summary: 4172262 1195133 3.49105
entangled_found_hist: 0 239052 227514 467054 75438 9816 265 0 
entangled_found_summary: 2447664 1019139 2.4017
bb_ent_found_hist: 0 671517 258240 360875 102268 143950 41358 103173 91480 11323 1148 121646 0 6377 0 11852 82650 0 2082 1535 0 0 0 0 0 9230 20552 0 0 0 0 0 0 0 0 0 0 0 0 0 0 0 0 0 0 0 0 0 0 0 0 0 0 0 0 0 0 0 0 0 0 0 0 0 
bb_ent_found_summary: 8967960 2041256 4.39336
