WARNING: physical memory size is smaller than virtual memory size.

*** ChampSim Multicore Out-of-Order Simulator ***
Warmup Instructions: 25000000
Simulation Instructions: 100000000
Number of CPUs: 1
Page size: 4096

Off-chip DRAM Size: 4 GiB Channels: 1 Width: 64-bit Data Race: 3200 MT/s
Heartbeat CPU 0 instructions: 10000001 cycles: 2507067 heartbeat IPC: 3.989 cumulative IPC: 3.989 (Simulation time: 00 hr 00 min 18 sec)
Heartbeat CPU 0 instructions: 20000002 cycles: 5010943 heartbeat IPC: 3.994 cumulative IPC: 3.991 (Simulation time: 00 hr 00 min 37 sec)
Warmup finished CPU 0 instructions: 25000003 cycles: 6262396 cumulative IPC: 3.992 (Simulation time: 00 hr 00 min 46 sec)
Warmup complete CPU 0 instructions: 25000003 cycles: 6262396 cumulative IPC: 3.992 (Simulation time: 00 hr 00 min 46 sec)
Heartbeat CPU 0 instructions: 30000004 cycles: 11846375 heartbeat IPC: 1.463 cumulative IPC: 0.8954 (Simulation time: 00 hr 01 min 10 sec)
Heartbeat CPU 0 instructions: 40000001 cycles: 24216107 heartbeat IPC: 0.8084 cumulative IPC: 0.8355 (Simulation time: 00 hr 02 min 01 sec)
Heartbeat CPU 0 instructions: 50000001 cycles: 30195636 heartbeat IPC: 1.672 cumulative IPC: 1.045 (Simulation time: 00 hr 02 min 32 sec)
Heartbeat CPU 0 instructions: 60000001 cycles: 35233165 heartbeat IPC: 1.985 cumulative IPC: 1.208 (Simulation time: 00 hr 03 min 00 sec)
Heartbeat CPU 0 instructions: 70000000 cycles: 40335892 heartbeat IPC: 1.96 cumulative IPC: 1.321 (Simulation time: 00 hr 03 min 29 sec)
Heartbeat CPU 0 instructions: 80000000 cycles: 51909099 heartbeat IPC: 0.8641 cumulative IPC: 1.205 (Simulation time: 00 hr 04 min 17 sec)
Heartbeat CPU 0 instructions: 90000001 cycles: 62642622 heartbeat IPC: 0.9317 cumulative IPC: 1.153 (Simulation time: 00 hr 05 min 03 sec)
Heartbeat CPU 0 instructions: 100000000 cycles: 67843828 heartbeat IPC: 1.923 cumulative IPC: 1.218 (Simulation time: 00 hr 05 min 32 sec)
*** Reached end of trace: (0, "../traces/secret_traces/compute_int/compute_int_752.champsimtrace.xz")
Heartbeat CPU 0 instructions: 110000004 cycles: 72816867 heartbeat IPC: 2.011 cumulative IPC: 1.277 (Simulation time: 00 hr 05 min 59 sec)
Heartbeat CPU 0 instructions: 120000002 cycles: 79064469 heartbeat IPC: 1.601 cumulative IPC: 1.305 (Simulation time: 00 hr 06 min 31 sec)
Simulation finished CPU 0 instructions: 100000001 cycles: 76148917 cumulative IPC: 1.313 (Simulation time: 00 hr 06 min 47 sec)
Simulation complete CPU 0 instructions: 100000001 cycles: 76148917 cumulative IPC: 1.313 (Simulation time: 00 hr 06 min 47 sec)

ChampSim completed all CPUs

=== Simulation ===
CPU 0 runs ../traces/secret_traces/compute_int/compute_int_752.champsimtrace.xz
Region of Interest Statistics

CPU 0 cumulative IPC: 1.313 instructions: 100000001 cycles: 76148917
CPU 0 Branch Prediction Accuracy: 90.47% MPKI: 18.58 Average ROB Occupancy at Mispredict: 16.87
Branch type MPKI
BRANCH_DIRECT_JUMP: 0.0202
BRANCH_INDIRECT: 7.82
BRANCH_CONDITIONAL: 9.69
BRANCH_DIRECT_CALL: 0.0347
BRANCH_INDIRECT_CALL: 0.991
BRANCH_RETURN: 0.0196

LLC TOTAL        ACCESS:     260208 HIT:      83434 MISS:     176774
LLC LOAD         ACCESS:     197636 HIT:      39099 MISS:     158537
LLC RFO          ACCESS:      13473 HIT:       3446 MISS:      10027
LLC PREFETCH     ACCESS:          0 HIT:          0 MISS:          0
LLC WRITE        ACCESS:      39751 HIT:      39259 MISS:        492
LLC TRANSLATION  ACCESS:       9348 HIT:       1630 MISS:       7718
LLC PREFETCH REQUESTED:          0 ISSUED:          0 USEFUL:          0 USELESS:          0
LLC AVERAGE MISS LATENCY: 168.4 cycles
cpu0_DTLB TOTAL        ACCESS:   23888523 HIT:   23461425 MISS:     427098
cpu0_DTLB LOAD         ACCESS:   23888523 HIT:   23461425 MISS:     427098
cpu0_DTLB RFO          ACCESS:          0 HIT:          0 MISS:          0
cpu0_DTLB PREFETCH     ACCESS:          0 HIT:          0 MISS:          0
cpu0_DTLB WRITE        ACCESS:          0 HIT:          0 MISS:          0
cpu0_DTLB TRANSLATION  ACCESS:          0 HIT:          0 MISS:          0
cpu0_DTLB PREFETCH REQUESTED:          0 ISSUED:          0 USEFUL:          0 USELESS:          0
cpu0_DTLB AVERAGE MISS LATENCY: 10.9 cycles
cpu0_ITLB TOTAL        ACCESS:    2629428 HIT:    2564138 MISS:      65290
cpu0_ITLB LOAD         ACCESS:    2629428 HIT:    2564138 MISS:      65290
cpu0_ITLB RFO          ACCESS:          0 HIT:          0 MISS:          0
cpu0_ITLB PREFETCH     ACCESS:          0 HIT:          0 MISS:          0
cpu0_ITLB WRITE        ACCESS:          0 HIT:          0 MISS:          0
cpu0_ITLB TRANSLATION  ACCESS:          0 HIT:          0 MISS:          0
cpu0_ITLB PREFETCH REQUESTED:          0 ISSUED:          0 USEFUL:          0 USELESS:          0
cpu0_ITLB AVERAGE MISS LATENCY: 5.346 cycles
cpu0_L1D TOTAL        ACCESS:   29831791 HIT:   29213304 MISS:     618487
cpu0_L1D LOAD         ACCESS:   18287970 HIT:   17774484 MISS:     513486
cpu0_L1D RFO          ACCESS:          0 HIT:          0 MISS:          0
cpu0_L1D PREFETCH     ACCESS:          0 HIT:          0 MISS:          0
cpu0_L1D WRITE        ACCESS:   11529762 HIT:   11437322 MISS:      92440
cpu0_L1D TRANSLATION  ACCESS:      14059 HIT:       1498 MISS:      12561
cpu0_L1D PREFETCH REQUESTED:          0 ISSUED:          0 USEFUL:          0 USELESS:          0
cpu0_L1D AVERAGE MISS LATENCY: 55.68 cycles
cpu0_L1I TOTAL        ACCESS:    2943565 HIT:    2579787 MISS:     363778
cpu0_L1I LOAD         ACCESS:    2943565 HIT:    2579787 MISS:     363778
cpu0_L1I RFO          ACCESS:          0 HIT:          0 MISS:          0
cpu0_L1I PREFETCH     ACCESS:          0 HIT:          0 MISS:          0
cpu0_L1I WRITE        ACCESS:          0 HIT:          0 MISS:          0
cpu0_L1I TRANSLATION  ACCESS:          0 HIT:          0 MISS:          0
cpu0_L1I PREFETCH REQUESTED:          0 ISSUED:          0 USEFUL:          0 USELESS:          0
cpu0_L1I AVERAGE MISS LATENCY: 14.81 cycles
cpu0_L2C TOTAL        ACCESS:     763744 HIT:     542820 MISS:     220924
cpu0_L2C LOAD         ACCESS:     619999 HIT:     422363 MISS:     197636
cpu0_L2C RFO          ACCESS:      33788 HIT:      20315 MISS:      13473
cpu0_L2C PREFETCH     ACCESS:          0 HIT:          0 MISS:          0
cpu0_L2C WRITE        ACCESS:      97416 HIT:      96949 MISS:        467
cpu0_L2C TRANSLATION  ACCESS:      12541 HIT:       3193 MISS:       9348
cpu0_L2C PREFETCH REQUESTED:          0 ISSUED:          0 USEFUL:          0 USELESS:          0
cpu0_L2C AVERAGE MISS LATENCY: 155.5 cycles
cpu0_STLB TOTAL        ACCESS:     355484 HIT:     343301 MISS:      12183
cpu0_STLB LOAD         ACCESS:     355484 HIT:     343301 MISS:      12183
cpu0_STLB RFO          ACCESS:          0 HIT:          0 MISS:          0
cpu0_STLB PREFETCH     ACCESS:          0 HIT:          0 MISS:          0
cpu0_STLB WRITE        ACCESS:          0 HIT:          0 MISS:          0
cpu0_STLB TRANSLATION  ACCESS:          0 HIT:          0 MISS:          0
cpu0_STLB PREFETCH REQUESTED:          0 ISSUED:          0 USEFUL:          0 USELESS:          0
cpu0_STLB AVERAGE MISS LATENCY: 210.5 cycles

DRAM Statistics

Channel 0 RQ ROW_BUFFER_HIT:      38631
  ROW_BUFFER_MISS:     137648
 AVG DBUS CONGESTED CYCLE: 3.794
WQ ROW_BUFFER_HIT: Channel 0 
  ROW_BUFFER_MISS:      14715
  FULL:      15579
