WARNING: physical memory size is smaller than virtual memory size.

*** ChampSim Multicore Out-of-Order Simulator ***
Warmup Instructions: 25000000
Simulation Instructions: 100000000
Number of CPUs: 1
Page size: 4096

Off-chip DRAM Size: 4 GiB Channels: 1 Width: 64-bit Data Race: 3200 MT/s
Heartbeat CPU 0 instructions: 10000003 cycles: 2503288 heartbeat IPC: 3.995 cumulative IPC: 3.995 (Simulation time: 00 hr 00 min 19 sec)
Heartbeat CPU 0 instructions: 20000000 cycles: 5007988 heartbeat IPC: 3.992 cumulative IPC: 3.994 (Simulation time: 00 hr 00 min 38 sec)
Warmup finished CPU 0 instructions: 25000003 cycles: 6263233 cumulative IPC: 3.992 (Simulation time: 00 hr 00 min 49 sec)
Warmup complete CPU 0 instructions: 25000003 cycles: 6263233 cumulative IPC: 3.992 (Simulation time: 00 hr 00 min 49 sec)
Heartbeat CPU 0 instructions: 30000004 cycles: 10201450 heartbeat IPC: 1.925 cumulative IPC: 1.27 (Simulation time: 00 hr 01 min 08 sec)
Heartbeat CPU 0 instructions: 40000004 cycles: 20304243 heartbeat IPC: 0.9898 cumulative IPC: 1.068 (Simulation time: 00 hr 01 min 53 sec)
Heartbeat CPU 0 instructions: 50000001 cycles: 26017777 heartbeat IPC: 1.75 cumulative IPC: 1.266 (Simulation time: 00 hr 02 min 24 sec)
Heartbeat CPU 0 instructions: 60000001 cycles: 30303915 heartbeat IPC: 2.333 cumulative IPC: 1.456 (Simulation time: 00 hr 02 min 51 sec)
Heartbeat CPU 0 instructions: 70000003 cycles: 34268472 heartbeat IPC: 2.522 cumulative IPC: 1.607 (Simulation time: 00 hr 03 min 18 sec)
Heartbeat CPU 0 instructions: 80000000 cycles: 38481012 heartbeat IPC: 2.374 cumulative IPC: 1.707 (Simulation time: 00 hr 03 min 44 sec)
Heartbeat CPU 0 instructions: 90000000 cycles: 42622322 heartbeat IPC: 2.415 cumulative IPC: 1.788 (Simulation time: 00 hr 04 min 11 sec)
Heartbeat CPU 0 instructions: 100000001 cycles: 46795879 heartbeat IPC: 2.396 cumulative IPC: 1.85 (Simulation time: 00 hr 04 min 38 sec)
*** Reached end of trace: (0, "../traces/secret_traces/compute_int/compute_int_622.champsimtrace.xz")
Heartbeat CPU 0 instructions: 110000000 cycles: 50824994 heartbeat IPC: 2.482 cumulative IPC: 1.907 (Simulation time: 00 hr 05 min 04 sec)
Heartbeat CPU 0 instructions: 120000002 cycles: 56558306 heartbeat IPC: 1.744 cumulative IPC: 1.889 (Simulation time: 00 hr 05 min 36 sec)
Simulation finished CPU 0 instructions: 100000001 cycles: 55791335 cumulative IPC: 1.792 (Simulation time: 00 hr 06 min 00 sec)
Simulation complete CPU 0 instructions: 100000001 cycles: 55791335 cumulative IPC: 1.792 (Simulation time: 00 hr 06 min 00 sec)

ChampSim completed all CPUs

=== Simulation ===
CPU 0 runs ../traces/secret_traces/compute_int/compute_int_622.champsimtrace.xz
Region of Interest Statistics

CPU 0 cumulative IPC: 1.792 instructions: 100000001 cycles: 55791335
CPU 0 Branch Prediction Accuracy: 92.76% MPKI: 13.27 Average ROB Occupancy at Mispredict: 26.55
Branch type MPKI
BRANCH_DIRECT_JUMP: 0.00432
BRANCH_INDIRECT: 4.96
BRANCH_CONDITIONAL: 7.85
BRANCH_DIRECT_CALL: 0.00475
BRANCH_INDIRECT_CALL: 0.446
BRANCH_RETURN: 0.00199

LLC TOTAL        ACCESS:     110356 HIT:      36451 MISS:      73905
LLC LOAD         ACCESS:      81840 HIT:      16571 MISS:      65269
LLC RFO          ACCESS:       5283 HIT:       1737 MISS:       3546
LLC PREFETCH     ACCESS:          0 HIT:          0 MISS:          0
LLC WRITE        ACCESS:      17321 HIT:      17127 MISS:        194
LLC TRANSLATION  ACCESS:       5912 HIT:       1016 MISS:       4896
LLC PREFETCH REQUESTED:          0 ISSUED:          0 USEFUL:          0 USELESS:          0
LLC AVERAGE MISS LATENCY: 162.1 cycles
cpu0_DTLB TOTAL        ACCESS:   23978848 HIT:   23756236 MISS:     222612
cpu0_DTLB LOAD         ACCESS:   23978848 HIT:   23756236 MISS:     222612
cpu0_DTLB RFO          ACCESS:          0 HIT:          0 MISS:          0
cpu0_DTLB PREFETCH     ACCESS:          0 HIT:          0 MISS:          0
cpu0_DTLB WRITE        ACCESS:          0 HIT:          0 MISS:          0
cpu0_DTLB TRANSLATION  ACCESS:          0 HIT:          0 MISS:          0
cpu0_DTLB PREFETCH REQUESTED:          0 ISSUED:          0 USEFUL:          0 USELESS:          0
cpu0_DTLB AVERAGE MISS LATENCY: 12.41 cycles
cpu0_ITLB TOTAL        ACCESS:    1854100 HIT:    1809624 MISS:      44476
cpu0_ITLB LOAD         ACCESS:    1854100 HIT:    1809624 MISS:      44476
cpu0_ITLB RFO          ACCESS:          0 HIT:          0 MISS:          0
cpu0_ITLB PREFETCH     ACCESS:          0 HIT:          0 MISS:          0
cpu0_ITLB WRITE        ACCESS:          0 HIT:          0 MISS:          0
cpu0_ITLB TRANSLATION  ACCESS:          0 HIT:          0 MISS:          0
cpu0_ITLB PREFETCH REQUESTED:          0 ISSUED:          0 USEFUL:          0 USELESS:          0
cpu0_ITLB AVERAGE MISS LATENCY: 3.777 cycles
cpu0_L1D TOTAL        ACCESS:   31412019 HIT:   31063632 MISS:     348387
cpu0_L1D LOAD         ACCESS:   17878646 HIT:   17588088 MISS:     290558
cpu0_L1D RFO          ACCESS:          0 HIT:          0 MISS:          0
cpu0_L1D PREFETCH     ACCESS:          0 HIT:          0 MISS:          0
cpu0_L1D WRITE        ACCESS:   13524500 HIT:   13474813 MISS:      49687
cpu0_L1D TRANSLATION  ACCESS:       8873 HIT:        731 MISS:       8142
cpu0_L1D PREFETCH REQUESTED:          0 ISSUED:          0 USEFUL:          0 USELESS:          0
cpu0_L1D AVERAGE MISS LATENCY: 42.21 cycles
cpu0_L1I TOTAL        ACCESS:    2074883 HIT:    1774360 MISS:     300523
cpu0_L1I LOAD         ACCESS:    2074883 HIT:    1774360 MISS:     300523
cpu0_L1I RFO          ACCESS:          0 HIT:          0 MISS:          0
cpu0_L1I PREFETCH     ACCESS:          0 HIT:          0 MISS:          0
cpu0_L1I WRITE        ACCESS:          0 HIT:          0 MISS:          0
cpu0_L1I TRANSLATION  ACCESS:          0 HIT:          0 MISS:          0
cpu0_L1I PREFETCH REQUESTED:          0 ISSUED:          0 USEFUL:          0 USELESS:          0
cpu0_L1I AVERAGE MISS LATENCY: 10.01 cycles
cpu0_L2C TOTAL        ACCESS:     489365 HIT:     396118 MISS:      93247
cpu0_L2C LOAD         ACCESS:     410169 HIT:     328329 MISS:      81840
cpu0_L2C RFO          ACCESS:      18147 HIT:      12864 MISS:       5283
cpu0_L2C PREFETCH     ACCESS:          0 HIT:          0 MISS:          0
cpu0_L2C WRITE        ACCESS:      52919 HIT:      52707 MISS:        212
cpu0_L2C TRANSLATION  ACCESS:       8130 HIT:       2218 MISS:       5912
cpu0_L2C PREFETCH REQUESTED:          0 ISSUED:          0 USEFUL:          0 USELESS:          0
cpu0_L2C AVERAGE MISS LATENCY: 149.2 cycles
cpu0_STLB TOTAL        ACCESS:     183567 HIT:     175946 MISS:       7621
cpu0_STLB LOAD         ACCESS:     183567 HIT:     175946 MISS:       7621
cpu0_STLB RFO          ACCESS:          0 HIT:          0 MISS:          0
cpu0_STLB PREFETCH     ACCESS:          0 HIT:          0 MISS:          0
cpu0_STLB WRITE        ACCESS:          0 HIT:          0 MISS:          0
cpu0_STLB TRANSLATION  ACCESS:          0 HIT:          0 MISS:          0
cpu0_STLB PREFETCH REQUESTED:          0 ISSUED:          0 USEFUL:          0 USELESS:          0
cpu0_STLB AVERAGE MISS LATENCY: 226.3 cycles

DRAM Statistics

Channel 0 RQ ROW_BUFFER_HIT:      16994
  ROW_BUFFER_MISS:      56715
 AVG DBUS CONGESTED CYCLE: 3.766
WQ ROW_BUFFER_HIT: Channel 0 
  ROW_BUFFER_MISS:       6262
  FULL:       6281
