WARNING: physical memory size is smaller than virtual memory size.

*** ChampSim Multicore Out-of-Order Simulator ***
Warmup Instructions: 25000000
Simulation Instructions: 100000000
Number of CPUs: 1
Page size: 4096

Off-chip DRAM Size: 4 GiB Channels: 1 Width: 64-bit Data Race: 3200 MT/s
Heartbeat CPU 0 instructions: 10000000 cycles: 2534489 heartbeat IPC: 3.946 cumulative IPC: 3.946 (Simulation time: 00 hr 00 min 20 sec)
Heartbeat CPU 0 instructions: 20000001 cycles: 5075045 heartbeat IPC: 3.936 cumulative IPC: 3.941 (Simulation time: 00 hr 00 min 41 sec)
Warmup finished CPU 0 instructions: 25000002 cycles: 6354138 cumulative IPC: 3.934 (Simulation time: 00 hr 00 min 51 sec)
Warmup complete CPU 0 instructions: 25000002 cycles: 6354138 cumulative IPC: 3.934 (Simulation time: 00 hr 00 min 51 sec)
Heartbeat CPU 0 instructions: 30000003 cycles: 10361069 heartbeat IPC: 1.892 cumulative IPC: 1.248 (Simulation time: 00 hr 01 min 10 sec)
Heartbeat CPU 0 instructions: 40000000 cycles: 16165633 heartbeat IPC: 1.723 cumulative IPC: 1.529 (Simulation time: 00 hr 01 min 43 sec)
Heartbeat CPU 0 instructions: 50000003 cycles: 22135442 heartbeat IPC: 1.675 cumulative IPC: 1.584 (Simulation time: 00 hr 02 min 18 sec)
Heartbeat CPU 0 instructions: 60000003 cycles: 29962030 heartbeat IPC: 1.278 cumulative IPC: 1.483 (Simulation time: 00 hr 02 min 56 sec)
Heartbeat CPU 0 instructions: 70000004 cycles: 38384536 heartbeat IPC: 1.187 cumulative IPC: 1.405 (Simulation time: 00 hr 03 min 37 sec)
Heartbeat CPU 0 instructions: 80000002 cycles: 45867916 heartbeat IPC: 1.336 cumulative IPC: 1.392 (Simulation time: 00 hr 04 min 13 sec)
Heartbeat CPU 0 instructions: 90000004 cycles: 53042593 heartbeat IPC: 1.394 cumulative IPC: 1.392 (Simulation time: 00 hr 04 min 49 sec)
Heartbeat CPU 0 instructions: 100000003 cycles: 61834959 heartbeat IPC: 1.137 cumulative IPC: 1.352 (Simulation time: 00 hr 05 min 30 sec)
*** Reached end of trace: (0, "../traces/secret_traces/compute_int/compute_int_945.champsimtrace.xz")
Heartbeat CPU 0 instructions: 110000003 cycles: 69699944 heartbeat IPC: 1.271 cumulative IPC: 1.342 (Simulation time: 00 hr 06 min 08 sec)
Heartbeat CPU 0 instructions: 120000002 cycles: 76898005 heartbeat IPC: 1.389 cumulative IPC: 1.347 (Simulation time: 00 hr 06 min 44 sec)
Simulation finished CPU 0 instructions: 100000002 cycles: 75060370 cumulative IPC: 1.332 (Simulation time: 00 hr 07 min 04 sec)
Simulation complete CPU 0 instructions: 100000002 cycles: 75060370 cumulative IPC: 1.332 (Simulation time: 00 hr 07 min 04 sec)

ChampSim completed all CPUs

=== Simulation ===
CPU 0 runs ../traces/secret_traces/compute_int/compute_int_945.champsimtrace.xz
Region of Interest Statistics

CPU 0 cumulative IPC: 1.332 instructions: 100000002 cycles: 75060370
CPU 0 Branch Prediction Accuracy: 89.52% MPKI: 21.33 Average ROB Occupancy at Mispredict: 17.64
Branch type MPKI
BRANCH_DIRECT_JUMP: 0.104
BRANCH_INDIRECT: 9.72
BRANCH_CONDITIONAL: 6.65
BRANCH_DIRECT_CALL: 0.188
BRANCH_INDIRECT_CALL: 4.55
BRANCH_RETURN: 0.128

LLC TOTAL        ACCESS:     721181 HIT:     540745 MISS:     180436
LLC LOAD         ACCESS:     234501 HIT:     182585 MISS:      51916
LLC RFO          ACCESS:     219258 HIT:      92833 MISS:     126425
LLC PREFETCH     ACCESS:          0 HIT:          0 MISS:          0
LLC WRITE        ACCESS:     264521 HIT:     264439 MISS:         82
LLC TRANSLATION  ACCESS:       2901 HIT:        888 MISS:       2013
LLC PREFETCH REQUESTED:          0 ISSUED:          0 USEFUL:          0 USELESS:          0
LLC AVERAGE MISS LATENCY: 240.1 cycles
cpu0_DTLB TOTAL        ACCESS:   24758631 HIT:   24455587 MISS:     303044
cpu0_DTLB LOAD         ACCESS:   24758631 HIT:   24455587 MISS:     303044
cpu0_DTLB RFO          ACCESS:          0 HIT:          0 MISS:          0
cpu0_DTLB PREFETCH     ACCESS:          0 HIT:          0 MISS:          0
cpu0_DTLB WRITE        ACCESS:          0 HIT:          0 MISS:          0
cpu0_DTLB TRANSLATION  ACCESS:          0 HIT:          0 MISS:          0
cpu0_DTLB PREFETCH REQUESTED:          0 ISSUED:          0 USEFUL:          0 USELESS:          0
cpu0_DTLB AVERAGE MISS LATENCY: 6.193 cycles
cpu0_ITLB TOTAL        ACCESS:    5129912 HIT:    4995402 MISS:     134510
cpu0_ITLB LOAD         ACCESS:    5129912 HIT:    4995402 MISS:     134510
cpu0_ITLB RFO          ACCESS:          0 HIT:          0 MISS:          0
cpu0_ITLB PREFETCH     ACCESS:          0 HIT:          0 MISS:          0
cpu0_ITLB WRITE        ACCESS:          0 HIT:          0 MISS:          0
cpu0_ITLB TRANSLATION  ACCESS:          0 HIT:          0 MISS:          0
cpu0_ITLB PREFETCH REQUESTED:          0 ISSUED:          0 USEFUL:          0 USELESS:          0
cpu0_ITLB AVERAGE MISS LATENCY: 4.013 cycles
cpu0_L1D TOTAL        ACCESS:   32471767 HIT:   29718210 MISS:    2753557
cpu0_L1D LOAD         ACCESS:   19182781 HIT:   17781598 MISS:    1401183
cpu0_L1D RFO          ACCESS:          0 HIT:          0 MISS:          0
cpu0_L1D PREFETCH     ACCESS:          0 HIT:          0 MISS:          0
cpu0_L1D WRITE        ACCESS:   13284120 HIT:   11935483 MISS:    1348637
cpu0_L1D TRANSLATION  ACCESS:       4866 HIT:       1129 MISS:       3737
cpu0_L1D PREFETCH REQUESTED:          0 ISSUED:          0 USEFUL:          0 USELESS:          0
cpu0_L1D AVERAGE MISS LATENCY: 18.76 cycles
cpu0_L1I TOTAL        ACCESS:    5768310 HIT:    5121455 MISS:     646855
cpu0_L1I LOAD         ACCESS:    5768310 HIT:    5121455 MISS:     646855
cpu0_L1I RFO          ACCESS:          0 HIT:          0 MISS:          0
cpu0_L1I PREFETCH     ACCESS:          0 HIT:          0 MISS:          0
cpu0_L1I WRITE        ACCESS:          0 HIT:          0 MISS:          0
cpu0_L1I TRANSLATION  ACCESS:          0 HIT:          0 MISS:          0
cpu0_L1I PREFETCH REQUESTED:          0 ISSUED:          0 USEFUL:          0 USELESS:          0
cpu0_L1I AVERAGE MISS LATENCY: 17.42 cycles
cpu0_L2C TOTAL        ACCESS:    2098001 HIT:    1640804 MISS:     457197
cpu0_L2C LOAD         ACCESS:    1401166 HIT:    1166664 MISS:     234502
cpu0_L2C RFO          ACCESS:     268735 HIT:      49477 MISS:     219258
cpu0_L2C PREFETCH     ACCESS:          0 HIT:          0 MISS:          0
cpu0_L2C WRITE        ACCESS:     424370 HIT:     423834 MISS:        536
cpu0_L2C TRANSLATION  ACCESS:       3730 HIT:        829 MISS:       2901
cpu0_L2C PREFETCH REQUESTED:          0 ISSUED:          0 USEFUL:          0 USELESS:          0
cpu0_L2C AVERAGE MISS LATENCY: 115.2 cycles
cpu0_STLB TOTAL        ACCESS:     253312 HIT:     248601 MISS:       4711
cpu0_STLB LOAD         ACCESS:     253312 HIT:     248601 MISS:       4711
cpu0_STLB RFO          ACCESS:          0 HIT:          0 MISS:          0
cpu0_STLB PREFETCH     ACCESS:          0 HIT:          0 MISS:          0
cpu0_STLB WRITE        ACCESS:          0 HIT:          0 MISS:          0
cpu0_STLB TRANSLATION  ACCESS:          0 HIT:          0 MISS:          0
cpu0_STLB PREFETCH REQUESTED:          0 ISSUED:          0 USEFUL:          0 USELESS:          0
cpu0_STLB AVERAGE MISS LATENCY: 179.4 cycles

DRAM Statistics

Channel 0 RQ ROW_BUFFER_HIT:      50672
  ROW_BUFFER_MISS:     129675
 AVG DBUS CONGESTED CYCLE: 3.942
WQ ROW_BUFFER_HIT: Channel 0 
  ROW_BUFFER_MISS:      27256
  FULL:     104516
