WARNING: physical memory size is smaller than virtual memory size.

*** ChampSim Multicore Out-of-Order Simulator ***
Warmup Instructions: 25000000
Simulation Instructions: 100000000
Number of CPUs: 1
Page size: 4096

Off-chip DRAM Size: 4 GiB Channels: 1 Width: 64-bit Data Race: 3200 MT/s
Heartbeat CPU 0 instructions: 10000003 cycles: 2501111 heartbeat IPC: 3.998 cumulative IPC: 3.998 (Simulation time: 00 hr 00 min 18 sec)
Heartbeat CPU 0 instructions: 20000000 cycles: 5003733 heartbeat IPC: 3.996 cumulative IPC: 3.997 (Simulation time: 00 hr 00 min 37 sec)
Warmup finished CPU 0 instructions: 25000003 cycles: 6253784 cumulative IPC: 3.998 (Simulation time: 00 hr 00 min 46 sec)
Warmup complete CPU 0 instructions: 25000003 cycles: 6253784 cumulative IPC: 3.998 (Simulation time: 00 hr 00 min 46 sec)
Heartbeat CPU 0 instructions: 30000000 cycles: 9885884 heartbeat IPC: 2.048 cumulative IPC: 1.377 (Simulation time: 00 hr 01 min 04 sec)
Heartbeat CPU 0 instructions: 40000001 cycles: 15906584 heartbeat IPC: 1.661 cumulative IPC: 1.554 (Simulation time: 00 hr 01 min 35 sec)
Heartbeat CPU 0 instructions: 50000002 cycles: 22217906 heartbeat IPC: 1.584 cumulative IPC: 1.566 (Simulation time: 00 hr 02 min 07 sec)
Heartbeat CPU 0 instructions: 60000000 cycles: 27600513 heartbeat IPC: 1.858 cumulative IPC: 1.64 (Simulation time: 00 hr 02 min 37 sec)
Heartbeat CPU 0 instructions: 70000000 cycles: 34292413 heartbeat IPC: 1.494 cumulative IPC: 1.605 (Simulation time: 00 hr 03 min 10 sec)
Heartbeat CPU 0 instructions: 80000003 cycles: 40015559 heartbeat IPC: 1.747 cumulative IPC: 1.629 (Simulation time: 00 hr 03 min 42 sec)
Heartbeat CPU 0 instructions: 90000001 cycles: 48174822 heartbeat IPC: 1.226 cumulative IPC: 1.551 (Simulation time: 00 hr 04 min 19 sec)
Heartbeat CPU 0 instructions: 100000000 cycles: 52547188 heartbeat IPC: 2.287 cumulative IPC: 1.62 (Simulation time: 00 hr 04 min 48 sec)
*** Reached end of trace: (0, "../traces/secret_traces/compute_int/compute_int_230.champsimtrace.xz")
Heartbeat CPU 0 instructions: 110000001 cycles: 59655000 heartbeat IPC: 1.407 cumulative IPC: 1.592 (Simulation time: 00 hr 05 min 23 sec)
Heartbeat CPU 0 instructions: 120000000 cycles: 68468626 heartbeat IPC: 1.135 cumulative IPC: 1.527 (Simulation time: 00 hr 06 min 04 sec)
Simulation finished CPU 0 instructions: 100000001 cycles: 65527700 cumulative IPC: 1.526 (Simulation time: 00 hr 06 min 20 sec)
Simulation complete CPU 0 instructions: 100000001 cycles: 65527700 cumulative IPC: 1.526 (Simulation time: 00 hr 06 min 20 sec)

ChampSim completed all CPUs

=== Simulation ===
CPU 0 runs ../traces/secret_traces/compute_int/compute_int_230.champsimtrace.xz
Region of Interest Statistics

CPU 0 cumulative IPC: 1.526 instructions: 100000001 cycles: 65527700
CPU 0 Branch Prediction Accuracy: 87.75% MPKI: 18.19 Average ROB Occupancy at Mispredict: 18.38
Branch type MPKI
BRANCH_DIRECT_JUMP: 0.00418
BRANCH_INDIRECT: 4.67
BRANCH_CONDITIONAL: 13.5
BRANCH_DIRECT_CALL: 0.0101
BRANCH_INDIRECT_CALL: 0.00616
BRANCH_RETURN: 0.00545

LLC TOTAL        ACCESS:     899113 HIT:     786476 MISS:     112637
LLC LOAD         ACCESS:     408610 HIT:     338361 MISS:      70249
LLC RFO          ACCESS:     232032 HIT:     190273 MISS:      41759
LLC PREFETCH     ACCESS:          0 HIT:          0 MISS:          0
LLC WRITE        ACCESS:     257768 HIT:     257759 MISS:          9
LLC TRANSLATION  ACCESS:        703 HIT:         83 MISS:        620
LLC PREFETCH REQUESTED:          0 ISSUED:          0 USEFUL:          0 USELESS:          0
LLC AVERAGE MISS LATENCY: 397.1 cycles
cpu0_DTLB TOTAL        ACCESS:   22011245 HIT:   20889026 MISS:    1122219
cpu0_DTLB LOAD         ACCESS:   22011245 HIT:   20889026 MISS:    1122219
cpu0_DTLB RFO          ACCESS:          0 HIT:          0 MISS:          0
cpu0_DTLB PREFETCH     ACCESS:          0 HIT:          0 MISS:          0
cpu0_DTLB WRITE        ACCESS:          0 HIT:          0 MISS:          0
cpu0_DTLB TRANSLATION  ACCESS:          0 HIT:          0 MISS:          0
cpu0_DTLB PREFETCH REQUESTED:          0 ISSUED:          0 USEFUL:          0 USELESS:          0
cpu0_DTLB AVERAGE MISS LATENCY: 5.121 cycles
cpu0_ITLB TOTAL        ACCESS:     879592 HIT:     876003 MISS:       3589
cpu0_ITLB LOAD         ACCESS:     879592 HIT:     876003 MISS:       3589
cpu0_ITLB RFO          ACCESS:          0 HIT:          0 MISS:          0
cpu0_ITLB PREFETCH     ACCESS:          0 HIT:          0 MISS:          0
cpu0_ITLB WRITE        ACCESS:          0 HIT:          0 MISS:          0
cpu0_ITLB TRANSLATION  ACCESS:          0 HIT:          0 MISS:          0
cpu0_ITLB PREFETCH REQUESTED:          0 ISSUED:          0 USEFUL:          0 USELESS:          0
cpu0_ITLB AVERAGE MISS LATENCY: 16.94 cycles
cpu0_L1D TOTAL        ACCESS:   27194644 HIT:   24075800 MISS:    3118844
cpu0_L1D LOAD         ACCESS:   20159285 HIT:   17526636 MISS:    2632649
cpu0_L1D RFO          ACCESS:          0 HIT:          0 MISS:          0
cpu0_L1D PREFETCH     ACCESS:          0 HIT:          0 MISS:          0
cpu0_L1D WRITE        ACCESS:    7034219 HIT:    6548985 MISS:     485234
cpu0_L1D TRANSLATION  ACCESS:       1140 HIT:        179 MISS:        961
cpu0_L1D PREFETCH REQUESTED:          0 ISSUED:          0 USEFUL:          0 USELESS:          0
cpu0_L1D AVERAGE MISS LATENCY: 22.95 cycles
cpu0_L1I TOTAL        ACCESS:    1009745 HIT:     994478 MISS:      15267
cpu0_L1I LOAD         ACCESS:    1009745 HIT:     994478 MISS:      15267
cpu0_L1I RFO          ACCESS:          0 HIT:          0 MISS:          0
cpu0_L1I PREFETCH     ACCESS:          0 HIT:          0 MISS:          0
cpu0_L1I WRITE        ACCESS:          0 HIT:          0 MISS:          0
cpu0_L1I TRANSLATION  ACCESS:          0 HIT:          0 MISS:          0
cpu0_L1I PREFETCH REQUESTED:          0 ISSUED:          0 USEFUL:          0 USELESS:          0
cpu0_L1I AVERAGE MISS LATENCY: 89.95 cycles
cpu0_L2C TOTAL        ACCESS:    2256240 HIT:    1614838 MISS:     641402
cpu0_L2C LOAD         ACCESS:    1546550 HIT:    1137942 MISS:     408608
cpu0_L2C RFO          ACCESS:     330195 HIT:      98161 MISS:     232034
cpu0_L2C PREFETCH     ACCESS:          0 HIT:          0 MISS:          0
cpu0_L2C WRITE        ACCESS:     378539 HIT:     378482 MISS:         57
cpu0_L2C TRANSLATION  ACCESS:        956 HIT:        253 MISS:        703
cpu0_L2C PREFETCH REQUESTED:          0 ISSUED:          0 USEFUL:          0 USELESS:          0
cpu0_L2C AVERAGE MISS LATENCY: 89.99 cycles
cpu0_STLB TOTAL        ACCESS:     817535 HIT:     816454 MISS:       1081
cpu0_STLB LOAD         ACCESS:     817535 HIT:     816454 MISS:       1081
cpu0_STLB RFO          ACCESS:          0 HIT:          0 MISS:          0
cpu0_STLB PREFETCH     ACCESS:          0 HIT:          0 MISS:          0
cpu0_STLB WRITE        ACCESS:          0 HIT:          0 MISS:          0
cpu0_STLB TRANSLATION  ACCESS:          0 HIT:          0 MISS:          0
cpu0_STLB PREFETCH REQUESTED:          0 ISSUED:          0 USEFUL:          0 USELESS:          0
cpu0_STLB AVERAGE MISS LATENCY: 237.3 cycles

DRAM Statistics

Channel 0 RQ ROW_BUFFER_HIT:      19860
  ROW_BUFFER_MISS:      92477
 AVG DBUS CONGESTED CYCLE: 3.972
WQ ROW_BUFFER_HIT: Channel 0 
  ROW_BUFFER_MISS:       7854
  FULL:      57791
