WARNING: physical memory size is smaller than virtual memory size.

*** ChampSim Multicore Out-of-Order Simulator ***
Warmup Instructions: 25000000
Simulation Instructions: 100000000
Number of CPUs: 1
Page size: 4096

Off-chip DRAM Size: 4 GiB Channels: 1 Width: 64-bit Data Race: 3200 MT/s
Heartbeat CPU 0 instructions: 10000001 cycles: 2529160 heartbeat IPC: 3.954 cumulative IPC: 3.954 (Simulation time: 00 hr 00 min 18 sec)
Heartbeat CPU 0 instructions: 20000001 cycles: 5029160 heartbeat IPC: 4 cumulative IPC: 3.977 (Simulation time: 00 hr 00 min 37 sec)
Warmup finished CPU 0 instructions: 25000001 cycles: 6279161 cumulative IPC: 3.981 (Simulation time: 00 hr 00 min 46 sec)
Warmup complete CPU 0 instructions: 25000001 cycles: 6279161 cumulative IPC: 3.981 (Simulation time: 00 hr 00 min 46 sec)
Heartbeat CPU 0 instructions: 30000000 cycles: 9437656 heartbeat IPC: 2.268 cumulative IPC: 1.583 (Simulation time: 00 hr 01 min 01 sec)
Heartbeat CPU 0 instructions: 40000001 cycles: 15523567 heartbeat IPC: 1.643 cumulative IPC: 1.623 (Simulation time: 00 hr 01 min 33 sec)
Heartbeat CPU 0 instructions: 50000001 cycles: 21001349 heartbeat IPC: 1.826 cumulative IPC: 1.698 (Simulation time: 00 hr 02 min 02 sec)
Heartbeat CPU 0 instructions: 60000000 cycles: 26090894 heartbeat IPC: 1.965 cumulative IPC: 1.767 (Simulation time: 00 hr 02 min 29 sec)
Heartbeat CPU 0 instructions: 70000000 cycles: 31691429 heartbeat IPC: 1.786 cumulative IPC: 1.771 (Simulation time: 00 hr 02 min 58 sec)
*** Reached end of trace: (0, "../traces/secret_traces/compute_int/compute_int_208.champsimtrace.xz")
Heartbeat CPU 0 instructions: 80000000 cycles: 36949314 heartbeat IPC: 1.902 cumulative IPC: 1.793 (Simulation time: 00 hr 03 min 27 sec)
Heartbeat CPU 0 instructions: 90000000 cycles: 45296694 heartbeat IPC: 1.198 cumulative IPC: 1.666 (Simulation time: 00 hr 04 min 05 sec)
Heartbeat CPU 0 instructions: 100000004 cycles: 52425894 heartbeat IPC: 1.403 cumulative IPC: 1.625 (Simulation time: 00 hr 04 min 40 sec)
Heartbeat CPU 0 instructions: 110000001 cycles: 58681235 heartbeat IPC: 1.599 cumulative IPC: 1.622 (Simulation time: 00 hr 05 min 10 sec)
Heartbeat CPU 0 instructions: 120000000 cycles: 64707528 heartbeat IPC: 1.659 cumulative IPC: 1.626 (Simulation time: 00 hr 05 min 42 sec)
Simulation finished CPU 0 instructions: 100000004 cycles: 61149978 cumulative IPC: 1.635 (Simulation time: 00 hr 05 min 56 sec)
Simulation complete CPU 0 instructions: 100000004 cycles: 61149978 cumulative IPC: 1.635 (Simulation time: 00 hr 05 min 56 sec)

ChampSim completed all CPUs

=== Simulation ===
CPU 0 runs ../traces/secret_traces/compute_int/compute_int_208.champsimtrace.xz
Region of Interest Statistics

CPU 0 cumulative IPC: 1.635 instructions: 100000004 cycles: 61149978
CPU 0 Branch Prediction Accuracy: 90.32% MPKI: 17.09 Average ROB Occupancy at Mispredict: 21.41
Branch type MPKI
BRANCH_DIRECT_JUMP: 0.00579
BRANCH_INDIRECT: 0.641
BRANCH_CONDITIONAL: 16.4
BRANCH_DIRECT_CALL: 0.0159
BRANCH_INDIRECT_CALL: 0.00605
BRANCH_RETURN: 0.00919

LLC TOTAL        ACCESS:     385465 HIT:     200982 MISS:     184483
LLC LOAD         ACCESS:     228240 HIT:     110121 MISS:     118119
LLC RFO          ACCESS:      75963 HIT:      11467 MISS:      64496
LLC PREFETCH     ACCESS:          0 HIT:          0 MISS:          0
LLC WRITE        ACCESS:      80364 HIT:      79276 MISS:       1088
LLC TRANSLATION  ACCESS:        898 HIT:        118 MISS:        780
LLC PREFETCH REQUESTED:          0 ISSUED:          0 USEFUL:          0 USELESS:          0
LLC AVERAGE MISS LATENCY: 371.3 cycles
cpu0_DTLB TOTAL        ACCESS:   18092110 HIT:   18054638 MISS:      37472
cpu0_DTLB LOAD         ACCESS:   18092110 HIT:   18054638 MISS:      37472
cpu0_DTLB RFO          ACCESS:          0 HIT:          0 MISS:          0
cpu0_DTLB PREFETCH     ACCESS:          0 HIT:          0 MISS:          0
cpu0_DTLB WRITE        ACCESS:          0 HIT:          0 MISS:          0
cpu0_DTLB TRANSLATION  ACCESS:          0 HIT:          0 MISS:          0
cpu0_DTLB PREFETCH REQUESTED:          0 ISSUED:          0 USEFUL:          0 USELESS:          0
cpu0_DTLB AVERAGE MISS LATENCY: 9.737 cycles
cpu0_ITLB TOTAL        ACCESS:      49508 HIT:      45807 MISS:       3701
cpu0_ITLB LOAD         ACCESS:      49508 HIT:      45807 MISS:       3701
cpu0_ITLB RFO          ACCESS:          0 HIT:          0 MISS:          0
cpu0_ITLB PREFETCH     ACCESS:          0 HIT:          0 MISS:          0
cpu0_ITLB WRITE        ACCESS:          0 HIT:          0 MISS:          0
cpu0_ITLB TRANSLATION  ACCESS:          0 HIT:          0 MISS:          0
cpu0_ITLB PREFETCH REQUESTED:          0 ISSUED:          0 USEFUL:          0 USELESS:          0
cpu0_ITLB AVERAGE MISS LATENCY: 19.25 cycles
cpu0_L1D TOTAL        ACCESS:   22531476 HIT:   20499999 MISS:    2031477
cpu0_L1D LOAD         ACCESS:   15885592 HIT:   14655256 MISS:    1230336
cpu0_L1D RFO          ACCESS:          0 HIT:          0 MISS:          0
cpu0_L1D PREFETCH     ACCESS:          0 HIT:          0 MISS:          0
cpu0_L1D WRITE        ACCESS:    6642247 HIT:    5842591 MISS:     799656
cpu0_L1D TRANSLATION  ACCESS:       3637 HIT:       2152 MISS:       1485
cpu0_L1D PREFETCH REQUESTED:          0 ISSUED:          0 USEFUL:          0 USELESS:          0
cpu0_L1D AVERAGE MISS LATENCY: 38.06 cycles
cpu0_L1I TOTAL        ACCESS:      55365 HIT:      37952 MISS:      17413
cpu0_L1I LOAD         ACCESS:      55365 HIT:      37952 MISS:      17413
cpu0_L1I RFO          ACCESS:          0 HIT:          0 MISS:          0
cpu0_L1I PREFETCH     ACCESS:          0 HIT:          0 MISS:          0
cpu0_L1I WRITE        ACCESS:          0 HIT:          0 MISS:          0
cpu0_L1I TRANSLATION  ACCESS:          0 HIT:          0 MISS:          0
cpu0_L1I PREFETCH REQUESTED:          0 ISSUED:          0 USEFUL:          0 USELESS:          0
cpu0_L1I AVERAGE MISS LATENCY: 81.94 cycles
cpu0_L2C TOTAL        ACCESS:    1712255 HIT:    1406719 MISS:     305536
cpu0_L2C LOAD         ACCESS:     688359 HIT:     460119 MISS:     228240
cpu0_L2C RFO          ACCESS:     325544 HIT:     249581 MISS:      75963
cpu0_L2C PREFETCH     ACCESS:          0 HIT:          0 MISS:          0
cpu0_L2C WRITE        ACCESS:     696872 HIT:     696437 MISS:        435
cpu0_L2C TRANSLATION  ACCESS:       1480 HIT:        582 MISS:        898
cpu0_L2C PREFETCH REQUESTED:          0 ISSUED:          0 USEFUL:          0 USELESS:          0
cpu0_L2C AVERAGE MISS LATENCY: 244.8 cycles
cpu0_STLB TOTAL        ACCESS:      10772 HIT:       7263 MISS:       3509
cpu0_STLB LOAD         ACCESS:      10772 HIT:       7263 MISS:       3509
cpu0_STLB RFO          ACCESS:          0 HIT:          0 MISS:          0
cpu0_STLB PREFETCH     ACCESS:          0 HIT:          0 MISS:          0
cpu0_STLB WRITE        ACCESS:          0 HIT:          0 MISS:          0
cpu0_STLB TRANSLATION  ACCESS:          0 HIT:          0 MISS:          0
cpu0_STLB PREFETCH REQUESTED:          0 ISSUED:          0 USEFUL:          0 USELESS:          0
cpu0_STLB AVERAGE MISS LATENCY: 173.7 cycles

DRAM Statistics

Channel 0 RQ ROW_BUFFER_HIT:     109413
  ROW_BUFFER_MISS:      73982
 AVG DBUS CONGESTED CYCLE: 3.987
WQ ROW_BUFFER_HIT: Channel 0 
  ROW_BUFFER_MISS:      12714
  FULL:      61292
