WARNING: physical memory size is smaller than virtual memory size.

*** ChampSim Multicore Out-of-Order Simulator ***
Warmup Instructions: 25000000
Simulation Instructions: 100000000
Number of CPUs: 1
Page size: 4096

Off-chip DRAM Size: 4 GiB Channels: 1 Width: 64-bit Data Race: 3200 MT/s
Heartbeat CPU 0 instructions: 10000001 cycles: 2604380 heartbeat IPC: 3.84 cumulative IPC: 3.84 (Simulation time: 00 hr 00 min 19 sec)
Heartbeat CPU 0 instructions: 20000003 cycles: 5174895 heartbeat IPC: 3.89 cumulative IPC: 3.865 (Simulation time: 00 hr 00 min 38 sec)
Warmup finished CPU 0 instructions: 25000002 cycles: 6452845 cumulative IPC: 3.874 (Simulation time: 00 hr 00 min 47 sec)
Warmup complete CPU 0 instructions: 25000002 cycles: 6452845 cumulative IPC: 3.874 (Simulation time: 00 hr 00 min 47 sec)
Heartbeat CPU 0 instructions: 30000004 cycles: 15260956 heartbeat IPC: 0.9915 cumulative IPC: 0.5677 (Simulation time: 00 hr 01 min 26 sec)
Heartbeat CPU 0 instructions: 40000000 cycles: 32994443 heartbeat IPC: 0.5639 cumulative IPC: 0.5652 (Simulation time: 00 hr 02 min 42 sec)
Heartbeat CPU 0 instructions: 50000001 cycles: 48959223 heartbeat IPC: 0.6264 cumulative IPC: 0.5881 (Simulation time: 00 hr 03 min 53 sec)
Heartbeat CPU 0 instructions: 60000001 cycles: 66137994 heartbeat IPC: 0.5821 cumulative IPC: 0.5864 (Simulation time: 00 hr 05 min 09 sec)
Heartbeat CPU 0 instructions: 70000001 cycles: 81905113 heartbeat IPC: 0.6342 cumulative IPC: 0.5964 (Simulation time: 00 hr 06 min 20 sec)
Heartbeat CPU 0 instructions: 80000000 cycles: 95873488 heartbeat IPC: 0.7159 cumulative IPC: 0.6151 (Simulation time: 00 hr 07 min 24 sec)
Heartbeat CPU 0 instructions: 90000003 cycles: 112028713 heartbeat IPC: 0.619 cumulative IPC: 0.6157 (Simulation time: 00 hr 08 min 37 sec)
Heartbeat CPU 0 instructions: 100000001 cycles: 129285299 heartbeat IPC: 0.5795 cumulative IPC: 0.6106 (Simulation time: 00 hr 09 min 52 sec)
*** Reached end of trace: (0, "../traces/secret_traces/compute_fp/compute_fp_94.champsimtrace.xz")
Heartbeat CPU 0 instructions: 110000003 cycles: 148099490 heartbeat IPC: 0.5315 cumulative IPC: 0.6001 (Simulation time: 00 hr 11 min 10 sec)
Heartbeat CPU 0 instructions: 120000000 cycles: 164983288 heartbeat IPC: 0.5923 cumulative IPC: 0.5993 (Simulation time: 00 hr 12 min 23 sec)
Simulation finished CPU 0 instructions: 100000002 cycles: 167077717 cumulative IPC: 0.5985 (Simulation time: 00 hr 13 min 00 sec)
Simulation complete CPU 0 instructions: 100000002 cycles: 167077717 cumulative IPC: 0.5985 (Simulation time: 00 hr 13 min 00 sec)

ChampSim completed all CPUs

=== Simulation ===
CPU 0 runs ../traces/secret_traces/compute_fp/compute_fp_94.champsimtrace.xz
Region of Interest Statistics

CPU 0 cumulative IPC: 0.5985 instructions: 100000002 cycles: 167077717
CPU 0 Branch Prediction Accuracy: 91.87% MPKI: 10.15 Average ROB Occupancy at Mispredict: 139.2
Branch type MPKI
BRANCH_DIRECT_JUMP: 0.00886
BRANCH_INDIRECT: 3.31
BRANCH_CONDITIONAL: 6.79
BRANCH_DIRECT_CALL: 0.0223
BRANCH_INDIRECT_CALL: 0.00857
BRANCH_RETURN: 0.0121

LLC TOTAL        ACCESS:    2705529 HIT:     383761 MISS:    2321768
LLC LOAD         ACCESS:    2223152 HIT:      94824 MISS:    2128328
LLC RFO          ACCESS:     191372 HIT:      28190 MISS:     163182
LLC PREFETCH     ACCESS:          0 HIT:          0 MISS:          0
LLC WRITE        ACCESS:     260329 HIT:     256840 MISS:       3489
LLC TRANSLATION  ACCESS:      30676 HIT:       3907 MISS:      26769
LLC PREFETCH REQUESTED:          0 ISSUED:          0 USEFUL:          0 USELESS:          0
LLC AVERAGE MISS LATENCY: 371.1 cycles
cpu0_DTLB TOTAL        ACCESS:   19318482 HIT:   18501258 MISS:     817224
cpu0_DTLB LOAD         ACCESS:   19318482 HIT:   18501258 MISS:     817224
cpu0_DTLB RFO          ACCESS:          0 HIT:          0 MISS:          0
cpu0_DTLB PREFETCH     ACCESS:          0 HIT:          0 MISS:          0
cpu0_DTLB WRITE        ACCESS:          0 HIT:          0 MISS:          0
cpu0_DTLB TRANSLATION  ACCESS:          0 HIT:          0 MISS:          0
cpu0_DTLB PREFETCH REQUESTED:          0 ISSUED:          0 USEFUL:          0 USELESS:          0
cpu0_DTLB AVERAGE MISS LATENCY: 13.69 cycles
cpu0_ITLB TOTAL        ACCESS:      93515 HIT:      88854 MISS:       4661
cpu0_ITLB LOAD         ACCESS:      93515 HIT:      88854 MISS:       4661
cpu0_ITLB RFO          ACCESS:          0 HIT:          0 MISS:          0
cpu0_ITLB PREFETCH     ACCESS:          0 HIT:          0 MISS:          0
cpu0_ITLB WRITE        ACCESS:          0 HIT:          0 MISS:          0
cpu0_ITLB TRANSLATION  ACCESS:          0 HIT:          0 MISS:          0
cpu0_ITLB PREFETCH REQUESTED:          0 ISSUED:          0 USEFUL:          0 USELESS:          0
cpu0_ITLB AVERAGE MISS LATENCY: 34.5 cycles
cpu0_L1D TOTAL        ACCESS:   24314731 HIT:   14151981 MISS:   10162750
cpu0_L1D LOAD         ACCESS:   20245719 HIT:   10664943 MISS:    9580776
cpu0_L1D RFO          ACCESS:          0 HIT:          0 MISS:          0
cpu0_L1D PREFETCH     ACCESS:          0 HIT:          0 MISS:          0
cpu0_L1D WRITE        ACCESS:    3958403 HIT:    3447733 MISS:     510670
cpu0_L1D TRANSLATION  ACCESS:     110609 HIT:      39305 MISS:      71304
cpu0_L1D PREFETCH REQUESTED:          0 ISSUED:          0 USEFUL:          0 USELESS:          0
cpu0_L1D AVERAGE MISS LATENCY: 67.64 cycles
cpu0_L1I TOTAL        ACCESS:     104551 HIT:      77795 MISS:      26756
cpu0_L1I LOAD         ACCESS:     104551 HIT:      77795 MISS:      26756
cpu0_L1I RFO          ACCESS:          0 HIT:          0 MISS:          0
cpu0_L1I PREFETCH     ACCESS:          0 HIT:          0 MISS:          0
cpu0_L1I WRITE        ACCESS:          0 HIT:          0 MISS:          0
cpu0_L1I TRANSLATION  ACCESS:          0 HIT:          0 MISS:          0
cpu0_L1I PREFETCH REQUESTED:          0 ISSUED:          0 USEFUL:          0 USELESS:          0
cpu0_L1I AVERAGE MISS LATENCY: 102.5 cycles
cpu0_L2C TOTAL        ACCESS:    3460141 HIT:    1014366 MISS:    2445775
cpu0_L2C LOAD         ACCESS:    2850835 HIT:     627683 MISS:    2223152
cpu0_L2C RFO          ACCESS:     222119 HIT:      30747 MISS:     191372
cpu0_L2C PREFETCH     ACCESS:          0 HIT:          0 MISS:          0
cpu0_L2C WRITE        ACCESS:     316877 HIT:     316302 MISS:        575
cpu0_L2C TRANSLATION  ACCESS:      70310 HIT:      39634 MISS:      30676
cpu0_L2C PREFETCH REQUESTED:          0 ISSUED:          0 USEFUL:          0 USELESS:          0
cpu0_L2C AVERAGE MISS LATENCY: 373.2 cycles
cpu0_STLB TOTAL        ACCESS:     377244 HIT:     266932 MISS:     110312
cpu0_STLB LOAD         ACCESS:     377244 HIT:     266932 MISS:     110312
cpu0_STLB RFO          ACCESS:          0 HIT:          0 MISS:          0
cpu0_STLB PREFETCH     ACCESS:          0 HIT:          0 MISS:          0
cpu0_STLB WRITE        ACCESS:          0 HIT:          0 MISS:          0
cpu0_STLB TRANSLATION  ACCESS:          0 HIT:          0 MISS:          0
cpu0_STLB PREFETCH REQUESTED:          0 ISSUED:          0 USEFUL:          0 USELESS:          0
cpu0_STLB AVERAGE MISS LATENCY: 101.9 cycles

DRAM Statistics

Channel 0 RQ ROW_BUFFER_HIT:    1379835
  ROW_BUFFER_MISS:     937317
 AVG DBUS CONGESTED CYCLE: 3.959
WQ ROW_BUFFER_HIT: Channel 0 
  ROW_BUFFER_MISS:      38940
  FULL:     197434
