WARNING: physical memory size is smaller than virtual memory size.

*** ChampSim Multicore Out-of-Order Simulator ***
Warmup Instructions: 25000000
Simulation Instructions: 100000000
Number of CPUs: 1
Page size: 4096

Off-chip DRAM Size: 4 GiB Channels: 1 Width: 64-bit Data Race: 3200 MT/s
Heartbeat CPU 0 instructions: 10000002 cycles: 2507806 heartbeat IPC: 3.988 cumulative IPC: 3.988 (Simulation time: 00 hr 00 min 21 sec)
Heartbeat CPU 0 instructions: 20000000 cycles: 5012413 heartbeat IPC: 3.993 cumulative IPC: 3.99 (Simulation time: 00 hr 00 min 41 sec)
Warmup finished CPU 0 instructions: 25000000 cycles: 6265180 cumulative IPC: 3.99 (Simulation time: 00 hr 00 min 52 sec)
Warmup complete CPU 0 instructions: 25000000 cycles: 6265180 cumulative IPC: 3.99 (Simulation time: 00 hr 00 min 52 sec)
Heartbeat CPU 0 instructions: 30000000 cycles: 20115494 heartbeat IPC: 0.6621 cumulative IPC: 0.361 (Simulation time: 00 hr 01 min 41 sec)
Heartbeat CPU 0 instructions: 40000004 cycles: 46900702 heartbeat IPC: 0.3733 cumulative IPC: 0.3691 (Simulation time: 00 hr 03 min 17 sec)
Heartbeat CPU 0 instructions: 50000004 cycles: 78310290 heartbeat IPC: 0.3184 cumulative IPC: 0.347 (Simulation time: 00 hr 05 min 07 sec)
Heartbeat CPU 0 instructions: 60000000 cycles: 102770516 heartbeat IPC: 0.4088 cumulative IPC: 0.3627 (Simulation time: 00 hr 06 min 36 sec)
Heartbeat CPU 0 instructions: 70000000 cycles: 127577741 heartbeat IPC: 0.4031 cumulative IPC: 0.3709 (Simulation time: 00 hr 08 min 06 sec)
Heartbeat CPU 0 instructions: 80000000 cycles: 152429637 heartbeat IPC: 0.4024 cumulative IPC: 0.3763 (Simulation time: 00 hr 09 min 35 sec)
Heartbeat CPU 0 instructions: 90000000 cycles: 177416288 heartbeat IPC: 0.4002 cumulative IPC: 0.3798 (Simulation time: 00 hr 11 min 06 sec)
Heartbeat CPU 0 instructions: 100000001 cycles: 202417020 heartbeat IPC: 0.4 cumulative IPC: 0.3824 (Simulation time: 00 hr 12 min 36 sec)
*** Reached end of trace: (0, "../traces/secret_traces/compute_int/compute_int_280.champsimtrace.xz")
Heartbeat CPU 0 instructions: 110000000 cycles: 230355463 heartbeat IPC: 0.3579 cumulative IPC: 0.3793 (Simulation time: 00 hr 14 min 16 sec)
Heartbeat CPU 0 instructions: 120000002 cycles: 256735007 heartbeat IPC: 0.3791 cumulative IPC: 0.3793 (Simulation time: 00 hr 15 min 50 sec)
Simulation finished CPU 0 instructions: 100000001 cycles: 263745127 cumulative IPC: 0.3792 (Simulation time: 00 hr 16 min 37 sec)
Simulation complete CPU 0 instructions: 100000001 cycles: 263745127 cumulative IPC: 0.3792 (Simulation time: 00 hr 16 min 37 sec)

ChampSim completed all CPUs

=== Simulation ===
CPU 0 runs ../traces/secret_traces/compute_int/compute_int_280.champsimtrace.xz
Region of Interest Statistics

CPU 0 cumulative IPC: 0.3792 instructions: 100000001 cycles: 263745127
CPU 0 Branch Prediction Accuracy: 85.44% MPKI: 15.83 Average ROB Occupancy at Mispredict: 34.56
Branch type MPKI
BRANCH_DIRECT_JUMP: 0
BRANCH_INDIRECT: 0.0135
BRANCH_CONDITIONAL: 15.8
BRANCH_DIRECT_CALL: 0
BRANCH_INDIRECT_CALL: 0.00026
BRANCH_RETURN: 2e-05

LLC TOTAL        ACCESS:    4958841 HIT:    1974883 MISS:    2983958
LLC LOAD         ACCESS:    3566414 HIT:     911133 MISS:    2655281
LLC RFO          ACCESS:     308200 HIT:       1015 MISS:     307185
LLC PREFETCH     ACCESS:          0 HIT:          0 MISS:          0
LLC WRITE        ACCESS:    1052450 HIT:    1051292 MISS:       1158
LLC TRANSLATION  ACCESS:      31777 HIT:      11443 MISS:      20334
LLC PREFETCH REQUESTED:          0 ISSUED:          0 USEFUL:          0 USELESS:          0
LLC AVERAGE MISS LATENCY: 374.1 cycles
cpu0_DTLB TOTAL        ACCESS:   24938760 HIT:   24376389 MISS:     562371
cpu0_DTLB LOAD         ACCESS:   24938760 HIT:   24376389 MISS:     562371
cpu0_DTLB RFO          ACCESS:          0 HIT:          0 MISS:          0
cpu0_DTLB PREFETCH     ACCESS:          0 HIT:          0 MISS:          0
cpu0_DTLB WRITE        ACCESS:          0 HIT:          0 MISS:          0
cpu0_DTLB TRANSLATION  ACCESS:          0 HIT:          0 MISS:          0
cpu0_DTLB PREFETCH REQUESTED:          0 ISSUED:          0 USEFUL:          0 USELESS:          0
cpu0_DTLB AVERAGE MISS LATENCY: 33.89 cycles
cpu0_ITLB TOTAL        ACCESS:       3538 HIT:       3163 MISS:        375
cpu0_ITLB LOAD         ACCESS:       3538 HIT:       3163 MISS:        375
cpu0_ITLB RFO          ACCESS:          0 HIT:          0 MISS:          0
cpu0_ITLB PREFETCH     ACCESS:          0 HIT:          0 MISS:          0
cpu0_ITLB WRITE        ACCESS:          0 HIT:          0 MISS:          0
cpu0_ITLB TRANSLATION  ACCESS:          0 HIT:          0 MISS:          0
cpu0_ITLB PREFETCH REQUESTED:          0 ISSUED:          0 USEFUL:          0 USELESS:          0
cpu0_ITLB AVERAGE MISS LATENCY: 117.9 cycles
cpu0_L1D TOTAL        ACCESS:   36826494 HIT:   31644472 MISS:    5182022
cpu0_L1D LOAD         ACCESS:   16433415 HIT:   12133075 MISS:    4300340
cpu0_L1D RFO          ACCESS:          0 HIT:          0 MISS:          0
cpu0_L1D PREFETCH     ACCESS:          0 HIT:          0 MISS:          0
cpu0_L1D WRITE        ACCESS:   20299727 HIT:   19489270 MISS:     810457
cpu0_L1D TRANSLATION  ACCESS:      93352 HIT:      22127 MISS:      71225
cpu0_L1D PREFETCH REQUESTED:          0 ISSUED:          0 USEFUL:          0 USELESS:          0
cpu0_L1D AVERAGE MISS LATENCY: 235.2 cycles
cpu0_L1I TOTAL        ACCESS:       4037 HIT:       2936 MISS:       1101
cpu0_L1I LOAD         ACCESS:       4037 HIT:       2936 MISS:       1101
cpu0_L1I RFO          ACCESS:          0 HIT:          0 MISS:          0
cpu0_L1I PREFETCH     ACCESS:          0 HIT:          0 MISS:          0
cpu0_L1I WRITE        ACCESS:          0 HIT:          0 MISS:          0
cpu0_L1I TRANSLATION  ACCESS:          0 HIT:          0 MISS:          0
cpu0_L1I PREFETCH REQUESTED:          0 ISSUED:          0 USEFUL:          0 USELESS:          0
cpu0_L1I AVERAGE MISS LATENCY: 199.8 cycles
cpu0_L2C TOTAL        ACCESS:    5099944 HIT:    1190836 MISS:    3909108
cpu0_L2C LOAD         ACCESS:    3619502 HIT:      53088 MISS:    3566414
cpu0_L2C RFO          ACCESS:     316081 HIT:       7881 MISS:     308200
cpu0_L2C PREFETCH     ACCESS:          0 HIT:          0 MISS:          0
cpu0_L2C WRITE        ACCESS:    1093222 HIT:    1090505 MISS:       2717
cpu0_L2C TRANSLATION  ACCESS:      71139 HIT:      39362 MISS:      31777
cpu0_L2C PREFETCH REQUESTED:          0 ISSUED:          0 USEFUL:          0 USELESS:          0
cpu0_L2C AVERAGE MISS LATENCY: 306.3 cycles
cpu0_STLB TOTAL        ACCESS:     273637 HIT:     181189 MISS:      92448
cpu0_STLB LOAD         ACCESS:     273637 HIT:     181189 MISS:      92448
cpu0_STLB RFO          ACCESS:          0 HIT:          0 MISS:          0
cpu0_STLB PREFETCH     ACCESS:          0 HIT:          0 MISS:          0
cpu0_STLB WRITE        ACCESS:          0 HIT:          0 MISS:          0
cpu0_STLB TRANSLATION  ACCESS:          0 HIT:          0 MISS:          0
cpu0_STLB PREFETCH REQUESTED:          0 ISSUED:          0 USEFUL:          0 USELESS:          0
cpu0_STLB AVERAGE MISS LATENCY: 209.5 cycles

DRAM Statistics

Channel 0 RQ ROW_BUFFER_HIT:     833172
  ROW_BUFFER_MISS:    2149509
 AVG DBUS CONGESTED CYCLE: 3.968
WQ ROW_BUFFER_HIT: Channel 0 
  ROW_BUFFER_MISS:      34317
  FULL:    1000174
