WARNING: physical memory size is smaller than virtual memory size.

*** ChampSim Multicore Out-of-Order Simulator ***
Warmup Instructions: 25000000
Simulation Instructions: 100000000
Number of CPUs: 1
Page size: 4096

Off-chip DRAM Size: 4 GiB Channels: 1 Width: 64-bit Data Race: 3200 MT/s
Heartbeat CPU 0 instructions: 10000001 cycles: 2628576 heartbeat IPC: 3.804 cumulative IPC: 3.804 (Simulation time: 00 hr 00 min 17 sec)
Heartbeat CPU 0 instructions: 20000000 cycles: 5260879 heartbeat IPC: 3.799 cumulative IPC: 3.802 (Simulation time: 00 hr 00 min 35 sec)
Warmup finished CPU 0 instructions: 25000002 cycles: 6580593 cumulative IPC: 3.799 (Simulation time: 00 hr 00 min 43 sec)
Warmup complete CPU 0 instructions: 25000002 cycles: 6580593 cumulative IPC: 3.799 (Simulation time: 00 hr 00 min 43 sec)
Heartbeat CPU 0 instructions: 30000002 cycles: 8137356 heartbeat IPC: 3.476 cumulative IPC: 3.212 (Simulation time: 00 hr 00 min 55 sec)
Heartbeat CPU 0 instructions: 40000000 cycles: 11120982 heartbeat IPC: 3.352 cumulative IPC: 3.304 (Simulation time: 00 hr 01 min 17 sec)
Heartbeat CPU 0 instructions: 50000000 cycles: 14108112 heartbeat IPC: 3.348 cumulative IPC: 3.321 (Simulation time: 00 hr 01 min 39 sec)
Heartbeat CPU 0 instructions: 60000004 cycles: 17061062 heartbeat IPC: 3.386 cumulative IPC: 3.34 (Simulation time: 00 hr 02 min 01 sec)
Heartbeat CPU 0 instructions: 70000002 cycles: 20043304 heartbeat IPC: 3.353 cumulative IPC: 3.343 (Simulation time: 00 hr 02 min 23 sec)
Heartbeat CPU 0 instructions: 80000004 cycles: 23077594 heartbeat IPC: 3.296 cumulative IPC: 3.334 (Simulation time: 00 hr 02 min 45 sec)
Heartbeat CPU 0 instructions: 90000000 cycles: 26148740 heartbeat IPC: 3.256 cumulative IPC: 3.322 (Simulation time: 00 hr 03 min 07 sec)
Heartbeat CPU 0 instructions: 100000004 cycles: 29233005 heartbeat IPC: 3.242 cumulative IPC: 3.311 (Simulation time: 00 hr 03 min 29 sec)
*** Reached end of trace: (0, "../traces/secret_traces/compute_int/compute_int_850.champsimtrace.xz")
Heartbeat CPU 0 instructions: 110000004 cycles: 34981347 heartbeat IPC: 1.74 cumulative IPC: 2.993 (Simulation time: 00 hr 03 min 59 sec)
Heartbeat CPU 0 instructions: 120000003 cycles: 39550052 heartbeat IPC: 2.189 cumulative IPC: 2.881 (Simulation time: 00 hr 04 min 26 sec)
Simulation finished CPU 0 instructions: 100000004 cycles: 34484165 cumulative IPC: 2.9 (Simulation time: 00 hr 04 min 37 sec)
Simulation complete CPU 0 instructions: 100000004 cycles: 34484165 cumulative IPC: 2.9 (Simulation time: 00 hr 04 min 37 sec)

ChampSim completed all CPUs

=== Simulation ===
CPU 0 runs ../traces/secret_traces/compute_int/compute_int_850.champsimtrace.xz
Region of Interest Statistics

CPU 0 cumulative IPC: 2.9 instructions: 100000004 cycles: 34484165
CPU 0 Branch Prediction Accuracy: 99.43% MPKI: 1.5 Average ROB Occupancy at Mispredict: 22.4
Branch type MPKI
BRANCH_DIRECT_JUMP: 0.00455
BRANCH_INDIRECT: 0.755
BRANCH_CONDITIONAL: 0.712
BRANCH_DIRECT_CALL: 0.0124
BRANCH_INDIRECT_CALL: 0.00893
BRANCH_RETURN: 0.00689

LLC TOTAL        ACCESS:     117872 HIT:      59305 MISS:      58567
LLC LOAD         ACCESS:      73141 HIT:      25635 MISS:      47506
LLC RFO          ACCESS:      13234 HIT:       3098 MISS:      10136
LLC PREFETCH     ACCESS:          0 HIT:          0 MISS:          0
LLC WRITE        ACCESS:      30469 HIT:      30443 MISS:         26
LLC TRANSLATION  ACCESS:       1028 HIT:        129 MISS:        899
LLC PREFETCH REQUESTED:          0 ISSUED:          0 USEFUL:          0 USELESS:          0
LLC AVERAGE MISS LATENCY: 220.9 cycles
cpu0_DTLB TOTAL        ACCESS:   23172015 HIT:   23119977 MISS:      52038
cpu0_DTLB LOAD         ACCESS:   23172015 HIT:   23119977 MISS:      52038
cpu0_DTLB RFO          ACCESS:          0 HIT:          0 MISS:          0
cpu0_DTLB PREFETCH     ACCESS:          0 HIT:          0 MISS:          0
cpu0_DTLB WRITE        ACCESS:          0 HIT:          0 MISS:          0
cpu0_DTLB TRANSLATION  ACCESS:          0 HIT:          0 MISS:          0
cpu0_DTLB PREFETCH REQUESTED:          0 ISSUED:          0 USEFUL:          0 USELESS:          0
cpu0_DTLB AVERAGE MISS LATENCY: 11.53 cycles
cpu0_ITLB TOTAL        ACCESS:      65759 HIT:      61518 MISS:       4241
cpu0_ITLB LOAD         ACCESS:      65759 HIT:      61518 MISS:       4241
cpu0_ITLB RFO          ACCESS:          0 HIT:          0 MISS:          0
cpu0_ITLB PREFETCH     ACCESS:          0 HIT:          0 MISS:          0
cpu0_ITLB WRITE        ACCESS:          0 HIT:          0 MISS:          0
cpu0_ITLB TRANSLATION  ACCESS:          0 HIT:          0 MISS:          0
cpu0_ITLB PREFETCH REQUESTED:          0 ISSUED:          0 USEFUL:          0 USELESS:          0
cpu0_ITLB AVERAGE MISS LATENCY: 13.25 cycles
cpu0_L1D TOTAL        ACCESS:   25960163 HIT:   25309959 MISS:     650204
cpu0_L1D LOAD         ACCESS:   13918445 HIT:   13296313 MISS:     622132
cpu0_L1D RFO          ACCESS:          0 HIT:          0 MISS:          0
cpu0_L1D PREFETCH     ACCESS:          0 HIT:          0 MISS:          0
cpu0_L1D WRITE        ACCESS:   12040006 HIT:   12013440 MISS:      26566
cpu0_L1D TRANSLATION  ACCESS:       1712 HIT:        206 MISS:       1506
cpu0_L1D PREFETCH REQUESTED:          0 ISSUED:          0 USEFUL:          0 USELESS:          0
cpu0_L1D AVERAGE MISS LATENCY: 26.49 cycles
cpu0_L1I TOTAL        ACCESS:      73174 HIT:      56016 MISS:      17158
cpu0_L1I LOAD         ACCESS:      73174 HIT:      56016 MISS:      17158
cpu0_L1I RFO          ACCESS:          0 HIT:          0 MISS:          0
cpu0_L1I PREFETCH     ACCESS:          0 HIT:          0 MISS:          0
cpu0_L1I WRITE        ACCESS:          0 HIT:          0 MISS:          0
cpu0_L1I TRANSLATION  ACCESS:          0 HIT:          0 MISS:          0
cpu0_L1I PREFETCH REQUESTED:          0 ISSUED:          0 USEFUL:          0 USELESS:          0
cpu0_L1I AVERAGE MISS LATENCY: 61.68 cycles
cpu0_L2C TOTAL        ACCESS:     525723 HIT:     438289 MISS:      87434
cpu0_L2C LOAD         ACCESS:     462328 HIT:     389187 MISS:      73141
cpu0_L2C RFO          ACCESS:      15368 HIT:       2134 MISS:      13234
cpu0_L2C PREFETCH     ACCESS:          0 HIT:          0 MISS:          0
cpu0_L2C WRITE        ACCESS:      46534 HIT:      46503 MISS:         31
cpu0_L2C TRANSLATION  ACCESS:       1493 HIT:        465 MISS:       1028
cpu0_L2C PREFETCH REQUESTED:          0 ISSUED:          0 USEFUL:          0 USELESS:          0
cpu0_L2C AVERAGE MISS LATENCY: 168.7 cycles
cpu0_STLB TOTAL        ACCESS:      47022 HIT:      45444 MISS:       1578
cpu0_STLB LOAD         ACCESS:      47022 HIT:      45444 MISS:       1578
cpu0_STLB RFO          ACCESS:          0 HIT:          0 MISS:          0
cpu0_STLB PREFETCH     ACCESS:          0 HIT:          0 MISS:          0
cpu0_STLB WRITE        ACCESS:          0 HIT:          0 MISS:          0
cpu0_STLB TRANSLATION  ACCESS:          0 HIT:          0 MISS:          0
cpu0_STLB PREFETCH REQUESTED:          0 ISSUED:          0 USEFUL:          0 USELESS:          0
cpu0_STLB AVERAGE MISS LATENCY: 196.9 cycles

DRAM Statistics

Channel 0 RQ ROW_BUFFER_HIT:      16550
  ROW_BUFFER_MISS:      41991
 AVG DBUS CONGESTED CYCLE: 3.853
WQ ROW_BUFFER_HIT: Channel 0 
  ROW_BUFFER_MISS:       4339
  FULL:      10343
