WARNING: physical memory size is smaller than virtual memory size.

*** ChampSim Multicore Out-of-Order Simulator ***
Warmup Instructions: 25000000
Simulation Instructions: 100000000
Number of CPUs: 1
Page size: 4096

Off-chip DRAM Size: 4 GiB Channels: 1 Width: 64-bit Data Race: 3200 MT/s
Heartbeat CPU 0 instructions: 10000000 cycles: 2556635 heartbeat IPC: 3.911 cumulative IPC: 3.911 (Simulation time: 00 hr 00 min 18 sec)
Heartbeat CPU 0 instructions: 20000003 cycles: 5059900 heartbeat IPC: 3.995 cumulative IPC: 3.953 (Simulation time: 00 hr 00 min 37 sec)
Warmup finished CPU 0 instructions: 25000003 cycles: 6309901 cumulative IPC: 3.962 (Simulation time: 00 hr 00 min 46 sec)
Warmup complete CPU 0 instructions: 25000003 cycles: 6309901 cumulative IPC: 3.962 (Simulation time: 00 hr 00 min 46 sec)
Heartbeat CPU 0 instructions: 30000000 cycles: 8895464 heartbeat IPC: 2.607 cumulative IPC: 1.934 (Simulation time: 00 hr 01 min 00 sec)
Heartbeat CPU 0 instructions: 40000002 cycles: 14909513 heartbeat IPC: 1.663 cumulative IPC: 1.744 (Simulation time: 00 hr 01 min 32 sec)
Heartbeat CPU 0 instructions: 50000001 cycles: 20429487 heartbeat IPC: 1.812 cumulative IPC: 1.771 (Simulation time: 00 hr 02 min 01 sec)
Heartbeat CPU 0 instructions: 60000000 cycles: 24659743 heartbeat IPC: 2.364 cumulative IPC: 1.907 (Simulation time: 00 hr 02 min 27 sec)
Heartbeat CPU 0 instructions: 70000000 cycles: 29497139 heartbeat IPC: 2.067 cumulative IPC: 1.941 (Simulation time: 00 hr 02 min 54 sec)
*** Reached end of trace: (0, "../traces/secret_traces/compute_int/compute_int_168.champsimtrace.xz")
Heartbeat CPU 0 instructions: 80000000 cycles: 34210389 heartbeat IPC: 2.122 cumulative IPC: 1.971 (Simulation time: 00 hr 03 min 21 sec)
Heartbeat CPU 0 instructions: 90000003 cycles: 42510377 heartbeat IPC: 1.205 cumulative IPC: 1.796 (Simulation time: 00 hr 04 min 00 sec)
Heartbeat CPU 0 instructions: 100000003 cycles: 49053428 heartbeat IPC: 1.528 cumulative IPC: 1.755 (Simulation time: 00 hr 04 min 33 sec)
Heartbeat CPU 0 instructions: 110000000 cycles: 54235362 heartbeat IPC: 1.93 cumulative IPC: 1.774 (Simulation time: 00 hr 05 min 01 sec)
Heartbeat CPU 0 instructions: 120000000 cycles: 60257831 heartbeat IPC: 1.66 cumulative IPC: 1.761 (Simulation time: 00 hr 05 min 33 sec)
Simulation finished CPU 0 instructions: 100000000 cycles: 56708747 cumulative IPC: 1.763 (Simulation time: 00 hr 05 min 47 sec)
Simulation complete CPU 0 instructions: 100000000 cycles: 56708747 cumulative IPC: 1.763 (Simulation time: 00 hr 05 min 47 sec)

ChampSim completed all CPUs

=== Simulation ===
CPU 0 runs ../traces/secret_traces/compute_int/compute_int_168.champsimtrace.xz
Region of Interest Statistics

CPU 0 cumulative IPC: 1.763 instructions: 100000000 cycles: 56708747
CPU 0 Branch Prediction Accuracy: 92% MPKI: 12.52 Average ROB Occupancy at Mispredict: 32.05
Branch type MPKI
BRANCH_DIRECT_JUMP: 0.00592
BRANCH_INDIRECT: 0.223
BRANCH_CONDITIONAL: 12.3
BRANCH_DIRECT_CALL: 0.016
BRANCH_INDIRECT_CALL: 0.00616
BRANCH_RETURN: 0.00922

LLC TOTAL        ACCESS:     470928 HIT:     270753 MISS:     200175
LLC LOAD         ACCESS:     241780 HIT:     121432 MISS:     120348
LLC RFO          ACCESS:     111019 HIT:      35656 MISS:      75363
LLC PREFETCH     ACCESS:          0 HIT:          0 MISS:          0
LLC WRITE        ACCESS:     117207 HIT:     113542 MISS:       3665
LLC TRANSLATION  ACCESS:        922 HIT:        123 MISS:        799
LLC PREFETCH REQUESTED:          0 ISSUED:          0 USEFUL:          0 USELESS:          0
LLC AVERAGE MISS LATENCY: 415.6 cycles
cpu0_DTLB TOTAL        ACCESS:   18045963 HIT:   17822703 MISS:     223260
cpu0_DTLB LOAD         ACCESS:   18045963 HIT:   17822703 MISS:     223260
cpu0_DTLB RFO          ACCESS:          0 HIT:          0 MISS:          0
cpu0_DTLB PREFETCH     ACCESS:          0 HIT:          0 MISS:          0
cpu0_DTLB WRITE        ACCESS:          0 HIT:          0 MISS:          0
cpu0_DTLB TRANSLATION  ACCESS:          0 HIT:          0 MISS:          0
cpu0_DTLB PREFETCH REQUESTED:          0 ISSUED:          0 USEFUL:          0 USELESS:          0
cpu0_DTLB AVERAGE MISS LATENCY: 7.277 cycles
cpu0_ITLB TOTAL        ACCESS:      51131 HIT:      47409 MISS:       3722
cpu0_ITLB LOAD         ACCESS:      51131 HIT:      47409 MISS:       3722
cpu0_ITLB RFO          ACCESS:          0 HIT:          0 MISS:          0
cpu0_ITLB PREFETCH     ACCESS:          0 HIT:          0 MISS:          0
cpu0_ITLB WRITE        ACCESS:          0 HIT:          0 MISS:          0
cpu0_ITLB TRANSLATION  ACCESS:          0 HIT:          0 MISS:          0
cpu0_ITLB PREFETCH REQUESTED:          0 ISSUED:          0 USEFUL:          0 USELESS:          0
cpu0_ITLB AVERAGE MISS LATENCY: 19.38 cycles
cpu0_L1D TOTAL        ACCESS:   21451387 HIT:   18492050 MISS:    2959337
cpu0_L1D LOAD         ACCESS:   14356344 HIT:   12541442 MISS:    1814902
cpu0_L1D RFO          ACCESS:          0 HIT:          0 MISS:          0
cpu0_L1D PREFETCH     ACCESS:          0 HIT:          0 MISS:          0
cpu0_L1D WRITE        ACCESS:    7091311 HIT:    5948570 MISS:    1142741
cpu0_L1D TRANSLATION  ACCESS:       3732 HIT:       2038 MISS:       1694
cpu0_L1D PREFETCH REQUESTED:          0 ISSUED:          0 USEFUL:          0 USELESS:          0
cpu0_L1D AVERAGE MISS LATENCY: 34.79 cycles
cpu0_L1I TOTAL        ACCESS:      57046 HIT:      38902 MISS:      18144
cpu0_L1I LOAD         ACCESS:      57046 HIT:      38902 MISS:      18144
cpu0_L1I RFO          ACCESS:          0 HIT:          0 MISS:          0
cpu0_L1I PREFETCH     ACCESS:          0 HIT:          0 MISS:          0
cpu0_L1I WRITE        ACCESS:          0 HIT:          0 MISS:          0
cpu0_L1I TRANSLATION  ACCESS:          0 HIT:          0 MISS:          0
cpu0_L1I PREFETCH REQUESTED:          0 ISSUED:          0 USEFUL:          0 USELESS:          0
cpu0_L1I AVERAGE MISS LATENCY: 84.99 cycles
cpu0_L2C TOTAL        ACCESS:    3509393 HIT:    3155654 MISS:     353739
cpu0_L2C LOAD         ACCESS:    1200453 HIT:     958673 MISS:     241780
cpu0_L2C RFO          ACCESS:     732815 HIT:     621796 MISS:     111019
cpu0_L2C PREFETCH     ACCESS:          0 HIT:          0 MISS:          0
cpu0_L2C WRITE        ACCESS:    1574436 HIT:    1574418 MISS:         18
cpu0_L2C TRANSLATION  ACCESS:       1689 HIT:        767 MISS:        922
cpu0_L2C PREFETCH REQUESTED:          0 ISSUED:          0 USEFUL:          0 USELESS:          0
cpu0_L2C AVERAGE MISS LATENCY: 255.8 cycles
cpu0_STLB TOTAL        ACCESS:     172245 HIT:     168639 MISS:       3606
cpu0_STLB LOAD         ACCESS:     172245 HIT:     168639 MISS:       3606
cpu0_STLB RFO          ACCESS:          0 HIT:          0 MISS:          0
cpu0_STLB PREFETCH     ACCESS:          0 HIT:          0 MISS:          0
cpu0_STLB WRITE        ACCESS:          0 HIT:          0 MISS:          0
cpu0_STLB TRANSLATION  ACCESS:          0 HIT:          0 MISS:          0
cpu0_STLB PREFETCH REQUESTED:          0 ISSUED:          0 USEFUL:          0 USELESS:          0
cpu0_STLB AVERAGE MISS LATENCY: 185.7 cycles

DRAM Statistics

Channel 0 RQ ROW_BUFFER_HIT:     112603
  ROW_BUFFER_MISS:      83880
 AVG DBUS CONGESTED CYCLE: 3.986
WQ ROW_BUFFER_HIT: Channel 0 
  ROW_BUFFER_MISS:      14669
  FULL:      71860
