WARNING: physical memory size is smaller than virtual memory size.

*** ChampSim Multicore Out-of-Order Simulator ***
Warmup Instructions: 25000000
Simulation Instructions: 100000000
Number of CPUs: 1
Page size: 4096

Off-chip DRAM Size: 4 GiB Channels: 1 Width: 64-bit Data Race: 3200 MT/s
Heartbeat CPU 0 instructions: 10000001 cycles: 2552990 heartbeat IPC: 3.917 cumulative IPC: 3.917 (Simulation time: 00 hr 00 min 18 sec)
Heartbeat CPU 0 instructions: 20000001 cycles: 5052990 heartbeat IPC: 4 cumulative IPC: 3.958 (Simulation time: 00 hr 00 min 36 sec)
Warmup finished CPU 0 instructions: 25000003 cycles: 6303164 cumulative IPC: 3.966 (Simulation time: 00 hr 00 min 45 sec)
Warmup complete CPU 0 instructions: 25000003 cycles: 6303164 cumulative IPC: 3.966 (Simulation time: 00 hr 00 min 45 sec)
Heartbeat CPU 0 instructions: 30000000 cycles: 9662534 heartbeat IPC: 2.169 cumulative IPC: 1.488 (Simulation time: 00 hr 01 min 01 sec)
Heartbeat CPU 0 instructions: 40000001 cycles: 16082243 heartbeat IPC: 1.558 cumulative IPC: 1.534 (Simulation time: 00 hr 01 min 33 sec)
*** Reached end of trace: (0, "../traces/secret_traces/compute_int/compute_int_293.champsimtrace.xz")
Heartbeat CPU 0 instructions: 50000001 cycles: 21332112 heartbeat IPC: 1.905 cumulative IPC: 1.663 (Simulation time: 00 hr 02 min 02 sec)
Heartbeat CPU 0 instructions: 60000001 cycles: 28910311 heartbeat IPC: 1.32 cumulative IPC: 1.548 (Simulation time: 00 hr 02 min 40 sec)
Heartbeat CPU 0 instructions: 70000002 cycles: 37487364 heartbeat IPC: 1.166 cumulative IPC: 1.443 (Simulation time: 00 hr 03 min 25 sec)
Heartbeat CPU 0 instructions: 80000000 cycles: 44452947 heartbeat IPC: 1.436 cumulative IPC: 1.442 (Simulation time: 00 hr 03 min 58 sec)
Heartbeat CPU 0 instructions: 90000000 cycles: 50104631 heartbeat IPC: 1.769 cumulative IPC: 1.484 (Simulation time: 00 hr 04 min 28 sec)
*** Reached end of trace: (0, "../traces/secret_traces/compute_int/compute_int_293.champsimtrace.xz")
Heartbeat CPU 0 instructions: 100000000 cycles: 56235754 heartbeat IPC: 1.631 cumulative IPC: 1.502 (Simulation time: 00 hr 04 min 59 sec)
Heartbeat CPU 0 instructions: 110000004 cycles: 63920341 heartbeat IPC: 1.301 cumulative IPC: 1.475 (Simulation time: 00 hr 05 min 41 sec)
Heartbeat CPU 0 instructions: 120000002 cycles: 72258691 heartbeat IPC: 1.199 cumulative IPC: 1.44 (Simulation time: 00 hr 06 min 23 sec)
Simulation finished CPU 0 instructions: 100000000 cycles: 69421231 cumulative IPC: 1.44 (Simulation time: 00 hr 06 min 39 sec)
Simulation complete CPU 0 instructions: 100000000 cycles: 69421231 cumulative IPC: 1.44 (Simulation time: 00 hr 06 min 39 sec)

ChampSim completed all CPUs

=== Simulation ===
CPU 0 runs ../traces/secret_traces/compute_int/compute_int_293.champsimtrace.xz
Region of Interest Statistics

CPU 0 cumulative IPC: 1.44 instructions: 100000000 cycles: 69421231
CPU 0 Branch Prediction Accuracy: 90.75% MPKI: 18.13 Average ROB Occupancy at Mispredict: 14.82
Branch type MPKI
BRANCH_DIRECT_JUMP: 1e-05
BRANCH_INDIRECT: 1.38
BRANCH_CONDITIONAL: 16.7
BRANCH_DIRECT_CALL: 1e-05
BRANCH_INDIRECT_CALL: 0.00105
BRANCH_RETURN: 4e-05

LLC TOTAL        ACCESS:     773716 HIT:     431826 MISS:     341890
LLC LOAD         ACCESS:     413107 HIT:     196616 MISS:     216491
LLC RFO          ACCESS:     150502 HIT:      25468 MISS:     125034
LLC PREFETCH     ACCESS:          0 HIT:          0 MISS:          0
LLC WRITE        ACCESS:     210061 HIT:     209731 MISS:        330
LLC TRANSLATION  ACCESS:         46 HIT:         11 MISS:         35
LLC PREFETCH REQUESTED:          0 ISSUED:          0 USEFUL:          0 USELESS:          0
LLC AVERAGE MISS LATENCY: 415.2 cycles
cpu0_DTLB TOTAL        ACCESS:   21915710 HIT:   21242182 MISS:     673528
cpu0_DTLB LOAD         ACCESS:   21915710 HIT:   21242182 MISS:     673528
cpu0_DTLB RFO          ACCESS:          0 HIT:          0 MISS:          0
cpu0_DTLB PREFETCH     ACCESS:          0 HIT:          0 MISS:          0
cpu0_DTLB WRITE        ACCESS:          0 HIT:          0 MISS:          0
cpu0_DTLB TRANSLATION  ACCESS:          0 HIT:          0 MISS:          0
cpu0_DTLB PREFETCH REQUESTED:          0 ISSUED:          0 USEFUL:          0 USELESS:          0
cpu0_DTLB AVERAGE MISS LATENCY: 7.773 cycles
cpu0_ITLB TOTAL        ACCESS:      25821 HIT:      24990 MISS:        831
cpu0_ITLB LOAD         ACCESS:      25821 HIT:      24990 MISS:        831
cpu0_ITLB RFO          ACCESS:          0 HIT:          0 MISS:          0
cpu0_ITLB PREFETCH     ACCESS:          0 HIT:          0 MISS:          0
cpu0_ITLB WRITE        ACCESS:          0 HIT:          0 MISS:          0
cpu0_ITLB TRANSLATION  ACCESS:          0 HIT:          0 MISS:          0
cpu0_ITLB PREFETCH REQUESTED:          0 ISSUED:          0 USEFUL:          0 USELESS:          0
cpu0_ITLB AVERAGE MISS LATENCY: 4.934 cycles
cpu0_L1D TOTAL        ACCESS:   24616546 HIT:   20843607 MISS:    3772939
cpu0_L1D LOAD         ACCESS:   14563962 HIT:   12532540 MISS:    2031422
cpu0_L1D RFO          ACCESS:          0 HIT:          0 MISS:          0
cpu0_L1D PREFETCH     ACCESS:          0 HIT:          0 MISS:          0
cpu0_L1D WRITE        ACCESS:   10052366 HIT:    8310979 MISS:    1741387
cpu0_L1D TRANSLATION  ACCESS:        218 HIT:         88 MISS:        130
cpu0_L1D PREFETCH REQUESTED:          0 ISSUED:          0 USEFUL:          0 USELESS:          0
cpu0_L1D AVERAGE MISS LATENCY: 39.59 cycles
cpu0_L1I TOTAL        ACCESS:      29128 HIT:      24917 MISS:       4211
cpu0_L1I LOAD         ACCESS:      29128 HIT:      24917 MISS:       4211
cpu0_L1I RFO          ACCESS:          0 HIT:          0 MISS:          0
cpu0_L1I PREFETCH     ACCESS:          0 HIT:          0 MISS:          0
cpu0_L1I WRITE        ACCESS:          0 HIT:          0 MISS:          0
cpu0_L1I TRANSLATION  ACCESS:          0 HIT:          0 MISS:          0
cpu0_L1I PREFETCH REQUESTED:          0 ISSUED:          0 USEFUL:          0 USELESS:          0
cpu0_L1I AVERAGE MISS LATENCY: 134.6 cycles
cpu0_L2C TOTAL        ACCESS:    1327628 HIT:     763863 MISS:     563765
cpu0_L2C LOAD         ACCESS:     934566 HIT:     521459 MISS:     413107
cpu0_L2C RFO          ACCESS:     159757 HIT:       9255 MISS:     150502
cpu0_L2C PREFETCH     ACCESS:          0 HIT:          0 MISS:          0
cpu0_L2C WRITE        ACCESS:     233175 HIT:     233065 MISS:        110
cpu0_L2C TRANSLATION  ACCESS:        130 HIT:         84 MISS:         46
cpu0_L2C PREFETCH REQUESTED:          0 ISSUED:          0 USEFUL:          0 USELESS:          0
cpu0_L2C AVERAGE MISS LATENCY: 272.4 cycles
cpu0_STLB TOTAL        ACCESS:     657139 HIT:     656924 MISS:        215
cpu0_STLB LOAD         ACCESS:     657139 HIT:     656924 MISS:        215
cpu0_STLB RFO          ACCESS:          0 HIT:          0 MISS:          0
cpu0_STLB PREFETCH     ACCESS:          0 HIT:          0 MISS:          0
cpu0_STLB WRITE        ACCESS:          0 HIT:          0 MISS:          0
cpu0_STLB TRANSLATION  ACCESS:          0 HIT:          0 MISS:          0
cpu0_STLB PREFETCH REQUESTED:          0 ISSUED:          0 USEFUL:          0 USELESS:          0
cpu0_STLB AVERAGE MISS LATENCY: 229.6 cycles

DRAM Statistics

Channel 0 RQ ROW_BUFFER_HIT:      57222
  ROW_BUFFER_MISS:     284024
 AVG DBUS CONGESTED CYCLE: 3.955
WQ ROW_BUFFER_HIT: Channel 0 
  ROW_BUFFER_MISS:      34584
  FULL:     138423
