WARNING: physical memory size is smaller than virtual memory size.

*** ChampSim Multicore Out-of-Order Simulator ***
Warmup Instructions: 25000000
Simulation Instructions: 100000000
Number of CPUs: 1
Page size: 4096

Off-chip DRAM Size: 4 GiB Channels: 1 Width: 64-bit Data Race: 3200 MT/s
Heartbeat CPU 0 instructions: 10000003 cycles: 2529429 heartbeat IPC: 3.953 cumulative IPC: 3.953 (Simulation time: 00 hr 00 min 18 sec)
Heartbeat CPU 0 instructions: 20000003 cycles: 5029429 heartbeat IPC: 4 cumulative IPC: 3.977 (Simulation time: 00 hr 00 min 36 sec)
Warmup finished CPU 0 instructions: 25000003 cycles: 6279430 cumulative IPC: 3.981 (Simulation time: 00 hr 00 min 45 sec)
Warmup complete CPU 0 instructions: 25000003 cycles: 6279430 cumulative IPC: 3.981 (Simulation time: 00 hr 00 min 45 sec)
Heartbeat CPU 0 instructions: 30000003 cycles: 9735896 heartbeat IPC: 2.125 cumulative IPC: 1.447 (Simulation time: 00 hr 01 min 02 sec)
Heartbeat CPU 0 instructions: 40000002 cycles: 16281759 heartbeat IPC: 1.528 cumulative IPC: 1.5 (Simulation time: 00 hr 01 min 34 sec)
Heartbeat CPU 0 instructions: 50000000 cycles: 22775850 heartbeat IPC: 1.54 cumulative IPC: 1.515 (Simulation time: 00 hr 02 min 05 sec)
Heartbeat CPU 0 instructions: 60000000 cycles: 29054734 heartbeat IPC: 1.593 cumulative IPC: 1.537 (Simulation time: 00 hr 02 min 37 sec)
Heartbeat CPU 0 instructions: 70000000 cycles: 35618855 heartbeat IPC: 1.523 cumulative IPC: 1.534 (Simulation time: 00 hr 03 min 08 sec)
*** Reached end of trace: (0, "../traces/secret_traces/compute_int/compute_int_900.champsimtrace.xz")
Heartbeat CPU 0 instructions: 80000001 cycles: 42467964 heartbeat IPC: 1.46 cumulative IPC: 1.52 (Simulation time: 00 hr 03 min 41 sec)
Heartbeat CPU 0 instructions: 90000001 cycles: 50848832 heartbeat IPC: 1.193 cumulative IPC: 1.458 (Simulation time: 00 hr 04 min 20 sec)
Heartbeat CPU 0 instructions: 100000002 cycles: 57301019 heartbeat IPC: 1.55 cumulative IPC: 1.47 (Simulation time: 00 hr 04 min 52 sec)
Heartbeat CPU 0 instructions: 110000000 cycles: 64179368 heartbeat IPC: 1.454 cumulative IPC: 1.468 (Simulation time: 00 hr 05 min 25 sec)
Heartbeat CPU 0 instructions: 120000001 cycles: 70671802 heartbeat IPC: 1.54 cumulative IPC: 1.475 (Simulation time: 00 hr 05 min 57 sec)
Simulation finished CPU 0 instructions: 100000001 cycles: 67672055 cumulative IPC: 1.478 (Simulation time: 00 hr 06 min 13 sec)
Simulation complete CPU 0 instructions: 100000001 cycles: 67672055 cumulative IPC: 1.478 (Simulation time: 00 hr 06 min 13 sec)

ChampSim completed all CPUs

=== Simulation ===
CPU 0 runs ../traces/secret_traces/compute_int/compute_int_900.champsimtrace.xz
Region of Interest Statistics

CPU 0 cumulative IPC: 1.478 instructions: 100000001 cycles: 67672055
CPU 0 Branch Prediction Accuracy: 90.15% MPKI: 17.27 Average ROB Occupancy at Mispredict: 22.27
Branch type MPKI
BRANCH_DIRECT_JUMP: 0.00578
BRANCH_INDIRECT: 0.62
BRANCH_CONDITIONAL: 16.6
BRANCH_DIRECT_CALL: 0.016
BRANCH_INDIRECT_CALL: 0.00634
BRANCH_RETURN: 0.00918

LLC TOTAL        ACCESS:     269558 HIT:      90200 MISS:     179358
LLC LOAD         ACCESS:     120316 HIT:       7449 MISS:     112867
LLC RFO          ACCESS:      72814 HIT:       8658 MISS:      64156
LLC PREFETCH     ACCESS:          0 HIT:          0 MISS:          0
LLC WRITE        ACCESS:      75539 HIT:      73962 MISS:       1577
LLC TRANSLATION  ACCESS:        889 HIT:        131 MISS:        758
LLC PREFETCH REQUESTED:          0 ISSUED:          0 USEFUL:          0 USELESS:          0
LLC AVERAGE MISS LATENCY: 185.7 cycles
cpu0_DTLB TOTAL        ACCESS:   18279365 HIT:   18257975 MISS:      21390
cpu0_DTLB LOAD         ACCESS:   18279365 HIT:   18257975 MISS:      21390
cpu0_DTLB RFO          ACCESS:          0 HIT:          0 MISS:          0
cpu0_DTLB PREFETCH     ACCESS:          0 HIT:          0 MISS:          0
cpu0_DTLB WRITE        ACCESS:          0 HIT:          0 MISS:          0
cpu0_DTLB TRANSLATION  ACCESS:          0 HIT:          0 MISS:          0
cpu0_DTLB PREFETCH REQUESTED:          0 ISSUED:          0 USEFUL:          0 USELESS:          0
cpu0_DTLB AVERAGE MISS LATENCY: 17.28 cycles
cpu0_ITLB TOTAL        ACCESS:      49522 HIT:      45802 MISS:       3720
cpu0_ITLB LOAD         ACCESS:      49522 HIT:      45802 MISS:       3720
cpu0_ITLB RFO          ACCESS:          0 HIT:          0 MISS:          0
cpu0_ITLB PREFETCH     ACCESS:          0 HIT:          0 MISS:          0
cpu0_ITLB WRITE        ACCESS:          0 HIT:          0 MISS:          0
cpu0_ITLB TRANSLATION  ACCESS:          0 HIT:          0 MISS:          0
cpu0_ITLB PREFETCH REQUESTED:          0 ISSUED:          0 USEFUL:          0 USELESS:          0
cpu0_ITLB AVERAGE MISS LATENCY: 18.41 cycles
cpu0_L1D TOTAL        ACCESS:   22768042 HIT:   20698239 MISS:    2069803
cpu0_L1D LOAD         ACCESS:   15910669 HIT:   14661460 MISS:    1249209
cpu0_L1D RFO          ACCESS:          0 HIT:          0 MISS:          0
cpu0_L1D PREFETCH     ACCESS:          0 HIT:          0 MISS:          0
cpu0_L1D WRITE        ACCESS:    6853744 HIT:    6035282 MISS:     818462
cpu0_L1D TRANSLATION  ACCESS:       3629 HIT:       1497 MISS:       2132
cpu0_L1D PREFETCH REQUESTED:          0 ISSUED:          0 USEFUL:          0 USELESS:          0
cpu0_L1D AVERAGE MISS LATENCY: 18.77 cycles
cpu0_L1I TOTAL        ACCESS:      55386 HIT:      37940 MISS:      17446
cpu0_L1I LOAD         ACCESS:      55386 HIT:      37940 MISS:      17446
cpu0_L1I RFO          ACCESS:          0 HIT:          0 MISS:          0
cpu0_L1I PREFETCH     ACCESS:          0 HIT:          0 MISS:          0
cpu0_L1I WRITE        ACCESS:          0 HIT:          0 MISS:          0
cpu0_L1I TRANSLATION  ACCESS:          0 HIT:          0 MISS:          0
cpu0_L1I PREFETCH REQUESTED:          0 ISSUED:          0 USEFUL:          0 USELESS:          0
cpu0_L1I AVERAGE MISS LATENCY: 82 cycles
cpu0_L2C TOTAL        ACCESS:    1687267 HIT:    1492687 MISS:     194580
cpu0_L2C LOAD         ACCESS:     529698 HIT:     409382 MISS:     120316
cpu0_L2C RFO          ACCESS:     383670 HIT:     310856 MISS:      72814
cpu0_L2C PREFETCH     ACCESS:          0 HIT:          0 MISS:          0
cpu0_L2C WRITE        ACCESS:     771770 HIT:     771209 MISS:        561
cpu0_L2C TRANSLATION  ACCESS:       2129 HIT:       1240 MISS:        889
cpu0_L2C PREFETCH REQUESTED:          0 ISSUED:          0 USEFUL:          0 USELESS:          0
cpu0_L2C AVERAGE MISS LATENCY: 192.1 cycles
cpu0_STLB TOTAL        ACCESS:       8207 HIT:       4697 MISS:       3510
cpu0_STLB LOAD         ACCESS:       8207 HIT:       4697 MISS:       3510
cpu0_STLB RFO          ACCESS:          0 HIT:          0 MISS:          0
cpu0_STLB PREFETCH     ACCESS:          0 HIT:          0 MISS:          0
cpu0_STLB WRITE        ACCESS:          0 HIT:          0 MISS:          0
cpu0_STLB TRANSLATION  ACCESS:          0 HIT:          0 MISS:          0
cpu0_STLB PREFETCH REQUESTED:          0 ISSUED:          0 USEFUL:          0 USELESS:          0
cpu0_STLB AVERAGE MISS LATENCY: 140 cycles

DRAM Statistics

Channel 0 RQ ROW_BUFFER_HIT:      96666
  ROW_BUFFER_MISS:      81108
 AVG DBUS CONGESTED CYCLE: 3.955
WQ ROW_BUFFER_HIT: Channel 0 
  ROW_BUFFER_MISS:       7966
  FULL:      63706
