WARNING: physical memory size is smaller than virtual memory size.

*** ChampSim Multicore Out-of-Order Simulator ***
Warmup Instructions: 25000000
Simulation Instructions: 100000000
Number of CPUs: 1
Page size: 4096

Off-chip DRAM Size: 4 GiB Channels: 1 Width: 64-bit Data Race: 3200 MT/s
Heartbeat CPU 0 instructions: 10000001 cycles: 2529178 heartbeat IPC: 3.954 cumulative IPC: 3.954 (Simulation time: 00 hr 00 min 19 sec)
Heartbeat CPU 0 instructions: 20000001 cycles: 5029178 heartbeat IPC: 4 cumulative IPC: 3.977 (Simulation time: 00 hr 00 min 37 sec)
Warmup finished CPU 0 instructions: 25000001 cycles: 6279179 cumulative IPC: 3.981 (Simulation time: 00 hr 00 min 46 sec)
Warmup complete CPU 0 instructions: 25000001 cycles: 6279179 cumulative IPC: 3.981 (Simulation time: 00 hr 00 min 46 sec)
Heartbeat CPU 0 instructions: 30000000 cycles: 9757185 heartbeat IPC: 2.115 cumulative IPC: 1.438 (Simulation time: 00 hr 01 min 04 sec)
Heartbeat CPU 0 instructions: 40000000 cycles: 15209808 heartbeat IPC: 1.834 cumulative IPC: 1.68 (Simulation time: 00 hr 01 min 33 sec)
Heartbeat CPU 0 instructions: 50000003 cycles: 20697437 heartbeat IPC: 1.822 cumulative IPC: 1.734 (Simulation time: 00 hr 02 min 02 sec)
Heartbeat CPU 0 instructions: 60000000 cycles: 26003580 heartbeat IPC: 1.885 cumulative IPC: 1.774 (Simulation time: 00 hr 02 min 31 sec)
Heartbeat CPU 0 instructions: 70000000 cycles: 31408367 heartbeat IPC: 1.85 cumulative IPC: 1.791 (Simulation time: 00 hr 03 min 00 sec)
*** Reached end of trace: (0, "../traces/secret_traces/compute_int/compute_int_451.champsimtrace.xz")
Heartbeat CPU 0 instructions: 80000001 cycles: 36364928 heartbeat IPC: 2.018 cumulative IPC: 1.828 (Simulation time: 00 hr 03 min 28 sec)
Heartbeat CPU 0 instructions: 90000001 cycles: 45413362 heartbeat IPC: 1.105 cumulative IPC: 1.661 (Simulation time: 00 hr 04 min 09 sec)
Heartbeat CPU 0 instructions: 100000002 cycles: 51788403 heartbeat IPC: 1.569 cumulative IPC: 1.648 (Simulation time: 00 hr 04 min 40 sec)
Heartbeat CPU 0 instructions: 110000000 cycles: 58267523 heartbeat IPC: 1.543 cumulative IPC: 1.635 (Simulation time: 00 hr 05 min 13 sec)
Heartbeat CPU 0 instructions: 120000004 cycles: 63724806 heartbeat IPC: 1.832 cumulative IPC: 1.654 (Simulation time: 00 hr 05 min 42 sec)
Simulation finished CPU 0 instructions: 100000002 cycles: 59997414 cumulative IPC: 1.667 (Simulation time: 00 hr 05 min 56 sec)
Simulation complete CPU 0 instructions: 100000002 cycles: 59997414 cumulative IPC: 1.667 (Simulation time: 00 hr 05 min 56 sec)

ChampSim completed all CPUs

=== Simulation ===
CPU 0 runs ../traces/secret_traces/compute_int/compute_int_451.champsimtrace.xz
Region of Interest Statistics

CPU 0 cumulative IPC: 1.667 instructions: 100000002 cycles: 59997414
CPU 0 Branch Prediction Accuracy: 90.55% MPKI: 16.62 Average ROB Occupancy at Mispredict: 21.86
Branch type MPKI
BRANCH_DIRECT_JUMP: 0.00575
BRANCH_INDIRECT: 0.62
BRANCH_CONDITIONAL: 16
BRANCH_DIRECT_CALL: 0.0158
BRANCH_INDIRECT_CALL: 0.006
BRANCH_RETURN: 0.00918

LLC TOTAL        ACCESS:     387019 HIT:     205527 MISS:     181492
LLC LOAD         ACCESS:     229063 HIT:     114360 MISS:     114703
LLC RFO          ACCESS:      75995 HIT:      12754 MISS:      63241
LLC PREFETCH     ACCESS:          0 HIT:          0 MISS:          0
LLC WRITE        ACCESS:      81062 HIT:      78310 MISS:       2752
LLC TRANSLATION  ACCESS:        899 HIT:        103 MISS:        796
LLC PREFETCH REQUESTED:          0 ISSUED:          0 USEFUL:          0 USELESS:          0
LLC AVERAGE MISS LATENCY: 409.8 cycles
cpu0_DTLB TOTAL        ACCESS:   18214639 HIT:   18175808 MISS:      38831
cpu0_DTLB LOAD         ACCESS:   18214639 HIT:   18175808 MISS:      38831
cpu0_DTLB RFO          ACCESS:          0 HIT:          0 MISS:          0
cpu0_DTLB PREFETCH     ACCESS:          0 HIT:          0 MISS:          0
cpu0_DTLB WRITE        ACCESS:          0 HIT:          0 MISS:          0
cpu0_DTLB TRANSLATION  ACCESS:          0 HIT:          0 MISS:          0
cpu0_DTLB PREFETCH REQUESTED:          0 ISSUED:          0 USEFUL:          0 USELESS:          0
cpu0_DTLB AVERAGE MISS LATENCY: 9.512 cycles
cpu0_ITLB TOTAL        ACCESS:      49687 HIT:      45944 MISS:       3743
cpu0_ITLB LOAD         ACCESS:      49687 HIT:      45944 MISS:       3743
cpu0_ITLB RFO          ACCESS:          0 HIT:          0 MISS:          0
cpu0_ITLB PREFETCH     ACCESS:          0 HIT:          0 MISS:          0
cpu0_ITLB WRITE        ACCESS:          0 HIT:          0 MISS:          0
cpu0_ITLB TRANSLATION  ACCESS:          0 HIT:          0 MISS:          0
cpu0_ITLB PREFETCH REQUESTED:          0 ISSUED:          0 USEFUL:          0 USELESS:          0
cpu0_ITLB AVERAGE MISS LATENCY: 20.43 cycles
cpu0_L1D TOTAL        ACCESS:   22649390 HIT:   20586879 MISS:    2062511
cpu0_L1D LOAD         ACCESS:   16048058 HIT:   14780971 MISS:    1267087
cpu0_L1D RFO          ACCESS:          0 HIT:          0 MISS:          0
cpu0_L1D PREFETCH     ACCESS:          0 HIT:          0 MISS:          0
cpu0_L1D WRITE        ACCESS:    6597703 HIT:    5803698 MISS:     794005
cpu0_L1D TRANSLATION  ACCESS:       3629 HIT:       2210 MISS:       1419
cpu0_L1D PREFETCH REQUESTED:          0 ISSUED:          0 USEFUL:          0 USELESS:          0
cpu0_L1D AVERAGE MISS LATENCY: 40.35 cycles
cpu0_L1I TOTAL        ACCESS:      55568 HIT:      37946 MISS:      17622
cpu0_L1I LOAD         ACCESS:      55568 HIT:      37946 MISS:      17622
cpu0_L1I RFO          ACCESS:          0 HIT:          0 MISS:          0
cpu0_L1I PREFETCH     ACCESS:          0 HIT:          0 MISS:          0
cpu0_L1I WRITE        ACCESS:          0 HIT:          0 MISS:          0
cpu0_L1I TRANSLATION  ACCESS:          0 HIT:          0 MISS:          0
cpu0_L1I PREFETCH REQUESTED:          0 ISSUED:          0 USEFUL:          0 USELESS:          0
cpu0_L1I AVERAGE MISS LATENCY: 81.76 cycles
cpu0_L2C TOTAL        ACCESS:    1741942 HIT:    1435415 MISS:     306527
cpu0_L2C LOAD         ACCESS:     722592 HIT:     493529 MISS:     229063
cpu0_L2C RFO          ACCESS:     309247 HIT:     233252 MISS:      75995
cpu0_L2C PREFETCH     ACCESS:          0 HIT:          0 MISS:          0
cpu0_L2C WRITE        ACCESS:     708687 HIT:     708117 MISS:        570
cpu0_L2C TRANSLATION  ACCESS:       1416 HIT:        517 MISS:        899
cpu0_L2C PREFETCH REQUESTED:          0 ISSUED:          0 USEFUL:          0 USELESS:          0
cpu0_L2C AVERAGE MISS LATENCY: 263.2 cycles
cpu0_STLB TOTAL        ACCESS:      10649 HIT:       7144 MISS:       3505
cpu0_STLB LOAD         ACCESS:      10649 HIT:       7144 MISS:       3505
cpu0_STLB RFO          ACCESS:          0 HIT:          0 MISS:          0
cpu0_STLB PREFETCH     ACCESS:          0 HIT:          0 MISS:          0
cpu0_STLB WRITE        ACCESS:          0 HIT:          0 MISS:          0
cpu0_STLB TRANSLATION  ACCESS:          0 HIT:          0 MISS:          0
cpu0_STLB PREFETCH REQUESTED:          0 ISSUED:          0 USEFUL:          0 USELESS:          0
cpu0_STLB AVERAGE MISS LATENCY: 183.5 cycles

DRAM Statistics

Channel 0 RQ ROW_BUFFER_HIT:     107106
  ROW_BUFFER_MISS:      71633
 AVG DBUS CONGESTED CYCLE: 3.989
WQ ROW_BUFFER_HIT: Channel 0 
  ROW_BUFFER_MISS:      11783
  FULL:      63838
