WARNING: physical memory size is smaller than virtual memory size.

*** ChampSim Multicore Out-of-Order Simulator ***
Warmup Instructions: 25000000
Simulation Instructions: 100000000
Number of CPUs: 1
Page size: 4096

Off-chip DRAM Size: 4 GiB Channels: 1 Width: 64-bit Data Race: 3200 MT/s
Heartbeat CPU 0 instructions: 10000002 cycles: 2535543 heartbeat IPC: 3.944 cumulative IPC: 3.944 (Simulation time: 00 hr 00 min 18 sec)
Heartbeat CPU 0 instructions: 20000002 cycles: 5037551 heartbeat IPC: 3.997 cumulative IPC: 3.97 (Simulation time: 00 hr 00 min 36 sec)
Warmup finished CPU 0 instructions: 25000003 cycles: 6288511 cumulative IPC: 3.976 (Simulation time: 00 hr 00 min 45 sec)
Warmup complete CPU 0 instructions: 25000003 cycles: 6288511 cumulative IPC: 3.976 (Simulation time: 00 hr 00 min 45 sec)
Heartbeat CPU 0 instructions: 30000001 cycles: 10287070 heartbeat IPC: 1.905 cumulative IPC: 1.25 (Simulation time: 00 hr 01 min 02 sec)
Heartbeat CPU 0 instructions: 40000003 cycles: 17479530 heartbeat IPC: 1.39 cumulative IPC: 1.34 (Simulation time: 00 hr 01 min 36 sec)
Heartbeat CPU 0 instructions: 50000003 cycles: 23094662 heartbeat IPC: 1.781 cumulative IPC: 1.488 (Simulation time: 00 hr 02 min 05 sec)
*** Reached end of trace: (0, "../traces/secret_traces/compute_int/compute_int_532.champsimtrace.xz")
Heartbeat CPU 0 instructions: 60000000 cycles: 33359894 heartbeat IPC: 0.9742 cumulative IPC: 1.293 (Simulation time: 00 hr 02 min 49 sec)
Heartbeat CPU 0 instructions: 70000000 cycles: 41406825 heartbeat IPC: 1.243 cumulative IPC: 1.281 (Simulation time: 00 hr 03 min 24 sec)
Heartbeat CPU 0 instructions: 80000001 cycles: 49908878 heartbeat IPC: 1.176 cumulative IPC: 1.261 (Simulation time: 00 hr 04 min 01 sec)
Heartbeat CPU 0 instructions: 90000000 cycles: 57296061 heartbeat IPC: 1.354 cumulative IPC: 1.274 (Simulation time: 00 hr 04 min 35 sec)
Heartbeat CPU 0 instructions: 100000000 cycles: 62835484 heartbeat IPC: 1.805 cumulative IPC: 1.326 (Simulation time: 00 hr 05 min 04 sec)
*** Reached end of trace: (0, "../traces/secret_traces/compute_int/compute_int_532.champsimtrace.xz")
Heartbeat CPU 0 instructions: 110000000 cycles: 72581249 heartbeat IPC: 1.026 cumulative IPC: 1.282 (Simulation time: 00 hr 05 min 46 sec)
Heartbeat CPU 0 instructions: 120000000 cycles: 80792328 heartbeat IPC: 1.218 cumulative IPC: 1.275 (Simulation time: 00 hr 06 min 22 sec)
Simulation finished CPU 0 instructions: 100000001 cycles: 79092379 cumulative IPC: 1.264 (Simulation time: 00 hr 06 min 41 sec)
Simulation complete CPU 0 instructions: 100000001 cycles: 79092379 cumulative IPC: 1.264 (Simulation time: 00 hr 06 min 41 sec)

ChampSim completed all CPUs

=== Simulation ===
CPU 0 runs ../traces/secret_traces/compute_int/compute_int_532.champsimtrace.xz
Region of Interest Statistics

CPU 0 cumulative IPC: 1.264 instructions: 100000001 cycles: 79092379
CPU 0 Branch Prediction Accuracy: 86.41% MPKI: 20.21 Average ROB Occupancy at Mispredict: 21.49
Branch type MPKI
BRANCH_DIRECT_JUMP: 0.0117
BRANCH_INDIRECT: 1.76
BRANCH_CONDITIONAL: 18.4
BRANCH_DIRECT_CALL: 0.0321
BRANCH_INDIRECT_CALL: 0.0128
BRANCH_RETURN: 0.0183

LLC TOTAL        ACCESS:     425008 HIT:     142896 MISS:     282112
LLC LOAD         ACCESS:     195550 HIT:      12556 MISS:     182994
LLC RFO          ACCESS:     110973 HIT:      14767 MISS:      96206
LLC PREFETCH     ACCESS:          0 HIT:          0 MISS:          0
LLC WRITE        ACCESS:     116777 HIT:     115356 MISS:       1421
LLC TRANSLATION  ACCESS:       1708 HIT:        217 MISS:       1491
LLC PREFETCH REQUESTED:          0 ISSUED:          0 USEFUL:          0 USELESS:          0
LLC AVERAGE MISS LATENCY: 212.3 cycles
cpu0_DTLB TOTAL        ACCESS:   18913157 HIT:   18874206 MISS:      38951
cpu0_DTLB LOAD         ACCESS:   18913157 HIT:   18874206 MISS:      38951
cpu0_DTLB RFO          ACCESS:          0 HIT:          0 MISS:          0
cpu0_DTLB PREFETCH     ACCESS:          0 HIT:          0 MISS:          0
cpu0_DTLB WRITE        ACCESS:          0 HIT:          0 MISS:          0
cpu0_DTLB TRANSLATION  ACCESS:          0 HIT:          0 MISS:          0
cpu0_DTLB PREFETCH REQUESTED:          0 ISSUED:          0 USEFUL:          0 USELESS:          0
cpu0_DTLB AVERAGE MISS LATENCY: 13.66 cycles
cpu0_ITLB TOTAL        ACCESS:      95793 HIT:      88910 MISS:       6883
cpu0_ITLB LOAD         ACCESS:      95793 HIT:      88910 MISS:       6883
cpu0_ITLB RFO          ACCESS:          0 HIT:          0 MISS:          0
cpu0_ITLB PREFETCH     ACCESS:          0 HIT:          0 MISS:          0
cpu0_ITLB WRITE        ACCESS:          0 HIT:          0 MISS:          0
cpu0_ITLB TRANSLATION  ACCESS:          0 HIT:          0 MISS:          0
cpu0_ITLB PREFETCH REQUESTED:          0 ISSUED:          0 USEFUL:          0 USELESS:          0
cpu0_ITLB AVERAGE MISS LATENCY: 20.3 cycles
cpu0_L1D TOTAL        ACCESS:   22372904 HIT:   19459188 MISS:    2913716
cpu0_L1D LOAD         ACCESS:   16474152 HIT:   14247649 MISS:    2226503
cpu0_L1D RFO          ACCESS:          0 HIT:          0 MISS:          0
cpu0_L1D PREFETCH     ACCESS:          0 HIT:          0 MISS:          0
cpu0_L1D WRITE        ACCESS:    5892676 HIT:    5208454 MISS:     684222
cpu0_L1D TRANSLATION  ACCESS:       6076 HIT:       3085 MISS:       2991
cpu0_L1D PREFETCH REQUESTED:          0 ISSUED:          0 USEFUL:          0 USELESS:          0
cpu0_L1D AVERAGE MISS LATENCY: 19.94 cycles
cpu0_L1I TOTAL        ACCESS:     106915 HIT:      73985 MISS:      32930
cpu0_L1I LOAD         ACCESS:     106915 HIT:      73985 MISS:      32930
cpu0_L1I RFO          ACCESS:          0 HIT:          0 MISS:          0
cpu0_L1I PREFETCH     ACCESS:          0 HIT:          0 MISS:          0
cpu0_L1I WRITE        ACCESS:          0 HIT:          0 MISS:          0
cpu0_L1I TRANSLATION  ACCESS:          0 HIT:          0 MISS:          0
cpu0_L1I PREFETCH REQUESTED:          0 ISSUED:          0 USEFUL:          0 USELESS:          0
cpu0_L1I AVERAGE MISS LATENCY: 83.23 cycles
cpu0_L2C TOTAL        ACCESS:     774697 HIT:     465923 MISS:     308774
cpu0_L2C LOAD         ACCESS:     414418 HIT:     218868 MISS:     195550
cpu0_L2C RFO          ACCESS:     121531 HIT:      10558 MISS:     110973
cpu0_L2C PREFETCH     ACCESS:          0 HIT:          0 MISS:          0
cpu0_L2C WRITE        ACCESS:     235761 HIT:     235218 MISS:        543
cpu0_L2C TRANSLATION  ACCESS:       2987 HIT:       1279 MISS:       1708
cpu0_L2C PREFETCH REQUESTED:          0 ISSUED:          0 USEFUL:          0 USELESS:          0
cpu0_L2C AVERAGE MISS LATENCY: 214.9 cycles
cpu0_STLB TOTAL        ACCESS:      16442 HIT:      10595 MISS:       5847
cpu0_STLB LOAD         ACCESS:      16442 HIT:      10595 MISS:       5847
cpu0_STLB RFO          ACCESS:          0 HIT:          0 MISS:          0
cpu0_STLB PREFETCH     ACCESS:          0 HIT:          0 MISS:          0
cpu0_STLB WRITE        ACCESS:          0 HIT:          0 MISS:          0
cpu0_STLB TRANSLATION  ACCESS:          0 HIT:          0 MISS:          0
cpu0_STLB PREFETCH REQUESTED:          0 ISSUED:          0 USEFUL:          0 USELESS:          0
cpu0_STLB AVERAGE MISS LATENCY: 114.8 cycles

DRAM Statistics

Channel 0 RQ ROW_BUFFER_HIT:     155092
  ROW_BUFFER_MISS:     125595
 AVG DBUS CONGESTED CYCLE: 3.958
WQ ROW_BUFFER_HIT: Channel 0 
  ROW_BUFFER_MISS:      18480
  FULL:      91467
