WARNING: physical memory size is smaller than virtual memory size.

*** ChampSim Multicore Out-of-Order Simulator ***
Warmup Instructions: 25000000
Simulation Instructions: 100000000
Number of CPUs: 1
Page size: 4096

Off-chip DRAM Size: 4 GiB Channels: 1 Width: 64-bit Data Race: 3200 MT/s
Heartbeat CPU 0 instructions: 10000002 cycles: 2533543 heartbeat IPC: 3.947 cumulative IPC: 3.947 (Simulation time: 00 hr 00 min 18 sec)
Heartbeat CPU 0 instructions: 20000000 cycles: 5045148 heartbeat IPC: 3.982 cumulative IPC: 3.964 (Simulation time: 00 hr 00 min 37 sec)
Warmup finished CPU 0 instructions: 25000001 cycles: 6300992 cumulative IPC: 3.968 (Simulation time: 00 hr 00 min 46 sec)
Warmup complete CPU 0 instructions: 25000001 cycles: 6300992 cumulative IPC: 3.968 (Simulation time: 00 hr 00 min 46 sec)
Heartbeat CPU 0 instructions: 30000003 cycles: 8115973 heartbeat IPC: 3.256 cumulative IPC: 2.755 (Simulation time: 00 hr 00 min 59 sec)
Heartbeat CPU 0 instructions: 40000003 cycles: 11690843 heartbeat IPC: 2.797 cumulative IPC: 2.783 (Simulation time: 00 hr 01 min 27 sec)
Heartbeat CPU 0 instructions: 50000001 cycles: 15146661 heartbeat IPC: 2.894 cumulative IPC: 2.826 (Simulation time: 00 hr 01 min 53 sec)
Heartbeat CPU 0 instructions: 60000002 cycles: 18578645 heartbeat IPC: 2.914 cumulative IPC: 2.851 (Simulation time: 00 hr 02 min 20 sec)
Heartbeat CPU 0 instructions: 70000000 cycles: 21971942 heartbeat IPC: 2.947 cumulative IPC: 2.872 (Simulation time: 00 hr 02 min 46 sec)
Heartbeat CPU 0 instructions: 80000001 cycles: 25367147 heartbeat IPC: 2.945 cumulative IPC: 2.885 (Simulation time: 00 hr 03 min 13 sec)
Heartbeat CPU 0 instructions: 90000000 cycles: 28767600 heartbeat IPC: 2.941 cumulative IPC: 2.893 (Simulation time: 00 hr 03 min 40 sec)
Heartbeat CPU 0 instructions: 100000002 cycles: 32163457 heartbeat IPC: 2.945 cumulative IPC: 2.9 (Simulation time: 00 hr 04 min 06 sec)
*** Reached end of trace: (0, "../traces/secret_traces/compute_fp/compute_fp_3.champsimtrace.xz")
Heartbeat CPU 0 instructions: 110000001 cycles: 38631615 heartbeat IPC: 1.546 cumulative IPC: 2.629 (Simulation time: 00 hr 04 min 42 sec)
Heartbeat CPU 0 instructions: 120000001 cycles: 42050642 heartbeat IPC: 2.925 cumulative IPC: 2.657 (Simulation time: 00 hr 05 min 08 sec)
Simulation finished CPU 0 instructions: 100000002 cycles: 37615921 cumulative IPC: 2.658 (Simulation time: 00 hr 05 min 22 sec)
Simulation complete CPU 0 instructions: 100000002 cycles: 37615921 cumulative IPC: 2.658 (Simulation time: 00 hr 05 min 22 sec)

ChampSim completed all CPUs

=== Simulation ===
CPU 0 runs ../traces/secret_traces/compute_fp/compute_fp_3.champsimtrace.xz
Region of Interest Statistics

CPU 0 cumulative IPC: 2.658 instructions: 100000002 cycles: 37615921
CPU 0 Branch Prediction Accuracy: 96.65% MPKI: 1.104 Average ROB Occupancy at Mispredict: 162.2
Branch type MPKI
BRANCH_DIRECT_JUMP: 0.00716
BRANCH_INDIRECT: 0.364
BRANCH_CONDITIONAL: 0.694
BRANCH_DIRECT_CALL: 0.0198
BRANCH_INDIRECT_CALL: 0.00769
BRANCH_RETURN: 0.0109

LLC TOTAL        ACCESS:     730994 HIT:     314597 MISS:     416397
LLC LOAD         ACCESS:     538126 HIT:     183121 MISS:     355005
LLC RFO          ACCESS:      66191 HIT:       7828 MISS:      58363
LLC PREFETCH     ACCESS:          0 HIT:          0 MISS:          0
LLC WRITE        ACCESS:     125021 HIT:     123226 MISS:       1795
LLC TRANSLATION  ACCESS:       1656 HIT:        422 MISS:       1234
LLC PREFETCH REQUESTED:          0 ISSUED:          0 USEFUL:          0 USELESS:          0
LLC AVERAGE MISS LATENCY: 151.6 cycles
cpu0_DTLB TOTAL        ACCESS:   19378523 HIT:   18409454 MISS:     969069
cpu0_DTLB LOAD         ACCESS:   19378523 HIT:   18409454 MISS:     969069
cpu0_DTLB RFO          ACCESS:          0 HIT:          0 MISS:          0
cpu0_DTLB PREFETCH     ACCESS:          0 HIT:          0 MISS:          0
cpu0_DTLB WRITE        ACCESS:          0 HIT:          0 MISS:          0
cpu0_DTLB TRANSLATION  ACCESS:          0 HIT:          0 MISS:          0
cpu0_DTLB PREFETCH REQUESTED:          0 ISSUED:          0 USEFUL:          0 USELESS:          0
cpu0_DTLB AVERAGE MISS LATENCY: 3.24 cycles
cpu0_ITLB TOTAL        ACCESS:      85493 HIT:      81046 MISS:       4447
cpu0_ITLB LOAD         ACCESS:      85493 HIT:      81046 MISS:       4447
cpu0_ITLB RFO          ACCESS:          0 HIT:          0 MISS:          0
cpu0_ITLB PREFETCH     ACCESS:          0 HIT:          0 MISS:          0
cpu0_ITLB WRITE        ACCESS:          0 HIT:          0 MISS:          0
cpu0_ITLB TRANSLATION  ACCESS:          0 HIT:          0 MISS:          0
cpu0_ITLB PREFETCH REQUESTED:          0 ISSUED:          0 USEFUL:          0 USELESS:          0
cpu0_ITLB AVERAGE MISS LATENCY: 20.43 cycles
cpu0_L1D TOTAL        ACCESS:   26727371 HIT:   22370372 MISS:    4356999
cpu0_L1D LOAD         ACCESS:   16095967 HIT:   12450626 MISS:    3645341
cpu0_L1D RFO          ACCESS:          0 HIT:          0 MISS:          0
cpu0_L1D PREFETCH     ACCESS:          0 HIT:          0 MISS:          0
cpu0_L1D WRITE        ACCESS:   10623702 HIT:    9918700 MISS:     705002
cpu0_L1D TRANSLATION  ACCESS:       7702 HIT:       1046 MISS:       6656
cpu0_L1D PREFETCH REQUESTED:          0 ISSUED:          0 USEFUL:          0 USELESS:          0
cpu0_L1D AVERAGE MISS LATENCY: 21.78 cycles
cpu0_L1I TOTAL        ACCESS:      92448 HIT:      69728 MISS:      22720
cpu0_L1I LOAD         ACCESS:      92448 HIT:      69728 MISS:      22720
cpu0_L1I RFO          ACCESS:          0 HIT:          0 MISS:          0
cpu0_L1I PREFETCH     ACCESS:          0 HIT:          0 MISS:          0
cpu0_L1I WRITE        ACCESS:          0 HIT:          0 MISS:          0
cpu0_L1I TRANSLATION  ACCESS:          0 HIT:          0 MISS:          0
cpu0_L1I PREFETCH REQUESTED:          0 ISSUED:          0 USEFUL:          0 USELESS:          0
cpu0_L1I AVERAGE MISS LATENCY: 96.06 cycles
cpu0_L2C TOTAL        ACCESS:    3459646 HIT:    2850144 MISS:     609502
cpu0_L2C LOAD         ACCESS:    2446020 HIT:    1907894 MISS:     538126
cpu0_L2C RFO          ACCESS:     250075 HIT:     183884 MISS:      66191
cpu0_L2C PREFETCH     ACCESS:          0 HIT:          0 MISS:          0
cpu0_L2C WRITE        ACCESS:     756902 HIT:     753373 MISS:       3529
cpu0_L2C TRANSLATION  ACCESS:       6649 HIT:       4993 MISS:       1656
cpu0_L2C PREFETCH REQUESTED:          0 ISSUED:          0 USEFUL:          0 USELESS:          0
cpu0_L2C AVERAGE MISS LATENCY: 124.2 cycles
cpu0_STLB TOTAL        ACCESS:     491243 HIT:     483691 MISS:       7552
cpu0_STLB LOAD         ACCESS:     491243 HIT:     483691 MISS:       7552
cpu0_STLB RFO          ACCESS:          0 HIT:          0 MISS:          0
cpu0_STLB PREFETCH     ACCESS:          0 HIT:          0 MISS:          0
cpu0_STLB WRITE        ACCESS:          0 HIT:          0 MISS:          0
cpu0_STLB TRANSLATION  ACCESS:          0 HIT:          0 MISS:          0
cpu0_STLB PREFETCH REQUESTED:          0 ISSUED:          0 USEFUL:          0 USELESS:          0
cpu0_STLB AVERAGE MISS LATENCY: 166.9 cycles

DRAM Statistics

Channel 0 RQ ROW_BUFFER_HIT:     267629
  ROW_BUFFER_MISS:     146959
 AVG DBUS CONGESTED CYCLE: 3.843
WQ ROW_BUFFER_HIT: Channel 0 
  ROW_BUFFER_MISS:      15235
  FULL:      77829
