WARNING: physical memory size is smaller than virtual memory size.

*** ChampSim Multicore Out-of-Order Simulator ***
Warmup Instructions: 25000000
Simulation Instructions: 100000000
Number of CPUs: 1
Page size: 4096

Off-chip DRAM Size: 4 GiB Channels: 1 Width: 64-bit Data Race: 3200 MT/s
Heartbeat CPU 0 instructions: 10000000 cycles: 2522862 heartbeat IPC: 3.964 cumulative IPC: 3.964 (Simulation time: 00 hr 00 min 17 sec)
Heartbeat CPU 0 instructions: 20000000 cycles: 5022862 heartbeat IPC: 4 cumulative IPC: 3.982 (Simulation time: 00 hr 00 min 34 sec)
Warmup finished CPU 0 instructions: 25000000 cycles: 6272863 cumulative IPC: 3.985 (Simulation time: 00 hr 00 min 43 sec)
Warmup complete CPU 0 instructions: 25000000 cycles: 6272863 cumulative IPC: 3.985 (Simulation time: 00 hr 00 min 43 sec)
Heartbeat CPU 0 instructions: 30000000 cycles: 7870525 heartbeat IPC: 3.512 cumulative IPC: 3.13 (Simulation time: 00 hr 00 min 54 sec)
Heartbeat CPU 0 instructions: 40000001 cycles: 10986224 heartbeat IPC: 3.21 cumulative IPC: 3.182 (Simulation time: 00 hr 01 min 16 sec)
Heartbeat CPU 0 instructions: 50000001 cycles: 14241493 heartbeat IPC: 3.072 cumulative IPC: 3.137 (Simulation time: 00 hr 01 min 37 sec)
Heartbeat CPU 0 instructions: 60000001 cycles: 17435520 heartbeat IPC: 3.131 cumulative IPC: 3.135 (Simulation time: 00 hr 01 min 59 sec)
Heartbeat CPU 0 instructions: 70000002 cycles: 20396521 heartbeat IPC: 3.377 cumulative IPC: 3.186 (Simulation time: 00 hr 02 min 20 sec)
Heartbeat CPU 0 instructions: 80000001 cycles: 23311433 heartbeat IPC: 3.431 cumulative IPC: 3.228 (Simulation time: 00 hr 02 min 41 sec)
Heartbeat CPU 0 instructions: 90000004 cycles: 26295412 heartbeat IPC: 3.351 cumulative IPC: 3.246 (Simulation time: 00 hr 03 min 02 sec)
Heartbeat CPU 0 instructions: 100000004 cycles: 29352000 heartbeat IPC: 3.272 cumulative IPC: 3.25 (Simulation time: 00 hr 03 min 23 sec)
*** Reached end of trace: (0, "../traces/secret_traces/compute_fp/compute_fp_13.champsimtrace.xz")
Heartbeat CPU 0 instructions: 110000003 cycles: 35905271 heartbeat IPC: 1.526 cumulative IPC: 2.868 (Simulation time: 00 hr 03 min 55 sec)
Heartbeat CPU 0 instructions: 120000004 cycles: 39217005 heartbeat IPC: 3.02 cumulative IPC: 2.884 (Simulation time: 00 hr 04 min 17 sec)
Simulation finished CPU 0 instructions: 100000001 cycles: 34575527 cumulative IPC: 2.892 (Simulation time: 00 hr 04 min 28 sec)
Simulation complete CPU 0 instructions: 100000001 cycles: 34575527 cumulative IPC: 2.892 (Simulation time: 00 hr 04 min 28 sec)

ChampSim completed all CPUs

=== Simulation ===
CPU 0 runs ../traces/secret_traces/compute_fp/compute_fp_13.champsimtrace.xz
Region of Interest Statistics

CPU 0 cumulative IPC: 2.892 instructions: 100000001 cycles: 34575527
CPU 0 Branch Prediction Accuracy: 95.2% MPKI: 3.779 Average ROB Occupancy at Mispredict: 37.23
Branch type MPKI
BRANCH_DIRECT_JUMP: 0.00719
BRANCH_INDIRECT: 0.323
BRANCH_CONDITIONAL: 3.41
BRANCH_DIRECT_CALL: 0.0197
BRANCH_INDIRECT_CALL: 0.00786
BRANCH_RETURN: 0.0109

LLC TOTAL        ACCESS:     109663 HIT:      50635 MISS:      59028
LLC LOAD         ACCESS:      47073 HIT:       8899 MISS:      38174
LLC RFO          ACCESS:      28113 HIT:       7945 MISS:      20168
LLC PREFETCH     ACCESS:          0 HIT:          0 MISS:          0
LLC WRITE        ACCESS:      33693 HIT:      33652 MISS:         41
LLC TRANSLATION  ACCESS:        784 HIT:        139 MISS:        645
LLC PREFETCH REQUESTED:          0 ISSUED:          0 USEFUL:          0 USELESS:          0
LLC AVERAGE MISS LATENCY: 351.7 cycles
cpu0_DTLB TOTAL        ACCESS:   14558398 HIT:   14527124 MISS:      31274
cpu0_DTLB LOAD         ACCESS:   14558398 HIT:   14527124 MISS:      31274
cpu0_DTLB RFO          ACCESS:          0 HIT:          0 MISS:          0
cpu0_DTLB PREFETCH     ACCESS:          0 HIT:          0 MISS:          0
cpu0_DTLB WRITE        ACCESS:          0 HIT:          0 MISS:          0
cpu0_DTLB TRANSLATION  ACCESS:          0 HIT:          0 MISS:          0
cpu0_DTLB PREFETCH REQUESTED:          0 ISSUED:          0 USEFUL:          0 USELESS:          0
cpu0_DTLB AVERAGE MISS LATENCY: 9.757 cycles
cpu0_ITLB TOTAL        ACCESS:      60519 HIT:      56087 MISS:       4432
cpu0_ITLB LOAD         ACCESS:      60519 HIT:      56087 MISS:       4432
cpu0_ITLB RFO          ACCESS:          0 HIT:          0 MISS:          0
cpu0_ITLB PREFETCH     ACCESS:          0 HIT:          0 MISS:          0
cpu0_ITLB WRITE        ACCESS:          0 HIT:          0 MISS:          0
cpu0_ITLB TRANSLATION  ACCESS:          0 HIT:          0 MISS:          0
cpu0_ITLB PREFETCH REQUESTED:          0 ISSUED:          0 USEFUL:          0 USELESS:          0
cpu0_ITLB AVERAGE MISS LATENCY: 12.27 cycles
cpu0_L1D TOTAL        ACCESS:   16766307 HIT:   16079222 MISS:     687085
cpu0_L1D LOAD         ACCESS:   13482742 HIT:   12902290 MISS:     580452
cpu0_L1D RFO          ACCESS:          0 HIT:          0 MISS:          0
cpu0_L1D PREFETCH     ACCESS:          0 HIT:          0 MISS:          0
cpu0_L1D WRITE        ACCESS:    3282023 HIT:    3176364 MISS:     105659
cpu0_L1D TRANSLATION  ACCESS:       1542 HIT:        568 MISS:        974
cpu0_L1D PREFETCH REQUESTED:          0 ISSUED:          0 USEFUL:          0 USELESS:          0
cpu0_L1D AVERAGE MISS LATENCY: 33.63 cycles
cpu0_L1I TOTAL        ACCESS:      66961 HIT:      45416 MISS:      21545
cpu0_L1I LOAD         ACCESS:      66961 HIT:      45416 MISS:      21545
cpu0_L1I RFO          ACCESS:          0 HIT:          0 MISS:          0
cpu0_L1I PREFETCH     ACCESS:          0 HIT:          0 MISS:          0
cpu0_L1I WRITE        ACCESS:          0 HIT:          0 MISS:          0
cpu0_L1I TRANSLATION  ACCESS:          0 HIT:          0 MISS:          0
cpu0_L1I PREFETCH REQUESTED:          0 ISSUED:          0 USEFUL:          0 USELESS:          0
cpu0_L1I AVERAGE MISS LATENCY: 62.99 cycles
cpu0_L2C TOTAL        ACCESS:     382477 HIT:     306499 MISS:      75978
cpu0_L2C LOAD         ACCESS:     265764 HIT:     218691 MISS:      47073
cpu0_L2C RFO          ACCESS:      39051 HIT:      10938 MISS:      28113
cpu0_L2C PREFETCH     ACCESS:          0 HIT:          0 MISS:          0
cpu0_L2C WRITE        ACCESS:      76691 HIT:      76683 MISS:          8
cpu0_L2C TRANSLATION  ACCESS:        971 HIT:        187 MISS:        784
cpu0_L2C PREFETCH REQUESTED:          0 ISSUED:          0 USEFUL:          0 USELESS:          0
cpu0_L2C AVERAGE MISS LATENCY: 294.1 cycles
cpu0_STLB TOTAL        ACCESS:      16637 HIT:      15186 MISS:       1451
cpu0_STLB LOAD         ACCESS:      16637 HIT:      15186 MISS:       1451
cpu0_STLB RFO          ACCESS:          0 HIT:          0 MISS:          0
cpu0_STLB PREFETCH     ACCESS:          0 HIT:          0 MISS:          0
cpu0_STLB WRITE        ACCESS:          0 HIT:          0 MISS:          0
cpu0_STLB TRANSLATION  ACCESS:          0 HIT:          0 MISS:          0
cpu0_STLB PREFETCH REQUESTED:          0 ISSUED:          0 USEFUL:          0 USELESS:          0
cpu0_STLB AVERAGE MISS LATENCY: 196.6 cycles

DRAM Statistics

Channel 0 RQ ROW_BUFFER_HIT:      24780
  ROW_BUFFER_MISS:      34198
 AVG DBUS CONGESTED CYCLE: 3.958
WQ ROW_BUFFER_HIT: Channel 0 
  ROW_BUFFER_MISS:       4153
  FULL:      24447
