WARNING: physical memory size is smaller than virtual memory size.

*** ChampSim Multicore Out-of-Order Simulator ***
Warmup Instructions: 25000000
Simulation Instructions: 100000000
Number of CPUs: 1
Page size: 4096

Off-chip DRAM Size: 4 GiB Channels: 1 Width: 64-bit Data Race: 3200 MT/s
Heartbeat CPU 0 instructions: 10000003 cycles: 2548818 heartbeat IPC: 3.923 cumulative IPC: 3.923 (Simulation time: 00 hr 00 min 18 sec)
Heartbeat CPU 0 instructions: 20000002 cycles: 5097418 heartbeat IPC: 3.924 cumulative IPC: 3.924 (Simulation time: 00 hr 00 min 36 sec)
Warmup finished CPU 0 instructions: 25000000 cycles: 6366334 cumulative IPC: 3.927 (Simulation time: 00 hr 00 min 45 sec)
Warmup complete CPU 0 instructions: 25000000 cycles: 6366334 cumulative IPC: 3.927 (Simulation time: 00 hr 00 min 45 sec)
Heartbeat CPU 0 instructions: 30000001 cycles: 9719153 heartbeat IPC: 2.164 cumulative IPC: 1.491 (Simulation time: 00 hr 01 min 05 sec)
Heartbeat CPU 0 instructions: 40000002 cycles: 14995851 heartbeat IPC: 1.895 cumulative IPC: 1.738 (Simulation time: 00 hr 01 min 37 sec)
Heartbeat CPU 0 instructions: 50000002 cycles: 20201145 heartbeat IPC: 1.921 cumulative IPC: 1.807 (Simulation time: 00 hr 02 min 08 sec)
Heartbeat CPU 0 instructions: 60000000 cycles: 25130578 heartbeat IPC: 2.029 cumulative IPC: 1.865 (Simulation time: 00 hr 02 min 39 sec)
Heartbeat CPU 0 instructions: 70000001 cycles: 29395315 heartbeat IPC: 2.345 cumulative IPC: 1.954 (Simulation time: 00 hr 03 min 08 sec)
Heartbeat CPU 0 instructions: 80000000 cycles: 32153800 heartbeat IPC: 3.625 cumulative IPC: 2.133 (Simulation time: 00 hr 03 min 29 sec)
Heartbeat CPU 0 instructions: 90000002 cycles: 34905317 heartbeat IPC: 3.634 cumulative IPC: 2.278 (Simulation time: 00 hr 03 min 51 sec)
Heartbeat CPU 0 instructions: 100000003 cycles: 55542108 heartbeat IPC: 0.4846 cumulative IPC: 1.525 (Simulation time: 00 hr 05 min 23 sec)
*** Reached end of trace: (0, "../traces/secret_traces/compute_fp/compute_fp_10.champsimtrace.xz")
Heartbeat CPU 0 instructions: 110000001 cycles: 65714199 heartbeat IPC: 0.9831 cumulative IPC: 1.432 (Simulation time: 00 hr 06 min 14 sec)
Heartbeat CPU 0 instructions: 120000001 cycles: 73948220 heartbeat IPC: 1.214 cumulative IPC: 1.406 (Simulation time: 00 hr 06 min 57 sec)
Simulation finished CPU 0 instructions: 100000002 cycles: 71211490 cumulative IPC: 1.404 (Simulation time: 00 hr 07 min 17 sec)
Simulation complete CPU 0 instructions: 100000002 cycles: 71211490 cumulative IPC: 1.404 (Simulation time: 00 hr 07 min 17 sec)

ChampSim completed all CPUs

=== Simulation ===
CPU 0 runs ../traces/secret_traces/compute_fp/compute_fp_10.champsimtrace.xz
Region of Interest Statistics

CPU 0 cumulative IPC: 1.404 instructions: 100000002 cycles: 71211490
CPU 0 Branch Prediction Accuracy: 96.78% MPKI: 4.571 Average ROB Occupancy at Mispredict: 60.37
Branch type MPKI
BRANCH_DIRECT_JUMP: 0.00909
BRANCH_INDIRECT: 0.93
BRANCH_CONDITIONAL: 3.59
BRANCH_DIRECT_CALL: 0.0227
BRANCH_INDIRECT_CALL: 0.00839
BRANCH_RETURN: 0.0123

LLC TOTAL        ACCESS:    1465138 HIT:    1086313 MISS:     378825
LLC LOAD         ACCESS:     621844 HIT:     385910 MISS:     235934
LLC RFO          ACCESS:     338243 HIT:     199553 MISS:     138690
LLC PREFETCH     ACCESS:          0 HIT:          0 MISS:          0
LLC WRITE        ACCESS:     503846 HIT:     500761 MISS:       3085
LLC TRANSLATION  ACCESS:       1205 HIT:         89 MISS:       1116
LLC PREFETCH REQUESTED:          0 ISSUED:          0 USEFUL:          0 USELESS:          0
LLC AVERAGE MISS LATENCY: 1135 cycles
cpu0_DTLB TOTAL        ACCESS:   14458506 HIT:   13960130 MISS:     498376
cpu0_DTLB LOAD         ACCESS:   14458506 HIT:   13960130 MISS:     498376
cpu0_DTLB RFO          ACCESS:          0 HIT:          0 MISS:          0
cpu0_DTLB PREFETCH     ACCESS:          0 HIT:          0 MISS:          0
cpu0_DTLB WRITE        ACCESS:          0 HIT:          0 MISS:          0
cpu0_DTLB TRANSLATION  ACCESS:          0 HIT:          0 MISS:          0
cpu0_DTLB PREFETCH REQUESTED:          0 ISSUED:          0 USEFUL:          0 USELESS:          0
cpu0_DTLB AVERAGE MISS LATENCY: 8.69 cycles
cpu0_ITLB TOTAL        ACCESS:     980037 HIT:     975178 MISS:       4859
cpu0_ITLB LOAD         ACCESS:     980037 HIT:     975178 MISS:       4859
cpu0_ITLB RFO          ACCESS:          0 HIT:          0 MISS:          0
cpu0_ITLB PREFETCH     ACCESS:          0 HIT:          0 MISS:          0
cpu0_ITLB WRITE        ACCESS:          0 HIT:          0 MISS:          0
cpu0_ITLB TRANSLATION  ACCESS:          0 HIT:          0 MISS:          0
cpu0_ITLB PREFETCH REQUESTED:          0 ISSUED:          0 USEFUL:          0 USELESS:          0
cpu0_ITLB AVERAGE MISS LATENCY: 24.9 cycles
cpu0_L1D TOTAL        ACCESS:   18075687 HIT:   12955845 MISS:    5119842
cpu0_L1D LOAD         ACCESS:    9514303 HIT:    6470843 MISS:    3043460
cpu0_L1D RFO          ACCESS:          0 HIT:          0 MISS:          0
cpu0_L1D PREFETCH     ACCESS:          0 HIT:          0 MISS:          0
cpu0_L1D WRITE        ACCESS:    8558213 HIT:    6483257 MISS:    2074956
cpu0_L1D TRANSLATION  ACCESS:       3171 HIT:       1745 MISS:       1426
cpu0_L1D PREFETCH REQUESTED:          0 ISSUED:          0 USEFUL:          0 USELESS:          0
cpu0_L1D AVERAGE MISS LATENCY: 78.31 cycles
cpu0_L1I TOTAL        ACCESS:    1058103 HIT:    1032344 MISS:      25759
cpu0_L1I LOAD         ACCESS:    1058103 HIT:    1032344 MISS:      25759
cpu0_L1I RFO          ACCESS:          0 HIT:          0 MISS:          0
cpu0_L1I PREFETCH     ACCESS:          0 HIT:          0 MISS:          0
cpu0_L1I WRITE        ACCESS:          0 HIT:          0 MISS:          0
cpu0_L1I TRANSLATION  ACCESS:          0 HIT:          0 MISS:          0
cpu0_L1I PREFETCH REQUESTED:          0 ISSUED:          0 USEFUL:          0 USELESS:          0
cpu0_L1I AVERAGE MISS LATENCY: 142.7 cycles
cpu0_L2C TOTAL        ACCESS:    2113153 HIT:    1151809 MISS:     961344
cpu0_L2C LOAD         ACCESS:     925666 HIT:     303822 MISS:     621844
cpu0_L2C RFO          ACCESS:     567217 HIT:     228974 MISS:     338243
cpu0_L2C PREFETCH     ACCESS:          0 HIT:          0 MISS:          0
cpu0_L2C WRITE        ACCESS:     618850 HIT:     618798 MISS:         52
cpu0_L2C TRANSLATION  ACCESS:       1420 HIT:        215 MISS:       1205
cpu0_L2C PREFETCH REQUESTED:          0 ISSUED:          0 USEFUL:          0 USELESS:          0
cpu0_L2C AVERAGE MISS LATENCY: 467.7 cycles
cpu0_STLB TOTAL        ACCESS:     413616 HIT:     410586 MISS:       3030
cpu0_STLB LOAD         ACCESS:     413616 HIT:     410586 MISS:       3030
cpu0_STLB RFO          ACCESS:          0 HIT:          0 MISS:          0
cpu0_STLB PREFETCH     ACCESS:          0 HIT:          0 MISS:          0
cpu0_STLB WRITE        ACCESS:          0 HIT:          0 MISS:          0
cpu0_STLB TRANSLATION  ACCESS:          0 HIT:          0 MISS:          0
cpu0_STLB PREFETCH REQUESTED:          0 ISSUED:          0 USEFUL:          0 USELESS:          0
cpu0_STLB AVERAGE MISS LATENCY: 459.4 cycles

DRAM Statistics

Channel 0 RQ ROW_BUFFER_HIT:     110651
  ROW_BUFFER_MISS:     265022
 AVG DBUS CONGESTED CYCLE: 3.984
WQ ROW_BUFFER_HIT: Channel 0 
  ROW_BUFFER_MISS:      34293
  FULL:     265966
