WARNING: physical memory size is smaller than virtual memory size.

*** ChampSim Multicore Out-of-Order Simulator ***
Warmup Instructions: 25000000
Simulation Instructions: 100000000
Number of CPUs: 1
Page size: 4096

Off-chip DRAM Size: 4 GiB Channels: 1 Width: 64-bit Data Race: 3200 MT/s
Heartbeat CPU 0 instructions: 10000002 cycles: 2522895 heartbeat IPC: 3.964 cumulative IPC: 3.964 (Simulation time: 00 hr 00 min 22 sec)
Heartbeat CPU 0 instructions: 20000000 cycles: 5022914 heartbeat IPC: 4 cumulative IPC: 3.982 (Simulation time: 00 hr 00 min 45 sec)
Warmup finished CPU 0 instructions: 25000000 cycles: 6272915 cumulative IPC: 3.985 (Simulation time: 00 hr 00 min 56 sec)
Warmup complete CPU 0 instructions: 25000000 cycles: 6272915 cumulative IPC: 3.985 (Simulation time: 00 hr 00 min 56 sec)
Heartbeat CPU 0 instructions: 30000000 cycles: 29056501 heartbeat IPC: 0.4161 cumulative IPC: 0.2195 (Simulation time: 00 hr 02 min 43 sec)
Heartbeat CPU 0 instructions: 40000000 cycles: 73409858 heartbeat IPC: 0.2255 cumulative IPC: 0.2234 (Simulation time: 00 hr 06 min 14 sec)
Heartbeat CPU 0 instructions: 50000002 cycles: 118385360 heartbeat IPC: 0.2223 cumulative IPC: 0.223 (Simulation time: 00 hr 09 min 51 sec)
Heartbeat CPU 0 instructions: 60000003 cycles: 165263015 heartbeat IPC: 0.2133 cumulative IPC: 0.2201 (Simulation time: 00 hr 13 min 35 sec)
Heartbeat CPU 0 instructions: 70000001 cycles: 213448836 heartbeat IPC: 0.2075 cumulative IPC: 0.2172 (Simulation time: 00 hr 17 min 25 sec)
Heartbeat CPU 0 instructions: 80000002 cycles: 260711766 heartbeat IPC: 0.2116 cumulative IPC: 0.2162 (Simulation time: 00 hr 21 min 10 sec)
Heartbeat CPU 0 instructions: 90000000 cycles: 310196335 heartbeat IPC: 0.2021 cumulative IPC: 0.2139 (Simulation time: 00 hr 25 min 05 sec)
Heartbeat CPU 0 instructions: 100000002 cycles: 318204021 heartbeat IPC: 1.249 cumulative IPC: 0.2404 (Simulation time: 00 hr 25 min 51 sec)
*** Reached end of trace: (0, "../traces/secret_traces/compute_fp/compute_fp_103.champsimtrace.xz")
Heartbeat CPU 0 instructions: 110000001 cycles: 356515107 heartbeat IPC: 0.261 cumulative IPC: 0.2427 (Simulation time: 00 hr 28 min 50 sec)
Heartbeat CPU 0 instructions: 120000004 cycles: 395113165 heartbeat IPC: 0.2591 cumulative IPC: 0.2443 (Simulation time: 00 hr 31 min 57 sec)
Simulation finished CPU 0 instructions: 100000000 cycles: 410886399 cumulative IPC: 0.2434 (Simulation time: 00 hr 33 min 44 sec)
Simulation complete CPU 0 instructions: 100000000 cycles: 410886399 cumulative IPC: 0.2434 (Simulation time: 00 hr 33 min 44 sec)

ChampSim completed all CPUs

=== Simulation ===
CPU 0 runs ../traces/secret_traces/compute_fp/compute_fp_103.champsimtrace.xz
Region of Interest Statistics

CPU 0 cumulative IPC: 0.2434 instructions: 100000000 cycles: 410886399
CPU 0 Branch Prediction Accuracy: 97.57% MPKI: 0.8664 Average ROB Occupancy at Mispredict: 180.1
Branch type MPKI
BRANCH_DIRECT_JUMP: 0.00727
BRANCH_INDIRECT: 0.311
BRANCH_CONDITIONAL: 0.509
BRANCH_DIRECT_CALL: 0.0201
BRANCH_INDIRECT_CALL: 0.00774
BRANCH_RETURN: 0.0111

LLC TOTAL        ACCESS:    5883936 HIT:    2238721 MISS:    3645215
LLC LOAD         ACCESS:    3513339 HIT:      39751 MISS:    3473588
LLC RFO          ACCESS:     167802 HIT:      11018 MISS:     156784
LLC PREFETCH     ACCESS:          0 HIT:          0 MISS:          0
LLC WRITE        ACCESS:    2186755 HIT:    2186168 MISS:        587
LLC TRANSLATION  ACCESS:      16040 HIT:       1784 MISS:      14256
LLC PREFETCH REQUESTED:          0 ISSUED:          0 USEFUL:          0 USELESS:          0
LLC AVERAGE MISS LATENCY: 1290 cycles
cpu0_DTLB TOTAL        ACCESS:   27695759 HIT:   26026327 MISS:    1669432
cpu0_DTLB LOAD         ACCESS:   27695759 HIT:   26026327 MISS:    1669432
cpu0_DTLB RFO          ACCESS:          0 HIT:          0 MISS:          0
cpu0_DTLB PREFETCH     ACCESS:          0 HIT:          0 MISS:          0
cpu0_DTLB WRITE        ACCESS:          0 HIT:          0 MISS:          0
cpu0_DTLB TRANSLATION  ACCESS:          0 HIT:          0 MISS:          0
cpu0_DTLB PREFETCH REQUESTED:          0 ISSUED:          0 USEFUL:          0 USELESS:          0
cpu0_DTLB AVERAGE MISS LATENCY: 20.14 cycles
cpu0_ITLB TOTAL        ACCESS:      61815 HIT:      57164 MISS:       4651
cpu0_ITLB LOAD         ACCESS:      61815 HIT:      57164 MISS:       4651
cpu0_ITLB RFO          ACCESS:          0 HIT:          0 MISS:          0
cpu0_ITLB PREFETCH     ACCESS:          0 HIT:          0 MISS:          0
cpu0_ITLB WRITE        ACCESS:          0 HIT:          0 MISS:          0
cpu0_ITLB TRANSLATION  ACCESS:          0 HIT:          0 MISS:          0
cpu0_ITLB PREFETCH REQUESTED:          0 ISSUED:          0 USEFUL:          0 USELESS:          0
cpu0_ITLB AVERAGE MISS LATENCY: 47.17 cycles
cpu0_L1D TOTAL        ACCESS:   33543115 HIT:   21624017 MISS:   11919098
cpu0_L1D LOAD         ACCESS:   20545491 HIT:   11480284 MISS:    9065207
cpu0_L1D RFO          ACCESS:          0 HIT:          0 MISS:          0
cpu0_L1D PREFETCH     ACCESS:          0 HIT:          0 MISS:          0
cpu0_L1D WRITE        ACCESS:   12842766 HIT:   10122997 MISS:    2719769
cpu0_L1D TRANSLATION  ACCESS:     154858 HIT:      20736 MISS:     134122
cpu0_L1D PREFETCH REQUESTED:          0 ISSUED:          0 USEFUL:          0 USELESS:          0
cpu0_L1D AVERAGE MISS LATENCY: 254.2 cycles
cpu0_L1I TOTAL        ACCESS:      68394 HIT:      46289 MISS:      22105
cpu0_L1I LOAD         ACCESS:      68394 HIT:      46289 MISS:      22105
cpu0_L1I RFO          ACCESS:          0 HIT:          0 MISS:          0
cpu0_L1I PREFETCH     ACCESS:          0 HIT:          0 MISS:          0
cpu0_L1I WRITE        ACCESS:          0 HIT:          0 MISS:          0
cpu0_L1I TRANSLATION  ACCESS:          0 HIT:          0 MISS:          0
cpu0_L1I PREFETCH REQUESTED:          0 ISSUED:          0 USEFUL:          0 USELESS:          0
cpu0_L1I AVERAGE MISS LATENCY: 130.7 cycles
cpu0_L2C TOTAL        ACCESS:    6526645 HIT:    2828634 MISS:    3698011
cpu0_L2C LOAD         ACCESS:    4021126 HIT:     507787 MISS:    3513339
cpu0_L2C RFO          ACCESS:     172884 HIT:       5082 MISS:     167802
cpu0_L2C PREFETCH     ACCESS:          0 HIT:          0 MISS:          0
cpu0_L2C WRITE        ACCESS:    2198659 HIT:    2197829 MISS:        830
cpu0_L2C TRANSLATION  ACCESS:     133976 HIT:     117936 MISS:      16040
cpu0_L2C PREFETCH REQUESTED:          0 ISSUED:          0 USEFUL:          0 USELESS:          0
cpu0_L2C AVERAGE MISS LATENCY: 1293 cycles
cpu0_STLB TOTAL        ACCESS:    1301347 HIT:    1148046 MISS:     153301
cpu0_STLB LOAD         ACCESS:    1301347 HIT:    1148046 MISS:     153301
cpu0_STLB RFO          ACCESS:          0 HIT:          0 MISS:          0
cpu0_STLB PREFETCH     ACCESS:          0 HIT:          0 MISS:          0
cpu0_STLB WRITE        ACCESS:          0 HIT:          0 MISS:          0
cpu0_STLB TRANSLATION  ACCESS:          0 HIT:          0 MISS:          0
cpu0_STLB PREFETCH REQUESTED:          0 ISSUED:          0 USEFUL:          0 USELESS:          0
cpu0_STLB AVERAGE MISS LATENCY: 208.8 cycles

DRAM Statistics

Channel 0 RQ ROW_BUFFER_HIT:    1809328
  ROW_BUFFER_MISS:    1835274
 AVG DBUS CONGESTED CYCLE: 3.98
WQ ROW_BUFFER_HIT: Channel 0 
  ROW_BUFFER_MISS:     198069
  FULL:    1982899
