WARNING: physical memory size is smaller than virtual memory size.

*** ChampSim Multicore Out-of-Order Simulator ***
Warmup Instructions: 25000000
Simulation Instructions: 100000000
Number of CPUs: 1
Page size: 4096

Off-chip DRAM Size: 4 GiB Channels: 1 Width: 64-bit Data Race: 3200 MT/s
Heartbeat CPU 0 instructions: 10000003 cycles: 2504619 heartbeat IPC: 3.993 cumulative IPC: 3.993 (Simulation time: 00 hr 00 min 18 sec)
Heartbeat CPU 0 instructions: 20000000 cycles: 5007317 heartbeat IPC: 3.996 cumulative IPC: 3.994 (Simulation time: 00 hr 00 min 36 sec)
Warmup finished CPU 0 instructions: 25000001 cycles: 6272747 cumulative IPC: 3.985 (Simulation time: 00 hr 00 min 45 sec)
Warmup complete CPU 0 instructions: 25000001 cycles: 6272747 cumulative IPC: 3.985 (Simulation time: 00 hr 00 min 45 sec)
Heartbeat CPU 0 instructions: 30000003 cycles: 8396031 heartbeat IPC: 2.951 cumulative IPC: 2.355 (Simulation time: 00 hr 00 min 58 sec)
Heartbeat CPU 0 instructions: 40000003 cycles: 12999015 heartbeat IPC: 2.173 cumulative IPC: 2.23 (Simulation time: 00 hr 01 min 24 sec)
Heartbeat CPU 0 instructions: 50000000 cycles: 17299140 heartbeat IPC: 2.326 cumulative IPC: 2.267 (Simulation time: 00 hr 01 min 50 sec)
Heartbeat CPU 0 instructions: 60000001 cycles: 21554539 heartbeat IPC: 2.35 cumulative IPC: 2.29 (Simulation time: 00 hr 02 min 16 sec)
Heartbeat CPU 0 instructions: 70000002 cycles: 25878518 heartbeat IPC: 2.313 cumulative IPC: 2.295 (Simulation time: 00 hr 02 min 42 sec)
Heartbeat CPU 0 instructions: 80000000 cycles: 29851331 heartbeat IPC: 2.517 cumulative IPC: 2.333 (Simulation time: 00 hr 03 min 07 sec)
Heartbeat CPU 0 instructions: 90000001 cycles: 34297548 heartbeat IPC: 2.249 cumulative IPC: 2.319 (Simulation time: 00 hr 03 min 33 sec)
Heartbeat CPU 0 instructions: 100000002 cycles: 38463075 heartbeat IPC: 2.401 cumulative IPC: 2.33 (Simulation time: 00 hr 03 min 58 sec)
*** Reached end of trace: (0, "../traces/secret_traces/compute_int/compute_int_867.champsimtrace.xz")
Heartbeat CPU 0 instructions: 110000000 cycles: 42745133 heartbeat IPC: 2.335 cumulative IPC: 2.331 (Simulation time: 00 hr 04 min 24 sec)
Heartbeat CPU 0 instructions: 120000002 cycles: 47431524 heartbeat IPC: 2.134 cumulative IPC: 2.308 (Simulation time: 00 hr 04 min 50 sec)
Simulation finished CPU 0 instructions: 100000000 cycles: 43202983 cumulative IPC: 2.315 (Simulation time: 00 hr 05 min 03 sec)
Simulation complete CPU 0 instructions: 100000000 cycles: 43202983 cumulative IPC: 2.315 (Simulation time: 00 hr 05 min 03 sec)

ChampSim completed all CPUs

=== Simulation ===
CPU 0 runs ../traces/secret_traces/compute_int/compute_int_867.champsimtrace.xz
Region of Interest Statistics

CPU 0 cumulative IPC: 2.315 instructions: 100000000 cycles: 43202983
CPU 0 Branch Prediction Accuracy: 93.98% MPKI: 11.41 Average ROB Occupancy at Mispredict: 22.75
Branch type MPKI
BRANCH_DIRECT_JUMP: 0.00561
BRANCH_INDIRECT: 0.627
BRANCH_CONDITIONAL: 10.7
BRANCH_DIRECT_CALL: 0.0135
BRANCH_INDIRECT_CALL: 0.0211
BRANCH_RETURN: 0.00773

LLC TOTAL        ACCESS:      34538 HIT:      23795 MISS:      10743
LLC LOAD         ACCESS:      22245 HIT:      12530 MISS:       9715
LLC RFO          ACCESS:       4409 HIT:       3805 MISS:        604
LLC PREFETCH     ACCESS:          0 HIT:          0 MISS:          0
LLC WRITE        ACCESS:       7324 HIT:       7321 MISS:          3
LLC TRANSLATION  ACCESS:        560 HIT:        139 MISS:        421
LLC PREFETCH REQUESTED:          0 ISSUED:          0 USEFUL:          0 USELESS:          0
LLC AVERAGE MISS LATENCY: 160.5 cycles
cpu0_DTLB TOTAL        ACCESS:   21296261 HIT:   21273432 MISS:      22829
cpu0_DTLB LOAD         ACCESS:   21296261 HIT:   21273432 MISS:      22829
cpu0_DTLB RFO          ACCESS:          0 HIT:          0 MISS:          0
cpu0_DTLB PREFETCH     ACCESS:          0 HIT:          0 MISS:          0
cpu0_DTLB WRITE        ACCESS:          0 HIT:          0 MISS:          0
cpu0_DTLB TRANSLATION  ACCESS:          0 HIT:          0 MISS:          0
cpu0_DTLB PREFETCH REQUESTED:          0 ISSUED:          0 USEFUL:          0 USELESS:          0
cpu0_DTLB AVERAGE MISS LATENCY: 11.76 cycles
cpu0_ITLB TOTAL        ACCESS:     182687 HIT:     174089 MISS:       8598
cpu0_ITLB LOAD         ACCESS:     182687 HIT:     174089 MISS:       8598
cpu0_ITLB RFO          ACCESS:          0 HIT:          0 MISS:          0
cpu0_ITLB PREFETCH     ACCESS:          0 HIT:          0 MISS:          0
cpu0_ITLB WRITE        ACCESS:          0 HIT:          0 MISS:          0
cpu0_ITLB TRANSLATION  ACCESS:          0 HIT:          0 MISS:          0
cpu0_ITLB PREFETCH REQUESTED:          0 ISSUED:          0 USEFUL:          0 USELESS:          0
cpu0_ITLB AVERAGE MISS LATENCY: 4.895 cycles
cpu0_L1D TOTAL        ACCESS:   26729267 HIT:   26672409 MISS:      56858
cpu0_L1D LOAD         ACCESS:   16856526 HIT:   16816250 MISS:      40276
cpu0_L1D RFO          ACCESS:          0 HIT:          0 MISS:          0
cpu0_L1D PREFETCH     ACCESS:          0 HIT:          0 MISS:          0
cpu0_L1D WRITE        ACCESS:    9871826 HIT:    9856056 MISS:      15770
cpu0_L1D TRANSLATION  ACCESS:        915 HIT:        103 MISS:        812
cpu0_L1D PREFETCH REQUESTED:          0 ISSUED:          0 USEFUL:          0 USELESS:          0
cpu0_L1D AVERAGE MISS LATENCY: 39.81 cycles
cpu0_L1I TOTAL        ACCESS:     204726 HIT:     182855 MISS:      21871
cpu0_L1I LOAD         ACCESS:     204726 HIT:     182855 MISS:      21871
cpu0_L1I RFO          ACCESS:          0 HIT:          0 MISS:          0
cpu0_L1I PREFETCH     ACCESS:          0 HIT:          0 MISS:          0
cpu0_L1I WRITE        ACCESS:          0 HIT:          0 MISS:          0
cpu0_L1I TRANSLATION  ACCESS:          0 HIT:          0 MISS:          0
cpu0_L1I PREFETCH REQUESTED:          0 ISSUED:          0 USEFUL:          0 USELESS:          0
cpu0_L1I AVERAGE MISS LATENCY: 18.28 cycles
cpu0_L2C TOTAL        ACCESS:      55979 HIT:      28684 MISS:      27295
cpu0_L2C LOAD         ACCESS:      38732 HIT:      16487 MISS:      22245
cpu0_L2C RFO          ACCESS:       6001 HIT:       1592 MISS:       4409
cpu0_L2C PREFETCH     ACCESS:          0 HIT:          0 MISS:          0
cpu0_L2C WRITE        ACCESS:      10435 HIT:      10354 MISS:         81
cpu0_L2C TRANSLATION  ACCESS:        811 HIT:        251 MISS:        560
cpu0_L2C PREFETCH REQUESTED:          0 ISSUED:          0 USEFUL:          0 USELESS:          0
cpu0_L2C AVERAGE MISS LATENCY: 83.53 cycles
cpu0_STLB TOTAL        ACCESS:      19697 HIT:      18847 MISS:        850
cpu0_STLB LOAD         ACCESS:      19697 HIT:      18847 MISS:        850
cpu0_STLB RFO          ACCESS:          0 HIT:          0 MISS:          0
cpu0_STLB PREFETCH     ACCESS:          0 HIT:          0 MISS:          0
cpu0_STLB WRITE        ACCESS:          0 HIT:          0 MISS:          0
cpu0_STLB TRANSLATION  ACCESS:          0 HIT:          0 MISS:          0
cpu0_STLB PREFETCH REQUESTED:          0 ISSUED:          0 USEFUL:          0 USELESS:          0
cpu0_STLB AVERAGE MISS LATENCY: 219.6 cycles

DRAM Statistics

Channel 0 RQ ROW_BUFFER_HIT:       3212
  ROW_BUFFER_MISS:       7528
 AVG DBUS CONGESTED CYCLE: 3.668
WQ ROW_BUFFER_HIT: Channel 0 
  ROW_BUFFER_MISS:        237
  FULL:        520
