WARNING: physical memory size is smaller than virtual memory size.

*** ChampSim Multicore Out-of-Order Simulator ***
Warmup Instructions: 25000000
Simulation Instructions: 100000000
Number of CPUs: 1
Page size: 4096

Off-chip DRAM Size: 4 GiB Channels: 1 Width: 64-bit Data Race: 3200 MT/s
Heartbeat CPU 0 instructions: 10000003 cycles: 2501530 heartbeat IPC: 3.998 cumulative IPC: 3.998 (Simulation time: 00 hr 00 min 21 sec)
Heartbeat CPU 0 instructions: 20000002 cycles: 5031066 heartbeat IPC: 3.953 cumulative IPC: 3.975 (Simulation time: 00 hr 00 min 43 sec)
Warmup finished CPU 0 instructions: 25000000 cycles: 6282052 cumulative IPC: 3.98 (Simulation time: 00 hr 00 min 54 sec)
Warmup complete CPU 0 instructions: 25000000 cycles: 6282052 cumulative IPC: 3.98 (Simulation time: 00 hr 00 min 54 sec)
Heartbeat CPU 0 instructions: 30000000 cycles: 11804662 heartbeat IPC: 1.476 cumulative IPC: 0.9054 (Simulation time: 00 hr 01 min 20 sec)
Heartbeat CPU 0 instructions: 40000000 cycles: 23845825 heartbeat IPC: 0.8305 cumulative IPC: 0.854 (Simulation time: 00 hr 02 min 17 sec)
Heartbeat CPU 0 instructions: 50000002 cycles: 33959933 heartbeat IPC: 0.9887 cumulative IPC: 0.9032 (Simulation time: 00 hr 03 min 06 sec)
Heartbeat CPU 0 instructions: 60000004 cycles: 45783299 heartbeat IPC: 0.8458 cumulative IPC: 0.886 (Simulation time: 00 hr 04 min 02 sec)
Heartbeat CPU 0 instructions: 70000004 cycles: 55913838 heartbeat IPC: 0.9871 cumulative IPC: 0.9067 (Simulation time: 00 hr 04 min 51 sec)
Heartbeat CPU 0 instructions: 80000003 cycles: 67470699 heartbeat IPC: 0.8653 cumulative IPC: 0.8989 (Simulation time: 00 hr 05 min 46 sec)
Heartbeat CPU 0 instructions: 90000000 cycles: 77937521 heartbeat IPC: 0.9554 cumulative IPC: 0.9071 (Simulation time: 00 hr 06 min 36 sec)
Heartbeat CPU 0 instructions: 100000001 cycles: 89399983 heartbeat IPC: 0.8724 cumulative IPC: 0.9023 (Simulation time: 00 hr 07 min 31 sec)
*** Reached end of trace: (0, "../traces/secret_traces/compute_int/compute_int_436.champsimtrace.xz")
Heartbeat CPU 0 instructions: 110000002 cycles: 100309058 heartbeat IPC: 0.9167 cumulative IPC: 0.904 (Simulation time: 00 hr 08 min 22 sec)
Heartbeat CPU 0 instructions: 120000003 cycles: 110735497 heartbeat IPC: 0.9591 cumulative IPC: 0.9095 (Simulation time: 00 hr 09 min 12 sec)
Simulation finished CPU 0 instructions: 100000000 cycles: 110921001 cumulative IPC: 0.9015 (Simulation time: 00 hr 09 min 43 sec)
Simulation complete CPU 0 instructions: 100000000 cycles: 110921001 cumulative IPC: 0.9015 (Simulation time: 00 hr 09 min 43 sec)

ChampSim completed all CPUs

=== Simulation ===
CPU 0 runs ../traces/secret_traces/compute_int/compute_int_436.champsimtrace.xz
Region of Interest Statistics

CPU 0 cumulative IPC: 0.9015 instructions: 100000000 cycles: 110921001
CPU 0 Branch Prediction Accuracy: 91.07% MPKI: 17.99 Average ROB Occupancy at Mispredict: 29.12
Branch type MPKI
BRANCH_DIRECT_JUMP: 0.00047
BRANCH_INDIRECT: 4.47
BRANCH_CONDITIONAL: 13.3
BRANCH_DIRECT_CALL: 0.001
BRANCH_INDIRECT_CALL: 0.107
BRANCH_RETURN: 0.0577

LLC TOTAL        ACCESS:    1668273 HIT:     727484 MISS:     940789
LLC LOAD         ACCESS:     342428 HIT:     108775 MISS:     233653
LLC RFO          ACCESS:     711186 HIT:       7614 MISS:     703572
LLC PREFETCH     ACCESS:          0 HIT:          0 MISS:          0
LLC WRITE        ACCESS:     611490 HIT:     610879 MISS:        611
LLC TRANSLATION  ACCESS:       3169 HIT:        216 MISS:       2953
LLC PREFETCH REQUESTED:          0 ISSUED:          0 USEFUL:          0 USELESS:          0
LLC AVERAGE MISS LATENCY: 353.8 cycles
cpu0_DTLB TOTAL        ACCESS:   29135178 HIT:   28810511 MISS:     324667
cpu0_DTLB LOAD         ACCESS:   29135178 HIT:   28810511 MISS:     324667
cpu0_DTLB RFO          ACCESS:          0 HIT:          0 MISS:          0
cpu0_DTLB PREFETCH     ACCESS:          0 HIT:          0 MISS:          0
cpu0_DTLB WRITE        ACCESS:          0 HIT:          0 MISS:          0
cpu0_DTLB TRANSLATION  ACCESS:          0 HIT:          0 MISS:          0
cpu0_DTLB PREFETCH REQUESTED:          0 ISSUED:          0 USEFUL:          0 USELESS:          0
cpu0_DTLB AVERAGE MISS LATENCY: 7.809 cycles
cpu0_ITLB TOTAL        ACCESS:    4568234 HIT:    4554258 MISS:      13976
cpu0_ITLB LOAD         ACCESS:    4568234 HIT:    4554258 MISS:      13976
cpu0_ITLB RFO          ACCESS:          0 HIT:          0 MISS:          0
cpu0_ITLB PREFETCH     ACCESS:          0 HIT:          0 MISS:          0
cpu0_ITLB WRITE        ACCESS:          0 HIT:          0 MISS:          0
cpu0_ITLB TRANSLATION  ACCESS:          0 HIT:          0 MISS:          0
cpu0_ITLB PREFETCH REQUESTED:          0 ISSUED:          0 USEFUL:          0 USELESS:          0
cpu0_ITLB AVERAGE MISS LATENCY: 22.29 cycles
cpu0_L1D TOTAL        ACCESS:   37593063 HIT:   30291535 MISS:    7301528
cpu0_L1D LOAD         ACCESS:   24438546 HIT:   23344415 MISS:    1094131
cpu0_L1D RFO          ACCESS:          0 HIT:          0 MISS:          0
cpu0_L1D PREFETCH     ACCESS:          0 HIT:          0 MISS:          0
cpu0_L1D WRITE        ACCESS:   13135131 HIT:    6931732 MISS:    6203399
cpu0_L1D TRANSLATION  ACCESS:      19386 HIT:      15388 MISS:       3998
cpu0_L1D PREFETCH REQUESTED:          0 ISSUED:          0 USEFUL:          0 USELESS:          0
cpu0_L1D AVERAGE MISS LATENCY: 44.31 cycles
cpu0_L1I TOTAL        ACCESS:    5157646 HIT:    5093313 MISS:      64333
cpu0_L1I LOAD         ACCESS:    5157646 HIT:    5093313 MISS:      64333
cpu0_L1I RFO          ACCESS:          0 HIT:          0 MISS:          0
cpu0_L1I PREFETCH     ACCESS:          0 HIT:          0 MISS:          0
cpu0_L1I WRITE        ACCESS:          0 HIT:          0 MISS:          0
cpu0_L1I TRANSLATION  ACCESS:          0 HIT:          0 MISS:          0
cpu0_L1I PREFETCH REQUESTED:          0 ISSUED:          0 USEFUL:          0 USELESS:          0
cpu0_L1I AVERAGE MISS LATENCY: 61.05 cycles
cpu0_L2C TOTAL        ACCESS:    1782733 HIT:     725268 MISS:    1057465
cpu0_L2C LOAD         ACCESS:     409857 HIT:      67429 MISS:     342428
cpu0_L2C RFO          ACCESS:     727719 HIT:      16533 MISS:     711186
cpu0_L2C PREFETCH     ACCESS:          0 HIT:          0 MISS:          0
cpu0_L2C WRITE        ACCESS:     641219 HIT:     640537 MISS:        682
cpu0_L2C TRANSLATION  ACCESS:       3938 HIT:        769 MISS:       3169
cpu0_L2C PREFETCH REQUESTED:          0 ISSUED:          0 USEFUL:          0 USELESS:          0
cpu0_L2C AVERAGE MISS LATENCY: 335.7 cycles
cpu0_STLB TOTAL        ACCESS:     185193 HIT:     165944 MISS:      19249
cpu0_STLB LOAD         ACCESS:     185193 HIT:     165944 MISS:      19249
cpu0_STLB RFO          ACCESS:          0 HIT:          0 MISS:          0
cpu0_STLB PREFETCH     ACCESS:          0 HIT:          0 MISS:          0
cpu0_STLB WRITE        ACCESS:          0 HIT:          0 MISS:          0
cpu0_STLB TRANSLATION  ACCESS:          0 HIT:          0 MISS:          0
cpu0_STLB PREFETCH REQUESTED:          0 ISSUED:          0 USEFUL:          0 USELESS:          0
cpu0_STLB AVERAGE MISS LATENCY: 137.5 cycles

DRAM Statistics

Channel 0 RQ ROW_BUFFER_HIT:     282350
  ROW_BUFFER_MISS:     657826
 AVG DBUS CONGESTED CYCLE: 3.9
WQ ROW_BUFFER_HIT: Channel 0 
  ROW_BUFFER_MISS:      91459
  FULL:     515005
