WARNING: physical memory size is smaller than virtual memory size.

*** ChampSim Multicore Out-of-Order Simulator ***
Warmup Instructions: 25000000
Simulation Instructions: 100000000
Number of CPUs: 1
Page size: 4096

Off-chip DRAM Size: 4 GiB Channels: 1 Width: 64-bit Data Race: 3200 MT/s
Heartbeat CPU 0 instructions: 10000003 cycles: 2523556 heartbeat IPC: 3.963 cumulative IPC: 3.963 (Simulation time: 00 hr 00 min 19 sec)
Heartbeat CPU 0 instructions: 20000002 cycles: 5026175 heartbeat IPC: 3.996 cumulative IPC: 3.979 (Simulation time: 00 hr 00 min 38 sec)
Warmup finished CPU 0 instructions: 25000002 cycles: 6276176 cumulative IPC: 3.983 (Simulation time: 00 hr 00 min 47 sec)
Warmup complete CPU 0 instructions: 25000002 cycles: 6276176 cumulative IPC: 3.983 (Simulation time: 00 hr 00 min 47 sec)
Heartbeat CPU 0 instructions: 30000000 cycles: 8129970 heartbeat IPC: 3.222 cumulative IPC: 2.697 (Simulation time: 00 hr 01 min 00 sec)
Heartbeat CPU 0 instructions: 40000001 cycles: 11471054 heartbeat IPC: 2.993 cumulative IPC: 2.887 (Simulation time: 00 hr 01 min 24 sec)
Heartbeat CPU 0 instructions: 50000002 cycles: 14860004 heartbeat IPC: 2.951 cumulative IPC: 2.912 (Simulation time: 00 hr 01 min 48 sec)
Heartbeat CPU 0 instructions: 60000002 cycles: 18520344 heartbeat IPC: 2.732 cumulative IPC: 2.859 (Simulation time: 00 hr 02 min 14 sec)
Heartbeat CPU 0 instructions: 70000000 cycles: 21999024 heartbeat IPC: 2.875 cumulative IPC: 2.862 (Simulation time: 00 hr 02 min 37 sec)
Heartbeat CPU 0 instructions: 80000001 cycles: 25652638 heartbeat IPC: 2.737 cumulative IPC: 2.838 (Simulation time: 00 hr 03 min 03 sec)
Heartbeat CPU 0 instructions: 90000003 cycles: 28906802 heartbeat IPC: 3.073 cumulative IPC: 2.872 (Simulation time: 00 hr 03 min 26 sec)
Heartbeat CPU 0 instructions: 100000000 cycles: 32176985 heartbeat IPC: 3.058 cumulative IPC: 2.896 (Simulation time: 00 hr 03 min 50 sec)
*** Reached end of trace: (0, "../traces/secret_traces/compute_fp/compute_fp_11.champsimtrace.xz")
Heartbeat CPU 0 instructions: 110000001 cycles: 39698978 heartbeat IPC: 1.329 cumulative IPC: 2.543 (Simulation time: 00 hr 04 min 28 sec)
Heartbeat CPU 0 instructions: 120000001 cycles: 43282053 heartbeat IPC: 2.791 cumulative IPC: 2.567 (Simulation time: 00 hr 04 min 53 sec)
Simulation finished CPU 0 instructions: 100000000 cycles: 38916908 cumulative IPC: 2.57 (Simulation time: 00 hr 05 min 05 sec)
Simulation complete CPU 0 instructions: 100000000 cycles: 38916908 cumulative IPC: 2.57 (Simulation time: 00 hr 05 min 05 sec)

ChampSim completed all CPUs

=== Simulation ===
CPU 0 runs ../traces/secret_traces/compute_fp/compute_fp_11.champsimtrace.xz
Region of Interest Statistics

CPU 0 cumulative IPC: 2.57 instructions: 100000000 cycles: 38916908
CPU 0 Branch Prediction Accuracy: 86.46% MPKI: 9.262 Average ROB Occupancy at Mispredict: 62.05
Branch type MPKI
BRANCH_DIRECT_JUMP: 0.00889
BRANCH_INDIRECT: 0.457
BRANCH_CONDITIONAL: 8.75
BRANCH_DIRECT_CALL: 0.022
BRANCH_INDIRECT_CALL: 0.0083
BRANCH_RETURN: 0.012

LLC TOTAL        ACCESS:     102545 HIT:      53078 MISS:      49467
LLC LOAD         ACCESS:      34300 HIT:       7696 MISS:      26604
LLC RFO          ACCESS:      31000 HIT:       8777 MISS:      22223
LLC PREFETCH     ACCESS:          0 HIT:          0 MISS:          0
LLC WRITE        ACCESS:      36542 HIT:      36513 MISS:         29
LLC TRANSLATION  ACCESS:        703 HIT:         92 MISS:        611
LLC PREFETCH REQUESTED:          0 ISSUED:          0 USEFUL:          0 USELESS:          0
LLC AVERAGE MISS LATENCY: 542.4 cycles
cpu0_DTLB TOTAL        ACCESS:   21622327 HIT:   19610658 MISS:    2011669
cpu0_DTLB LOAD         ACCESS:   21622327 HIT:   19610658 MISS:    2011669
cpu0_DTLB RFO          ACCESS:          0 HIT:          0 MISS:          0
cpu0_DTLB PREFETCH     ACCESS:          0 HIT:          0 MISS:          0
cpu0_DTLB WRITE        ACCESS:          0 HIT:          0 MISS:          0
cpu0_DTLB TRANSLATION  ACCESS:          0 HIT:          0 MISS:          0
cpu0_DTLB PREFETCH REQUESTED:          0 ISSUED:          0 USEFUL:          0 USELESS:          0
cpu0_DTLB AVERAGE MISS LATENCY: 5.674 cycles
cpu0_ITLB TOTAL        ACCESS:     966541 HIT:     961527 MISS:       5014
cpu0_ITLB LOAD         ACCESS:     966541 HIT:     961527 MISS:       5014
cpu0_ITLB RFO          ACCESS:          0 HIT:          0 MISS:          0
cpu0_ITLB PREFETCH     ACCESS:          0 HIT:          0 MISS:          0
cpu0_ITLB WRITE        ACCESS:          0 HIT:          0 MISS:          0
cpu0_ITLB TRANSLATION  ACCESS:          0 HIT:          0 MISS:          0
cpu0_ITLB PREFETCH REQUESTED:          0 ISSUED:          0 USEFUL:          0 USELESS:          0
cpu0_ITLB AVERAGE MISS LATENCY: 12.49 cycles
cpu0_L1D TOTAL        ACCESS:   26950811 HIT:   26764144 MISS:     186667
cpu0_L1D LOAD         ACCESS:   20233361 HIT:   20151955 MISS:      81406
cpu0_L1D RFO          ACCESS:          0 HIT:          0 MISS:          0
cpu0_L1D PREFETCH     ACCESS:          0 HIT:          0 MISS:          0
cpu0_L1D WRITE        ACCESS:    6716255 HIT:    6611776 MISS:     104479
cpu0_L1D TRANSLATION  ACCESS:       1195 HIT:        413 MISS:        782
cpu0_L1D PREFETCH REQUESTED:          0 ISSUED:          0 USEFUL:          0 USELESS:          0
cpu0_L1D AVERAGE MISS LATENCY: 145.4 cycles
cpu0_L1I TOTAL        ACCESS:    1111595 HIT:    1073892 MISS:      37703
cpu0_L1I LOAD         ACCESS:    1111595 HIT:    1073892 MISS:      37703
cpu0_L1I RFO          ACCESS:          0 HIT:          0 MISS:          0
cpu0_L1I PREFETCH     ACCESS:          0 HIT:          0 MISS:          0
cpu0_L1I WRITE        ACCESS:          0 HIT:          0 MISS:          0
cpu0_L1I TRANSLATION  ACCESS:          0 HIT:          0 MISS:          0
cpu0_L1I PREFETCH REQUESTED:          0 ISSUED:          0 USEFUL:          0 USELESS:          0
cpu0_L1I AVERAGE MISS LATENCY: 43.54 cycles
cpu0_L2C TOTAL        ACCESS:     210883 HIT:     144826 MISS:      66057
cpu0_L2C LOAD         ACCESS:      85150 HIT:      50850 MISS:      34300
cpu0_L2C RFO          ACCESS:      54646 HIT:      23646 MISS:      31000
cpu0_L2C PREFETCH     ACCESS:          0 HIT:          0 MISS:          0
cpu0_L2C WRITE        ACCESS:      70314 HIT:      70260 MISS:         54
cpu0_L2C TRANSLATION  ACCESS:        773 HIT:         70 MISS:        703
cpu0_L2C PREFETCH REQUESTED:          0 ISSUED:          0 USEFUL:          0 USELESS:          0
cpu0_L2C AVERAGE MISS LATENCY: 426.9 cycles
cpu0_STLB TOTAL        ACCESS:    1564742 HIT:    1563652 MISS:       1090
cpu0_STLB LOAD         ACCESS:    1564742 HIT:    1563652 MISS:       1090
cpu0_STLB RFO          ACCESS:          0 HIT:          0 MISS:          0
cpu0_STLB PREFETCH     ACCESS:          0 HIT:          0 MISS:          0
cpu0_STLB WRITE        ACCESS:          0 HIT:          0 MISS:          0
cpu0_STLB TRANSLATION  ACCESS:          0 HIT:          0 MISS:          0
cpu0_STLB PREFETCH REQUESTED:          0 ISSUED:          0 USEFUL:          0 USELESS:          0
cpu0_STLB AVERAGE MISS LATENCY: 244.3 cycles

DRAM Statistics

Channel 0 RQ ROW_BUFFER_HIT:      19995
  ROW_BUFFER_MISS:      29419
 AVG DBUS CONGESTED CYCLE: 3.984
WQ ROW_BUFFER_HIT: Channel 0 
  ROW_BUFFER_MISS:       3495
  FULL:      25890
