WARNING: physical memory size is smaller than virtual memory size.

*** ChampSim Multicore Out-of-Order Simulator ***
Warmup Instructions: 25000000
Simulation Instructions: 100000000
Number of CPUs: 1
Page size: 4096

Off-chip DRAM Size: 4 GiB Channels: 1 Width: 64-bit Data Race: 3200 MT/s
Heartbeat CPU 0 instructions: 10000001 cycles: 2514787 heartbeat IPC: 3.976 cumulative IPC: 3.976 (Simulation time: 00 hr 00 min 19 sec)
Heartbeat CPU 0 instructions: 20000001 cycles: 5029628 heartbeat IPC: 3.976 cumulative IPC: 3.976 (Simulation time: 00 hr 00 min 38 sec)
Warmup finished CPU 0 instructions: 25000001 cycles: 6285291 cumulative IPC: 3.978 (Simulation time: 00 hr 00 min 48 sec)
Warmup complete CPU 0 instructions: 25000001 cycles: 6285291 cumulative IPC: 3.978 (Simulation time: 00 hr 00 min 48 sec)
Heartbeat CPU 0 instructions: 30000000 cycles: 10267408 heartbeat IPC: 1.909 cumulative IPC: 1.256 (Simulation time: 00 hr 01 min 06 sec)
Heartbeat CPU 0 instructions: 40000004 cycles: 18643302 heartbeat IPC: 1.194 cumulative IPC: 1.214 (Simulation time: 00 hr 01 min 43 sec)
Heartbeat CPU 0 instructions: 50000001 cycles: 26769761 heartbeat IPC: 1.231 cumulative IPC: 1.22 (Simulation time: 00 hr 02 min 20 sec)
Heartbeat CPU 0 instructions: 60000003 cycles: 35171687 heartbeat IPC: 1.19 cumulative IPC: 1.212 (Simulation time: 00 hr 02 min 58 sec)
Heartbeat CPU 0 instructions: 70000002 cycles: 44018640 heartbeat IPC: 1.13 cumulative IPC: 1.193 (Simulation time: 00 hr 03 min 37 sec)
Heartbeat CPU 0 instructions: 80000001 cycles: 52159077 heartbeat IPC: 1.228 cumulative IPC: 1.199 (Simulation time: 00 hr 04 min 14 sec)
Heartbeat CPU 0 instructions: 90000002 cycles: 60225206 heartbeat IPC: 1.24 cumulative IPC: 1.205 (Simulation time: 00 hr 04 min 50 sec)
Heartbeat CPU 0 instructions: 100000001 cycles: 68199569 heartbeat IPC: 1.254 cumulative IPC: 1.211 (Simulation time: 00 hr 05 min 27 sec)
*** Reached end of trace: (0, "../traces/secret_traces/compute_int/compute_int_416.champsimtrace.xz")
Heartbeat CPU 0 instructions: 110000004 cycles: 76441374 heartbeat IPC: 1.213 cumulative IPC: 1.212 (Simulation time: 00 hr 06 min 04 sec)
Heartbeat CPU 0 instructions: 120000003 cycles: 84466610 heartbeat IPC: 1.246 cumulative IPC: 1.215 (Simulation time: 00 hr 06 min 41 sec)
Simulation finished CPU 0 instructions: 100000000 cycles: 84427932 cumulative IPC: 1.184 (Simulation time: 00 hr 07 min 06 sec)
Simulation complete CPU 0 instructions: 100000000 cycles: 84427932 cumulative IPC: 1.184 (Simulation time: 00 hr 07 min 06 sec)

ChampSim completed all CPUs

=== Simulation ===
CPU 0 runs ../traces/secret_traces/compute_int/compute_int_416.champsimtrace.xz
Region of Interest Statistics

CPU 0 cumulative IPC: 1.184 instructions: 100000000 cycles: 84427932
CPU 0 Branch Prediction Accuracy: 82.65% MPKI: 31.75 Average ROB Occupancy at Mispredict: 9.257
Branch type MPKI
BRANCH_DIRECT_JUMP: 0.0136
BRANCH_INDIRECT: 13.9
BRANCH_CONDITIONAL: 17.7
BRANCH_DIRECT_CALL: 0.0289
BRANCH_INDIRECT_CALL: 0.0913
BRANCH_RETURN: 0.0153

LLC TOTAL        ACCESS:     292491 HIT:     241772 MISS:      50719
LLC LOAD         ACCESS:     129646 HIT:      93035 MISS:      36611
LLC RFO          ACCESS:      68587 HIT:      55863 MISS:      12724
LLC PREFETCH     ACCESS:          0 HIT:          0 MISS:          0
LLC WRITE        ACCESS:      88842 HIT:      88508 MISS:        334
LLC TRANSLATION  ACCESS:       5416 HIT:       4366 MISS:       1050
LLC PREFETCH REQUESTED:          0 ISSUED:          0 USEFUL:          0 USELESS:          0
LLC AVERAGE MISS LATENCY: 305.7 cycles
cpu0_DTLB TOTAL        ACCESS:   21179199 HIT:   20996889 MISS:     182310
cpu0_DTLB LOAD         ACCESS:   21179199 HIT:   20996889 MISS:     182310
cpu0_DTLB RFO          ACCESS:          0 HIT:          0 MISS:          0
cpu0_DTLB PREFETCH     ACCESS:          0 HIT:          0 MISS:          0
cpu0_DTLB WRITE        ACCESS:          0 HIT:          0 MISS:          0
cpu0_DTLB TRANSLATION  ACCESS:          0 HIT:          0 MISS:          0
cpu0_DTLB PREFETCH REQUESTED:          0 ISSUED:          0 USEFUL:          0 USELESS:          0
cpu0_DTLB AVERAGE MISS LATENCY: 6.665 cycles
cpu0_ITLB TOTAL        ACCESS:    5533731 HIT:    5512812 MISS:      20919
cpu0_ITLB LOAD         ACCESS:    5533731 HIT:    5512812 MISS:      20919
cpu0_ITLB RFO          ACCESS:          0 HIT:          0 MISS:          0
cpu0_ITLB PREFETCH     ACCESS:          0 HIT:          0 MISS:          0
cpu0_ITLB WRITE        ACCESS:          0 HIT:          0 MISS:          0
cpu0_ITLB TRANSLATION  ACCESS:          0 HIT:          0 MISS:          0
cpu0_ITLB PREFETCH REQUESTED:          0 ISSUED:          0 USEFUL:          0 USELESS:          0
cpu0_ITLB AVERAGE MISS LATENCY: 6.006 cycles
cpu0_L1D TOTAL        ACCESS:   25094131 HIT:   23881406 MISS:    1212725
cpu0_L1D LOAD         ACCESS:   17292556 HIT:   16759579 MISS:     532977
cpu0_L1D RFO          ACCESS:          0 HIT:          0 MISS:          0
cpu0_L1D PREFETCH     ACCESS:          0 HIT:          0 MISS:          0
cpu0_L1D WRITE        ACCESS:    7791464 HIT:    7120709 MISS:     670755
cpu0_L1D TRANSLATION  ACCESS:      10111 HIT:       1118 MISS:       8993
cpu0_L1D PREFETCH REQUESTED:          0 ISSUED:          0 USEFUL:          0 USELESS:          0
cpu0_L1D AVERAGE MISS LATENCY: 18.33 cycles
cpu0_L1I TOTAL        ACCESS:    6308029 HIT:    5454799 MISS:     853230
cpu0_L1I LOAD         ACCESS:    6308029 HIT:    5454799 MISS:     853230
cpu0_L1I RFO          ACCESS:          0 HIT:          0 MISS:          0
cpu0_L1I PREFETCH     ACCESS:          0 HIT:          0 MISS:          0
cpu0_L1I WRITE        ACCESS:          0 HIT:          0 MISS:          0
cpu0_L1I TRANSLATION  ACCESS:          0 HIT:          0 MISS:          0
cpu0_L1I PREFETCH REQUESTED:          0 ISSUED:          0 USEFUL:          0 USELESS:          0
cpu0_L1I AVERAGE MISS LATENCY: 8.741 cycles
cpu0_L2C TOTAL        ACCESS:    1383372 HIT:    1179644 MISS:     203728
cpu0_L2C LOAD         ACCESS:     930690 HIT:     801044 MISS:     129646
cpu0_L2C RFO          ACCESS:     198735 HIT:     130148 MISS:      68587
cpu0_L2C PREFETCH     ACCESS:          0 HIT:          0 MISS:          0
cpu0_L2C WRITE        ACCESS:     244960 HIT:     244881 MISS:         79
cpu0_L2C TRANSLATION  ACCESS:       8987 HIT:       3571 MISS:       5416
cpu0_L2C PREFETCH REQUESTED:          0 ISSUED:          0 USEFUL:          0 USELESS:          0
cpu0_L2C AVERAGE MISS LATENCY: 96.39 cycles
cpu0_STLB TOTAL        ACCESS:     103301 HIT:      93290 MISS:      10011
cpu0_STLB LOAD         ACCESS:     103301 HIT:      93290 MISS:      10011
cpu0_STLB RFO          ACCESS:          0 HIT:          0 MISS:          0
cpu0_STLB PREFETCH     ACCESS:          0 HIT:          0 MISS:          0
cpu0_STLB WRITE        ACCESS:          0 HIT:          0 MISS:          0
cpu0_STLB TRANSLATION  ACCESS:          0 HIT:          0 MISS:          0
cpu0_STLB PREFETCH REQUESTED:          0 ISSUED:          0 USEFUL:          0 USELESS:          0
cpu0_STLB AVERAGE MISS LATENCY: 67.91 cycles

DRAM Statistics

Channel 0 RQ ROW_BUFFER_HIT:      10727
  ROW_BUFFER_MISS:      39633
 AVG DBUS CONGESTED CYCLE: 3.957
WQ ROW_BUFFER_HIT: Channel 0 
  ROW_BUFFER_MISS:       5260
  FULL:      24624
