WARNING: physical memory size is smaller than virtual memory size.

*** ChampSim Multicore Out-of-Order Simulator ***
Warmup Instructions: 25000000
Simulation Instructions: 100000000
Number of CPUs: 1
Page size: 4096

Off-chip DRAM Size: 4 GiB Channels: 1 Width: 64-bit Data Race: 3200 MT/s
Heartbeat CPU 0 instructions: 10000000 cycles: 2512001 heartbeat IPC: 3.981 cumulative IPC: 3.981 (Simulation time: 00 hr 00 min 21 sec)
Heartbeat CPU 0 instructions: 20000001 cycles: 5020020 heartbeat IPC: 3.987 cumulative IPC: 3.984 (Simulation time: 00 hr 00 min 41 sec)
Warmup finished CPU 0 instructions: 25000003 cycles: 6270374 cumulative IPC: 3.987 (Simulation time: 00 hr 00 min 51 sec)
Warmup complete CPU 0 instructions: 25000003 cycles: 6270374 cumulative IPC: 3.987 (Simulation time: 00 hr 00 min 51 sec)
Heartbeat CPU 0 instructions: 30000002 cycles: 11298523 heartbeat IPC: 1.593 cumulative IPC: 0.9944 (Simulation time: 00 hr 01 min 13 sec)
Heartbeat CPU 0 instructions: 40000002 cycles: 22798122 heartbeat IPC: 0.8696 cumulative IPC: 0.9076 (Simulation time: 00 hr 02 min 02 sec)
Heartbeat CPU 0 instructions: 50000002 cycles: 31004355 heartbeat IPC: 1.219 cumulative IPC: 1.011 (Simulation time: 00 hr 02 min 42 sec)
Heartbeat CPU 0 instructions: 60000000 cycles: 37550503 heartbeat IPC: 1.528 cumulative IPC: 1.119 (Simulation time: 00 hr 03 min 19 sec)
Heartbeat CPU 0 instructions: 70000001 cycles: 50252381 heartbeat IPC: 0.7873 cumulative IPC: 1.023 (Simulation time: 00 hr 04 min 11 sec)
Heartbeat CPU 0 instructions: 80000000 cycles: 59150170 heartbeat IPC: 1.124 cumulative IPC: 1.04 (Simulation time: 00 hr 04 min 53 sec)
Heartbeat CPU 0 instructions: 90000002 cycles: 72692418 heartbeat IPC: 0.7384 cumulative IPC: 0.9786 (Simulation time: 00 hr 05 min 48 sec)
Heartbeat CPU 0 instructions: 100000001 cycles: 82799908 heartbeat IPC: 0.9894 cumulative IPC: 0.98 (Simulation time: 00 hr 06 min 32 sec)
*** Reached end of trace: (0, "../traces/secret_traces/compute_int/compute_int_377.champsimtrace.xz")
Heartbeat CPU 0 instructions: 110000000 cycles: 93160786 heartbeat IPC: 0.9652 cumulative IPC: 0.9782 (Simulation time: 00 hr 07 min 19 sec)
Heartbeat CPU 0 instructions: 120000001 cycles: 101747145 heartbeat IPC: 1.165 cumulative IPC: 0.995 (Simulation time: 00 hr 08 min 00 sec)
Simulation finished CPU 0 instructions: 100000003 cycles: 98856990 cumulative IPC: 1.012 (Simulation time: 00 hr 08 min 17 sec)
Simulation complete CPU 0 instructions: 100000003 cycles: 98856990 cumulative IPC: 1.012 (Simulation time: 00 hr 08 min 17 sec)

ChampSim completed all CPUs

=== Simulation ===
CPU 0 runs ../traces/secret_traces/compute_int/compute_int_377.champsimtrace.xz
Region of Interest Statistics

CPU 0 cumulative IPC: 1.012 instructions: 100000003 cycles: 98856990
CPU 0 Branch Prediction Accuracy: 90.54% MPKI: 18.12 Average ROB Occupancy at Mispredict: 23.39
Branch type MPKI
BRANCH_DIRECT_JUMP: 0.249
BRANCH_INDIRECT: 6.94
BRANCH_CONDITIONAL: 8.97
BRANCH_DIRECT_CALL: 0.334
BRANCH_INDIRECT_CALL: 1.14
BRANCH_RETURN: 0.486

LLC TOTAL        ACCESS:     905303 HIT:     501054 MISS:     404249
LLC LOAD         ACCESS:     536687 HIT:     258755 MISS:     277932
LLC RFO          ACCESS:     134324 HIT:      25350 MISS:     108974
LLC PREFETCH     ACCESS:          0 HIT:          0 MISS:          0
LLC WRITE        ACCESS:     210101 HIT:     209903 MISS:        198
LLC TRANSLATION  ACCESS:      24191 HIT:       7046 MISS:      17145
LLC PREFETCH REQUESTED:          0 ISSUED:          0 USEFUL:          0 USELESS:          0
LLC AVERAGE MISS LATENCY: 190.4 cycles
cpu0_DTLB TOTAL        ACCESS:   24809112 HIT:   23774608 MISS:    1034504
cpu0_DTLB LOAD         ACCESS:   24809112 HIT:   23774608 MISS:    1034504
cpu0_DTLB RFO          ACCESS:          0 HIT:          0 MISS:          0
cpu0_DTLB PREFETCH     ACCESS:          0 HIT:          0 MISS:          0
cpu0_DTLB WRITE        ACCESS:          0 HIT:          0 MISS:          0
cpu0_DTLB TRANSLATION  ACCESS:          0 HIT:          0 MISS:          0
cpu0_DTLB PREFETCH REQUESTED:          0 ISSUED:          0 USEFUL:          0 USELESS:          0
cpu0_DTLB AVERAGE MISS LATENCY: 8.311 cycles
cpu0_ITLB TOTAL        ACCESS:    4326413 HIT:    4050172 MISS:     276241
cpu0_ITLB LOAD         ACCESS:    4326413 HIT:    4050172 MISS:     276241
cpu0_ITLB RFO          ACCESS:          0 HIT:          0 MISS:          0
cpu0_ITLB PREFETCH     ACCESS:          0 HIT:          0 MISS:          0
cpu0_ITLB WRITE        ACCESS:          0 HIT:          0 MISS:          0
cpu0_ITLB TRANSLATION  ACCESS:          0 HIT:          0 MISS:          0
cpu0_ITLB PREFETCH REQUESTED:          0 ISSUED:          0 USEFUL:          0 USELESS:          0
cpu0_ITLB AVERAGE MISS LATENCY: 6.931 cycles
cpu0_L1D TOTAL        ACCESS:   31192378 HIT:   28683042 MISS:    2509336
cpu0_L1D LOAD         ACCESS:   23003384 HIT:   21315680 MISS:    1687704
cpu0_L1D RFO          ACCESS:          0 HIT:          0 MISS:          0
cpu0_L1D PREFETCH     ACCESS:          0 HIT:          0 MISS:          0
cpu0_L1D WRITE        ACCESS:    8154317 HIT:    7363049 MISS:     791268
cpu0_L1D TRANSLATION  ACCESS:      34677 HIT:       4313 MISS:      30364
cpu0_L1D PREFETCH REQUESTED:          0 ISSUED:          0 USEFUL:          0 USELESS:          0
cpu0_L1D AVERAGE MISS LATENCY: 34.1 cycles
cpu0_L1I TOTAL        ACCESS:    4941143 HIT:    4223181 MISS:     717962
cpu0_L1I LOAD         ACCESS:    4941143 HIT:    4223181 MISS:     717962
cpu0_L1I RFO          ACCESS:          0 HIT:          0 MISS:          0
cpu0_L1I PREFETCH     ACCESS:          0 HIT:          0 MISS:          0
cpu0_L1I WRITE        ACCESS:          0 HIT:          0 MISS:          0
cpu0_L1I TRANSLATION  ACCESS:          0 HIT:          0 MISS:          0
cpu0_L1I PREFETCH REQUESTED:          0 ISSUED:          0 USEFUL:          0 USELESS:          0
cpu0_L1I AVERAGE MISS LATENCY: 26.48 cycles
cpu0_L2C TOTAL        ACCESS:    2124477 HIT:    1428467 MISS:     696010
cpu0_L2C LOAD         ACCESS:    1641699 HIT:    1105012 MISS:     536687
cpu0_L2C RFO          ACCESS:     169465 HIT:      35141 MISS:     134324
cpu0_L2C PREFETCH     ACCESS:          0 HIT:          0 MISS:          0
cpu0_L2C WRITE        ACCESS:     283038 HIT:     282230 MISS:        808
cpu0_L2C TRANSLATION  ACCESS:      30275 HIT:       6084 MISS:      24191
cpu0_L2C PREFETCH REQUESTED:          0 ISSUED:          0 USEFUL:          0 USELESS:          0
cpu0_L2C AVERAGE MISS LATENCY: 131.2 cycles
cpu0_STLB TOTAL        ACCESS:     847056 HIT:     814663 MISS:      32393
cpu0_STLB LOAD         ACCESS:     847056 HIT:     814663 MISS:      32393
cpu0_STLB RFO          ACCESS:          0 HIT:          0 MISS:          0
cpu0_STLB PREFETCH     ACCESS:          0 HIT:          0 MISS:          0
cpu0_STLB WRITE        ACCESS:          0 HIT:          0 MISS:          0
cpu0_STLB TRANSLATION  ACCESS:          0 HIT:          0 MISS:          0
cpu0_STLB PREFETCH REQUESTED:          0 ISSUED:          0 USEFUL:          0 USELESS:          0
cpu0_STLB AVERAGE MISS LATENCY: 159.6 cycles

DRAM Statistics

Channel 0 RQ ROW_BUFFER_HIT:     106663
  ROW_BUFFER_MISS:     297371
 AVG DBUS CONGESTED CYCLE: 3.906
WQ ROW_BUFFER_HIT: Channel 0 
  ROW_BUFFER_MISS:      42984
  FULL:     105120
