WARNING: physical memory size is smaller than virtual memory size.

*** ChampSim Multicore Out-of-Order Simulator ***
Warmup Instructions: 25000000
Simulation Instructions: 100000000
Number of CPUs: 1
Page size: 4096

Off-chip DRAM Size: 4 GiB Channels: 1 Width: 64-bit Data Race: 3200 MT/s
Heartbeat CPU 0 instructions: 10000001 cycles: 2523042 heartbeat IPC: 3.963 cumulative IPC: 3.963 (Simulation time: 00 hr 00 min 20 sec)
Heartbeat CPU 0 instructions: 20000001 cycles: 5023042 heartbeat IPC: 4 cumulative IPC: 3.982 (Simulation time: 00 hr 00 min 39 sec)
Warmup finished CPU 0 instructions: 25000001 cycles: 6273043 cumulative IPC: 3.985 (Simulation time: 00 hr 00 min 48 sec)
Warmup complete CPU 0 instructions: 25000001 cycles: 6273043 cumulative IPC: 3.985 (Simulation time: 00 hr 00 min 48 sec)
Heartbeat CPU 0 instructions: 30000003 cycles: 7972929 heartbeat IPC: 3.39 cumulative IPC: 2.941 (Simulation time: 00 hr 01 min 01 sec)
Heartbeat CPU 0 instructions: 40000004 cycles: 11481979 heartbeat IPC: 2.85 cumulative IPC: 2.88 (Simulation time: 00 hr 01 min 26 sec)
Heartbeat CPU 0 instructions: 50000002 cycles: 14946155 heartbeat IPC: 2.887 cumulative IPC: 2.882 (Simulation time: 00 hr 01 min 51 sec)
Heartbeat CPU 0 instructions: 60000000 cycles: 18402092 heartbeat IPC: 2.894 cumulative IPC: 2.886 (Simulation time: 00 hr 02 min 15 sec)
Heartbeat CPU 0 instructions: 70000002 cycles: 21847162 heartbeat IPC: 2.903 cumulative IPC: 2.889 (Simulation time: 00 hr 02 min 39 sec)
Heartbeat CPU 0 instructions: 80000002 cycles: 25304621 heartbeat IPC: 2.892 cumulative IPC: 2.89 (Simulation time: 00 hr 03 min 03 sec)
Heartbeat CPU 0 instructions: 90000000 cycles: 28690986 heartbeat IPC: 2.953 cumulative IPC: 2.899 (Simulation time: 00 hr 03 min 28 sec)
Heartbeat CPU 0 instructions: 100000000 cycles: 32289216 heartbeat IPC: 2.779 cumulative IPC: 2.883 (Simulation time: 00 hr 03 min 53 sec)
*** Reached end of trace: (0, "../traces/secret_traces/compute_fp/compute_fp_109.champsimtrace.xz")
Heartbeat CPU 0 instructions: 110000001 cycles: 39165113 heartbeat IPC: 1.454 cumulative IPC: 2.584 (Simulation time: 00 hr 04 min 29 sec)
Heartbeat CPU 0 instructions: 120000000 cycles: 42775779 heartbeat IPC: 2.77 cumulative IPC: 2.603 (Simulation time: 00 hr 04 min 54 sec)
Simulation finished CPU 0 instructions: 100000004 cycles: 38181966 cumulative IPC: 2.619 (Simulation time: 00 hr 05 min 06 sec)
Simulation complete CPU 0 instructions: 100000004 cycles: 38181966 cumulative IPC: 2.619 (Simulation time: 00 hr 05 min 06 sec)

ChampSim completed all CPUs

=== Simulation ===
CPU 0 runs ../traces/secret_traces/compute_fp/compute_fp_109.champsimtrace.xz
Region of Interest Statistics

CPU 0 cumulative IPC: 2.619 instructions: 100000004 cycles: 38181966
CPU 0 Branch Prediction Accuracy: 93.44% MPKI: 7.1 Average ROB Occupancy at Mispredict: 48.26
Branch type MPKI
BRANCH_DIRECT_JUMP: 0.00837
BRANCH_INDIRECT: 0.906
BRANCH_CONDITIONAL: 6.14
BRANCH_DIRECT_CALL: 0.0212
BRANCH_INDIRECT_CALL: 0.00806
BRANCH_RETURN: 0.0116

LLC TOTAL        ACCESS:      88227 HIT:      49380 MISS:      38847
LLC LOAD         ACCESS:      28938 HIT:       9082 MISS:      19856
LLC RFO          ACCESS:      28335 HIT:       9911 MISS:      18424
LLC PREFETCH     ACCESS:          0 HIT:          0 MISS:          0
LLC WRITE        ACCESS:      30353 HIT:      30321 MISS:         32
LLC TRANSLATION  ACCESS:        601 HIT:         66 MISS:        535
LLC PREFETCH REQUESTED:          0 ISSUED:          0 USEFUL:          0 USELESS:          0
LLC AVERAGE MISS LATENCY: 461.5 cycles
cpu0_DTLB TOTAL        ACCESS:   19205838 HIT:   18661814 MISS:     544024
cpu0_DTLB LOAD         ACCESS:   19205838 HIT:   18661814 MISS:     544024
cpu0_DTLB RFO          ACCESS:          0 HIT:          0 MISS:          0
cpu0_DTLB PREFETCH     ACCESS:          0 HIT:          0 MISS:          0
cpu0_DTLB WRITE        ACCESS:          0 HIT:          0 MISS:          0
cpu0_DTLB TRANSLATION  ACCESS:          0 HIT:          0 MISS:          0
cpu0_DTLB PREFETCH REQUESTED:          0 ISSUED:          0 USEFUL:          0 USELESS:          0
cpu0_DTLB AVERAGE MISS LATENCY: 4.32 cycles
cpu0_ITLB TOTAL        ACCESS:    4253679 HIT:    4246622 MISS:       7057
cpu0_ITLB LOAD         ACCESS:    4253679 HIT:    4246622 MISS:       7057
cpu0_ITLB RFO          ACCESS:          0 HIT:          0 MISS:          0
cpu0_ITLB PREFETCH     ACCESS:          0 HIT:          0 MISS:          0
cpu0_ITLB WRITE        ACCESS:          0 HIT:          0 MISS:          0
cpu0_ITLB TRANSLATION  ACCESS:          0 HIT:          0 MISS:          0
cpu0_ITLB PREFETCH REQUESTED:          0 ISSUED:          0 USEFUL:          0 USELESS:          0
cpu0_ITLB AVERAGE MISS LATENCY: 9.108 cycles
cpu0_L1D TOTAL        ACCESS:   24877133 HIT:   24609235 MISS:     267898
cpu0_L1D LOAD         ACCESS:   15744409 HIT:   15576984 MISS:     167425
cpu0_L1D RFO          ACCESS:          0 HIT:          0 MISS:          0
cpu0_L1D PREFETCH     ACCESS:          0 HIT:          0 MISS:          0
cpu0_L1D WRITE        ACCESS:    9131759 HIT:    9031974 MISS:      99785
cpu0_L1D TRANSLATION  ACCESS:        965 HIT:        277 MISS:        688
cpu0_L1D PREFETCH REQUESTED:          0 ISSUED:          0 USEFUL:          0 USELESS:          0
cpu0_L1D AVERAGE MISS LATENCY: 70.69 cycles
cpu0_L1I TOTAL        ACCESS:    4996841 HIT:    4889901 MISS:     106940
cpu0_L1I LOAD         ACCESS:    4996841 HIT:    4889901 MISS:     106940
cpu0_L1I RFO          ACCESS:          0 HIT:          0 MISS:          0
cpu0_L1I PREFETCH     ACCESS:          0 HIT:          0 MISS:          0
cpu0_L1I WRITE        ACCESS:          0 HIT:          0 MISS:          0
cpu0_L1I TRANSLATION  ACCESS:          0 HIT:          0 MISS:          0
cpu0_L1I PREFETCH REQUESTED:          0 ISSUED:          0 USEFUL:          0 USELESS:          0
cpu0_L1I AVERAGE MISS LATENCY: 17.77 cycles
cpu0_L2C TOTAL        ACCESS:     281426 HIT:     223548 MISS:      57878
cpu0_L2C LOAD         ACCESS:     172501 HIT:     143563 MISS:      28938
cpu0_L2C RFO          ACCESS:      49132 HIT:      20797 MISS:      28335
cpu0_L2C PREFETCH     ACCESS:          0 HIT:          0 MISS:          0
cpu0_L2C WRITE        ACCESS:      59110 HIT:      59106 MISS:          4
cpu0_L2C TRANSLATION  ACCESS:        683 HIT:         82 MISS:        601
cpu0_L2C PREFETCH REQUESTED:          0 ISSUED:          0 USEFUL:          0 USELESS:          0
cpu0_L2C AVERAGE MISS LATENCY: 330.5 cycles
cpu0_STLB TOTAL        ACCESS:     342196 HIT:     341320 MISS:        876
cpu0_STLB LOAD         ACCESS:     342196 HIT:     341320 MISS:        876
cpu0_STLB RFO          ACCESS:          0 HIT:          0 MISS:          0
cpu0_STLB PREFETCH     ACCESS:          0 HIT:          0 MISS:          0
cpu0_STLB WRITE        ACCESS:          0 HIT:          0 MISS:          0
cpu0_STLB TRANSLATION  ACCESS:          0 HIT:          0 MISS:          0
cpu0_STLB PREFETCH REQUESTED:          0 ISSUED:          0 USEFUL:          0 USELESS:          0
cpu0_STLB AVERAGE MISS LATENCY: 231.4 cycles

DRAM Statistics

Channel 0 RQ ROW_BUFFER_HIT:      16928
  ROW_BUFFER_MISS:      21887
 AVG DBUS CONGESTED CYCLE: 3.983
WQ ROW_BUFFER_HIT: Channel 0 
  ROW_BUFFER_MISS:       2817
  FULL:      18835
