WARNING: physical memory size is smaller than virtual memory size.

*** ChampSim Multicore Out-of-Order Simulator ***
Warmup Instructions: 25000000
Simulation Instructions: 100000000
Number of CPUs: 1
Page size: 4096

Off-chip DRAM Size: 4 GiB Channels: 1 Width: 64-bit Data Race: 3200 MT/s
Heartbeat CPU 0 instructions: 10000004 cycles: 2567073 heartbeat IPC: 3.895 cumulative IPC: 3.895 (Simulation time: 00 hr 00 min 18 sec)
Heartbeat CPU 0 instructions: 20000001 cycles: 5116767 heartbeat IPC: 3.922 cumulative IPC: 3.909 (Simulation time: 00 hr 00 min 36 sec)
Warmup finished CPU 0 instructions: 25000000 cycles: 6390364 cumulative IPC: 3.912 (Simulation time: 00 hr 00 min 46 sec)
Warmup complete CPU 0 instructions: 25000000 cycles: 6390364 cumulative IPC: 3.912 (Simulation time: 00 hr 00 min 46 sec)
Heartbeat CPU 0 instructions: 30000001 cycles: 8178719 heartbeat IPC: 3.266 cumulative IPC: 2.796 (Simulation time: 00 hr 00 min 58 sec)
Heartbeat CPU 0 instructions: 40000002 cycles: 11772640 heartbeat IPC: 2.782 cumulative IPC: 2.787 (Simulation time: 00 hr 01 min 22 sec)
Heartbeat CPU 0 instructions: 50000000 cycles: 15323551 heartbeat IPC: 2.816 cumulative IPC: 2.799 (Simulation time: 00 hr 01 min 47 sec)
Heartbeat CPU 0 instructions: 60000002 cycles: 18786325 heartbeat IPC: 2.888 cumulative IPC: 2.824 (Simulation time: 00 hr 02 min 11 sec)
Heartbeat CPU 0 instructions: 70000002 cycles: 22240004 heartbeat IPC: 2.895 cumulative IPC: 2.839 (Simulation time: 00 hr 02 min 35 sec)
Heartbeat CPU 0 instructions: 80000002 cycles: 25781781 heartbeat IPC: 2.823 cumulative IPC: 2.836 (Simulation time: 00 hr 02 min 59 sec)
Heartbeat CPU 0 instructions: 90000001 cycles: 29299560 heartbeat IPC: 2.843 cumulative IPC: 2.837 (Simulation time: 00 hr 03 min 24 sec)
Heartbeat CPU 0 instructions: 100000003 cycles: 32759160 heartbeat IPC: 2.891 cumulative IPC: 2.844 (Simulation time: 00 hr 03 min 48 sec)
*** Reached end of trace: (0, "../traces/secret_traces/compute_fp/compute_fp_43.champsimtrace.xz")
Heartbeat CPU 0 instructions: 110000000 cycles: 40286235 heartbeat IPC: 1.329 cumulative IPC: 2.508 (Simulation time: 00 hr 04 min 25 sec)
Heartbeat CPU 0 instructions: 120000000 cycles: 43977404 heartbeat IPC: 2.709 cumulative IPC: 2.527 (Simulation time: 00 hr 04 min 50 sec)
Simulation finished CPU 0 instructions: 100000001 cycles: 39333217 cumulative IPC: 2.542 (Simulation time: 00 hr 05 min 02 sec)
Simulation complete CPU 0 instructions: 100000001 cycles: 39333217 cumulative IPC: 2.542 (Simulation time: 00 hr 05 min 02 sec)

ChampSim completed all CPUs

=== Simulation ===
CPU 0 runs ../traces/secret_traces/compute_fp/compute_fp_43.champsimtrace.xz
Region of Interest Statistics

CPU 0 cumulative IPC: 2.542 instructions: 100000001 cycles: 39333217
CPU 0 Branch Prediction Accuracy: 96.22% MPKI: 5.988 Average ROB Occupancy at Mispredict: 30.34
Branch type MPKI
BRANCH_DIRECT_JUMP: 0.00776
BRANCH_INDIRECT: 0.487
BRANCH_CONDITIONAL: 5.45
BRANCH_DIRECT_CALL: 0.0211
BRANCH_INDIRECT_CALL: 0.00993
BRANCH_RETURN: 0.0116

LLC TOTAL        ACCESS:     134251 HIT:      64330 MISS:      69921
LLC LOAD         ACCESS:      59101 HIT:      11654 MISS:      47447
LLC RFO          ACCESS:      28869 HIT:       7766 MISS:      21103
LLC PREFETCH     ACCESS:          0 HIT:          0 MISS:          0
LLC WRITE        ACCESS:      45091 HIT:      44715 MISS:        376
LLC TRANSLATION  ACCESS:       1190 HIT:        195 MISS:        995
LLC PREFETCH REQUESTED:          0 ISSUED:          0 USEFUL:          0 USELESS:          0
LLC AVERAGE MISS LATENCY: 411 cycles
cpu0_DTLB TOTAL        ACCESS:   24173192 HIT:   24141891 MISS:      31301
cpu0_DTLB LOAD         ACCESS:   24173192 HIT:   24141891 MISS:      31301
cpu0_DTLB RFO          ACCESS:          0 HIT:          0 MISS:          0
cpu0_DTLB PREFETCH     ACCESS:          0 HIT:          0 MISS:          0
cpu0_DTLB WRITE        ACCESS:          0 HIT:          0 MISS:          0
cpu0_DTLB TRANSLATION  ACCESS:          0 HIT:          0 MISS:          0
cpu0_DTLB PREFETCH REQUESTED:          0 ISSUED:          0 USEFUL:          0 USELESS:          0
cpu0_DTLB AVERAGE MISS LATENCY: 14.16 cycles
cpu0_ITLB TOTAL        ACCESS:     105164 HIT:      99805 MISS:       5359
cpu0_ITLB LOAD         ACCESS:     105164 HIT:      99805 MISS:       5359
cpu0_ITLB RFO          ACCESS:          0 HIT:          0 MISS:          0
cpu0_ITLB PREFETCH     ACCESS:          0 HIT:          0 MISS:          0
cpu0_ITLB WRITE        ACCESS:          0 HIT:          0 MISS:          0
cpu0_ITLB TRANSLATION  ACCESS:          0 HIT:          0 MISS:          0
cpu0_ITLB PREFETCH REQUESTED:          0 ISSUED:          0 USEFUL:          0 USELESS:          0
cpu0_ITLB AVERAGE MISS LATENCY: 14.1 cycles
cpu0_L1D TOTAL        ACCESS:   33085171 HIT:   32126379 MISS:     958792
cpu0_L1D LOAD         ACCESS:   27751187 HIT:   27252726 MISS:     498461
cpu0_L1D RFO          ACCESS:          0 HIT:          0 MISS:          0
cpu0_L1D PREFETCH     ACCESS:          0 HIT:          0 MISS:          0
cpu0_L1D WRITE        ACCESS:    5331658 HIT:    4873054 MISS:     458604
cpu0_L1D TRANSLATION  ACCESS:       2326 HIT:        599 MISS:       1727
cpu0_L1D PREFETCH REQUESTED:          0 ISSUED:          0 USEFUL:          0 USELESS:          0
cpu0_L1D AVERAGE MISS LATENCY: 30.68 cycles
cpu0_L1I TOTAL        ACCESS:     118458 HIT:      92283 MISS:      26175
cpu0_L1I LOAD         ACCESS:     118458 HIT:      92283 MISS:      26175
cpu0_L1I RFO          ACCESS:          0 HIT:          0 MISS:          0
cpu0_L1I PREFETCH     ACCESS:          0 HIT:          0 MISS:          0
cpu0_L1I WRITE        ACCESS:          0 HIT:          0 MISS:          0
cpu0_L1I TRANSLATION  ACCESS:          0 HIT:          0 MISS:          0
cpu0_L1I PREFETCH REQUESTED:          0 ISSUED:          0 USEFUL:          0 USELESS:          0
cpu0_L1I AVERAGE MISS LATENCY: 59.74 cycles
cpu0_L2C TOTAL        ACCESS:     402977 HIT:     313813 MISS:      89164
cpu0_L2C LOAD         ACCESS:     204293 HIT:     145192 MISS:      59101
cpu0_L2C RFO          ACCESS:      84046 HIT:      55177 MISS:      28869
cpu0_L2C PREFETCH     ACCESS:          0 HIT:          0 MISS:          0
cpu0_L2C WRITE        ACCESS:     112915 HIT:     112911 MISS:          4
cpu0_L2C TRANSLATION  ACCESS:       1723 HIT:        533 MISS:       1190
cpu0_L2C PREFETCH REQUESTED:          0 ISSUED:          0 USEFUL:          0 USELESS:          0
cpu0_L2C AVERAGE MISS LATENCY: 343.2 cycles
cpu0_STLB TOTAL        ACCESS:      18527 HIT:      16350 MISS:       2177
cpu0_STLB LOAD         ACCESS:      18527 HIT:      16350 MISS:       2177
cpu0_STLB RFO          ACCESS:          0 HIT:          0 MISS:          0
cpu0_STLB PREFETCH     ACCESS:          0 HIT:          0 MISS:          0
cpu0_STLB WRITE        ACCESS:          0 HIT:          0 MISS:          0
cpu0_STLB TRANSLATION  ACCESS:          0 HIT:          0 MISS:          0
cpu0_STLB PREFETCH REQUESTED:          0 ISSUED:          0 USEFUL:          0 USELESS:          0
cpu0_STLB AVERAGE MISS LATENCY: 215.4 cycles

DRAM Statistics

Channel 0 RQ ROW_BUFFER_HIT:      25717
  ROW_BUFFER_MISS:      43826
 AVG DBUS CONGESTED CYCLE: 3.972
WQ ROW_BUFFER_HIT: Channel 0 
  ROW_BUFFER_MISS:       7042
  FULL:      32109
