WARNING: physical memory size is smaller than virtual memory size.

*** ChampSim Multicore Out-of-Order Simulator ***
Warmup Instructions: 25000000
Simulation Instructions: 100000000
Number of CPUs: 1
Page size: 4096

Off-chip DRAM Size: 4 GiB Channels: 1 Width: 64-bit Data Race: 3200 MT/s
Heartbeat CPU 0 instructions: 10000001 cycles: 2523162 heartbeat IPC: 3.963 cumulative IPC: 3.963 (Simulation time: 00 hr 00 min 19 sec)
Heartbeat CPU 0 instructions: 20000003 cycles: 5023230 heartbeat IPC: 4 cumulative IPC: 3.982 (Simulation time: 00 hr 00 min 38 sec)
Warmup finished CPU 0 instructions: 25000003 cycles: 6273231 cumulative IPC: 3.985 (Simulation time: 00 hr 00 min 48 sec)
Warmup complete CPU 0 instructions: 25000003 cycles: 6273231 cumulative IPC: 3.985 (Simulation time: 00 hr 00 min 48 sec)
Heartbeat CPU 0 instructions: 30000004 cycles: 11195649 heartbeat IPC: 1.62 cumulative IPC: 1.016 (Simulation time: 00 hr 01 min 16 sec)
Heartbeat CPU 0 instructions: 40000002 cycles: 20932833 heartbeat IPC: 1.027 cumulative IPC: 1.023 (Simulation time: 00 hr 02 min 13 sec)
Heartbeat CPU 0 instructions: 50000002 cycles: 26663456 heartbeat IPC: 1.745 cumulative IPC: 1.226 (Simulation time: 00 hr 02 min 50 sec)
Heartbeat CPU 0 instructions: 60000001 cycles: 31559349 heartbeat IPC: 2.043 cumulative IPC: 1.384 (Simulation time: 00 hr 03 min 23 sec)
Heartbeat CPU 0 instructions: 70000000 cycles: 36456814 heartbeat IPC: 2.042 cumulative IPC: 1.491 (Simulation time: 00 hr 03 min 56 sec)
Heartbeat CPU 0 instructions: 80000004 cycles: 41319876 heartbeat IPC: 2.056 cumulative IPC: 1.569 (Simulation time: 00 hr 04 min 30 sec)
Heartbeat CPU 0 instructions: 90000003 cycles: 46185215 heartbeat IPC: 2.055 cumulative IPC: 1.629 (Simulation time: 00 hr 05 min 03 sec)
Heartbeat CPU 0 instructions: 100000002 cycles: 51094330 heartbeat IPC: 2.037 cumulative IPC: 1.673 (Simulation time: 00 hr 05 min 36 sec)
*** Reached end of trace: (0, "../traces/secret_traces/compute_fp/compute_fp_57.champsimtrace.xz")
Heartbeat CPU 0 instructions: 110000002 cycles: 63588175 heartbeat IPC: 0.8004 cumulative IPC: 1.483 (Simulation time: 00 hr 06 min 40 sec)
Heartbeat CPU 0 instructions: 120000003 cycles: 73451345 heartbeat IPC: 1.014 cumulative IPC: 1.414 (Simulation time: 00 hr 07 min 38 sec)
Simulation finished CPU 0 instructions: 100000004 cycles: 71972319 cumulative IPC: 1.389 (Simulation time: 00 hr 08 min 06 sec)
Simulation complete CPU 0 instructions: 100000004 cycles: 71972319 cumulative IPC: 1.389 (Simulation time: 00 hr 08 min 06 sec)

ChampSim completed all CPUs

=== Simulation ===
CPU 0 runs ../traces/secret_traces/compute_fp/compute_fp_57.champsimtrace.xz
Region of Interest Statistics

CPU 0 cumulative IPC: 1.389 instructions: 100000004 cycles: 71972319
CPU 0 Branch Prediction Accuracy: 95.64% MPKI: 0.5169 Average ROB Occupancy at Mispredict: 68.68
Branch type MPKI
BRANCH_DIRECT_JUMP: 0.00709
BRANCH_INDIRECT: 0.309
BRANCH_CONDITIONAL: 0.162
BRANCH_DIRECT_CALL: 0.0197
BRANCH_INDIRECT_CALL: 0.00768
BRANCH_RETURN: 0.0109

LLC TOTAL        ACCESS:    1217100 HIT:     488943 MISS:     728157
LLC LOAD         ACCESS:     668471 HIT:     106161 MISS:     562310
LLC RFO          ACCESS:     173581 HIT:      10336 MISS:     163245
LLC PREFETCH     ACCESS:          0 HIT:          0 MISS:          0
LLC WRITE        ACCESS:     367704 HIT:     367309 MISS:        395
LLC TRANSLATION  ACCESS:       7344 HIT:       5137 MISS:       2207
LLC PREFETCH REQUESTED:          0 ISSUED:          0 USEFUL:          0 USELESS:          0
LLC AVERAGE MISS LATENCY: 423.6 cycles
cpu0_DTLB TOTAL        ACCESS:   16663456 HIT:   15426826 MISS:    1236630
cpu0_DTLB LOAD         ACCESS:   16663456 HIT:   15426826 MISS:    1236630
cpu0_DTLB RFO          ACCESS:          0 HIT:          0 MISS:          0
cpu0_DTLB PREFETCH     ACCESS:          0 HIT:          0 MISS:          0
cpu0_DTLB WRITE        ACCESS:          0 HIT:          0 MISS:          0
cpu0_DTLB TRANSLATION  ACCESS:          0 HIT:          0 MISS:          0
cpu0_DTLB PREFETCH REQUESTED:          0 ISSUED:          0 USEFUL:          0 USELESS:          0
cpu0_DTLB AVERAGE MISS LATENCY: 4.15 cycles
cpu0_ITLB TOTAL        ACCESS:     185425 HIT:     180923 MISS:       4502
cpu0_ITLB LOAD         ACCESS:     185425 HIT:     180923 MISS:       4502
cpu0_ITLB RFO          ACCESS:          0 HIT:          0 MISS:          0
cpu0_ITLB PREFETCH     ACCESS:          0 HIT:          0 MISS:          0
cpu0_ITLB WRITE        ACCESS:          0 HIT:          0 MISS:          0
cpu0_ITLB TRANSLATION  ACCESS:          0 HIT:          0 MISS:          0
cpu0_ITLB PREFETCH REQUESTED:          0 ISSUED:          0 USEFUL:          0 USELESS:          0
cpu0_ITLB AVERAGE MISS LATENCY: 30.69 cycles
cpu0_L1D TOTAL        ACCESS:   21681574 HIT:   15165513 MISS:    6516061
cpu0_L1D LOAD         ACCESS:   13268597 HIT:    8184673 MISS:    5083924
cpu0_L1D RFO          ACCESS:          0 HIT:          0 MISS:          0
cpu0_L1D PREFETCH     ACCESS:          0 HIT:          0 MISS:          0
cpu0_L1D WRITE        ACCESS:    8399571 HIT:    6975333 MISS:    1424238
cpu0_L1D TRANSLATION  ACCESS:      13406 HIT:       5507 MISS:       7899
cpu0_L1D PREFETCH REQUESTED:          0 ISSUED:          0 USEFUL:          0 USELESS:          0
cpu0_L1D AVERAGE MISS LATENCY: 53.48 cycles
cpu0_L1I TOTAL        ACCESS:     213269 HIT:     190711 MISS:      22558
cpu0_L1I LOAD         ACCESS:     213269 HIT:     190711 MISS:      22558
cpu0_L1I RFO          ACCESS:          0 HIT:          0 MISS:          0
cpu0_L1I PREFETCH     ACCESS:          0 HIT:          0 MISS:          0
cpu0_L1I WRITE        ACCESS:          0 HIT:          0 MISS:          0
cpu0_L1I TRANSLATION  ACCESS:          0 HIT:          0 MISS:          0
cpu0_L1I PREFETCH REQUESTED:          0 ISSUED:          0 USEFUL:          0 USELESS:          0
cpu0_L1I AVERAGE MISS LATENCY: 119.3 cycles
cpu0_L2C TOTAL        ACCESS:    5024252 HIT:    4174843 MISS:     849409
cpu0_L2C LOAD         ACCESS:    2921092 HIT:    2252621 MISS:     668471
cpu0_L2C RFO          ACCESS:     730573 HIT:     556992 MISS:     173581
cpu0_L2C PREFETCH     ACCESS:          0 HIT:          0 MISS:          0
cpu0_L2C WRITE        ACCESS:    1364709 HIT:    1364696 MISS:         13
cpu0_L2C TRANSLATION  ACCESS:       7878 HIT:        534 MISS:       7344
cpu0_L2C PREFETCH REQUESTED:          0 ISSUED:          0 USEFUL:          0 USELESS:          0
cpu0_L2C AVERAGE MISS LATENCY: 384 cycles
cpu0_STLB TOTAL        ACCESS:     635849 HIT:     622638 MISS:      13211
cpu0_STLB LOAD         ACCESS:     635849 HIT:     622638 MISS:      13211
cpu0_STLB RFO          ACCESS:          0 HIT:          0 MISS:          0
cpu0_STLB PREFETCH     ACCESS:          0 HIT:          0 MISS:          0
cpu0_STLB WRITE        ACCESS:          0 HIT:          0 MISS:          0
cpu0_STLB TRANSLATION  ACCESS:          0 HIT:          0 MISS:          0
cpu0_STLB PREFETCH REQUESTED:          0 ISSUED:          0 USEFUL:          0 USELESS:          0
cpu0_STLB AVERAGE MISS LATENCY: 269.5 cycles

DRAM Statistics

Channel 0 RQ ROW_BUFFER_HIT:     216832
  ROW_BUFFER_MISS:     510923
 AVG DBUS CONGESTED CYCLE: 3.936
WQ ROW_BUFFER_HIT: Channel 0 
  ROW_BUFFER_MISS:      30511
  FULL:     328337
