WARNING: physical memory size is smaller than virtual memory size.

*** ChampSim Multicore Out-of-Order Simulator ***
Warmup Instructions: 25000000
Simulation Instructions: 100000000
Number of CPUs: 1
Page size: 4096

Off-chip DRAM Size: 4 GiB Channels: 1 Width: 64-bit Data Race: 3200 MT/s
Heartbeat CPU 0 instructions: 10000000 cycles: 2583660 heartbeat IPC: 3.87 cumulative IPC: 3.87 (Simulation time: 00 hr 00 min 20 sec)
Heartbeat CPU 0 instructions: 20000001 cycles: 5149644 heartbeat IPC: 3.897 cumulative IPC: 3.884 (Simulation time: 00 hr 00 min 40 sec)
Warmup finished CPU 0 instructions: 25000003 cycles: 6432588 cumulative IPC: 3.886 (Simulation time: 00 hr 00 min 49 sec)
Warmup complete CPU 0 instructions: 25000003 cycles: 6432588 cumulative IPC: 3.886 (Simulation time: 00 hr 00 min 49 sec)
Heartbeat CPU 0 instructions: 30000004 cycles: 8660299 heartbeat IPC: 2.848 cumulative IPC: 2.244 (Simulation time: 00 hr 01 min 06 sec)
Heartbeat CPU 0 instructions: 40000001 cycles: 13227721 heartbeat IPC: 2.189 cumulative IPC: 2.207 (Simulation time: 00 hr 01 min 38 sec)
Heartbeat CPU 0 instructions: 50000001 cycles: 17694066 heartbeat IPC: 2.239 cumulative IPC: 2.22 (Simulation time: 00 hr 02 min 10 sec)
Heartbeat CPU 0 instructions: 60000001 cycles: 22173284 heartbeat IPC: 2.233 cumulative IPC: 2.224 (Simulation time: 00 hr 02 min 43 sec)
Heartbeat CPU 0 instructions: 70000000 cycles: 26843765 heartbeat IPC: 2.141 cumulative IPC: 2.205 (Simulation time: 00 hr 03 min 16 sec)
Heartbeat CPU 0 instructions: 80000001 cycles: 32662062 heartbeat IPC: 1.719 cumulative IPC: 2.097 (Simulation time: 00 hr 03 min 55 sec)
Heartbeat CPU 0 instructions: 90000004 cycles: 38479347 heartbeat IPC: 1.719 cumulative IPC: 2.028 (Simulation time: 00 hr 04 min 33 sec)
Heartbeat CPU 0 instructions: 100000001 cycles: 44277946 heartbeat IPC: 1.725 cumulative IPC: 1.982 (Simulation time: 00 hr 05 min 12 sec)
*** Reached end of trace: (0, "../traces/secret_traces/compute_fp/compute_fp_24.champsimtrace.xz")
Heartbeat CPU 0 instructions: 110000001 cycles: 52968896 heartbeat IPC: 1.151 cumulative IPC: 1.827 (Simulation time: 00 hr 05 min 59 sec)
Heartbeat CPU 0 instructions: 120000003 cycles: 57430367 heartbeat IPC: 2.241 cumulative IPC: 1.863 (Simulation time: 00 hr 06 min 31 sec)
Simulation finished CPU 0 instructions: 100000000 cycles: 53118354 cumulative IPC: 1.883 (Simulation time: 00 hr 06 min 46 sec)
Simulation complete CPU 0 instructions: 100000000 cycles: 53118354 cumulative IPC: 1.883 (Simulation time: 00 hr 06 min 46 sec)

ChampSim completed all CPUs

=== Simulation ===
CPU 0 runs ../traces/secret_traces/compute_fp/compute_fp_24.champsimtrace.xz
Region of Interest Statistics

CPU 0 cumulative IPC: 1.883 instructions: 100000000 cycles: 53118354
CPU 0 Branch Prediction Accuracy: 97.44% MPKI: 0.8163 Average ROB Occupancy at Mispredict: 118.1
Branch type MPKI
BRANCH_DIRECT_JUMP: 0.00709
BRANCH_INDIRECT: 0.307
BRANCH_CONDITIONAL: 0.464
BRANCH_DIRECT_CALL: 0.0196
BRANCH_INDIRECT_CALL: 0.00743
BRANCH_RETURN: 0.0108

LLC TOTAL        ACCESS:     976158 HIT:     296612 MISS:     679546
LLC LOAD         ACCESS:     495515 HIT:      52697 MISS:     442818
LLC RFO          ACCESS:     231823 HIT:       7826 MISS:     223997
LLC PREFETCH     ACCESS:          0 HIT:          0 MISS:          0
LLC WRITE        ACCESS:     234165 HIT:     233755 MISS:        410
LLC TRANSLATION  ACCESS:      14655 HIT:       2334 MISS:      12321
LLC PREFETCH REQUESTED:          0 ISSUED:          0 USEFUL:          0 USELESS:          0
LLC AVERAGE MISS LATENCY: 327.6 cycles
cpu0_DTLB TOTAL        ACCESS:   20460054 HIT:   15004988 MISS:    5455066
cpu0_DTLB LOAD         ACCESS:   20460054 HIT:   15004988 MISS:    5455066
cpu0_DTLB RFO          ACCESS:          0 HIT:          0 MISS:          0
cpu0_DTLB PREFETCH     ACCESS:          0 HIT:          0 MISS:          0
cpu0_DTLB WRITE        ACCESS:          0 HIT:          0 MISS:          0
cpu0_DTLB TRANSLATION  ACCESS:          0 HIT:          0 MISS:          0
cpu0_DTLB PREFETCH REQUESTED:          0 ISSUED:          0 USEFUL:          0 USELESS:          0
cpu0_DTLB AVERAGE MISS LATENCY: 8.683 cycles
cpu0_ITLB TOTAL        ACCESS:      59065 HIT:      54648 MISS:       4417
cpu0_ITLB LOAD         ACCESS:      59065 HIT:      54648 MISS:       4417
cpu0_ITLB RFO          ACCESS:          0 HIT:          0 MISS:          0
cpu0_ITLB PREFETCH     ACCESS:          0 HIT:          0 MISS:          0
cpu0_ITLB WRITE        ACCESS:          0 HIT:          0 MISS:          0
cpu0_ITLB TRANSLATION  ACCESS:          0 HIT:          0 MISS:          0
cpu0_ITLB PREFETCH REQUESTED:          0 ISSUED:          0 USEFUL:          0 USELESS:          0
cpu0_ITLB AVERAGE MISS LATENCY: 33.15 cycles
cpu0_L1D TOTAL        ACCESS:   25325907 HIT:   17672462 MISS:    7653445
cpu0_L1D LOAD         ACCESS:   13747231 HIT:    9368554 MISS:    4378677
cpu0_L1D RFO          ACCESS:          0 HIT:          0 MISS:          0
cpu0_L1D PREFETCH     ACCESS:          0 HIT:          0 MISS:          0
cpu0_L1D WRITE        ACCESS:   11557019 HIT:    8302776 MISS:    3254243
cpu0_L1D TRANSLATION  ACCESS:      21657 HIT:       1132 MISS:      20525
cpu0_L1D PREFETCH REQUESTED:          0 ISSUED:          0 USEFUL:          0 USELESS:          0
cpu0_L1D AVERAGE MISS LATENCY: 39.44 cycles
cpu0_L1I TOTAL        ACCESS:      65308 HIT:      44868 MISS:      20440
cpu0_L1I LOAD         ACCESS:      65308 HIT:      44868 MISS:      20440
cpu0_L1I RFO          ACCESS:          0 HIT:          0 MISS:          0
cpu0_L1I PREFETCH     ACCESS:          0 HIT:          0 MISS:          0
cpu0_L1I WRITE        ACCESS:          0 HIT:          0 MISS:          0
cpu0_L1I TRANSLATION  ACCESS:          0 HIT:          0 MISS:          0
cpu0_L1I PREFETCH REQUESTED:          0 ISSUED:          0 USEFUL:          0 USELESS:          0
cpu0_L1I AVERAGE MISS LATENCY: 97.3 cycles
cpu0_L2C TOTAL        ACCESS:    9029819 HIT:    8287803 MISS:     742016
cpu0_L2C LOAD         ACCESS:    4168425 HIT:    3672910 MISS:     495515
cpu0_L2C RFO          ACCESS:    2203299 HIT:    1971476 MISS:     231823
cpu0_L2C PREFETCH     ACCESS:          0 HIT:          0 MISS:          0
cpu0_L2C WRITE        ACCESS:    2637595 HIT:    2637572 MISS:         23
cpu0_L2C TRANSLATION  ACCESS:      20500 HIT:       5845 MISS:      14655
cpu0_L2C PREFETCH REQUESTED:          0 ISSUED:          0 USEFUL:          0 USELESS:          0
cpu0_L2C AVERAGE MISS LATENCY: 320.9 cycles
cpu0_STLB TOTAL        ACCESS:    4944672 HIT:    4931256 MISS:      13416
cpu0_STLB LOAD         ACCESS:    4944672 HIT:    4931256 MISS:      13416
cpu0_STLB RFO          ACCESS:          0 HIT:          0 MISS:          0
cpu0_STLB PREFETCH     ACCESS:          0 HIT:          0 MISS:          0
cpu0_STLB WRITE        ACCESS:          0 HIT:          0 MISS:          0
cpu0_STLB TRANSLATION  ACCESS:          0 HIT:          0 MISS:          0
cpu0_STLB PREFETCH REQUESTED:          0 ISSUED:          0 USEFUL:          0 USELESS:          0
cpu0_STLB AVERAGE MISS LATENCY: 699.6 cycles

DRAM Statistics

Channel 0 RQ ROW_BUFFER_HIT:      64202
  ROW_BUFFER_MISS:     614926
 AVG DBUS CONGESTED CYCLE: 3.93
WQ ROW_BUFFER_HIT: Channel 0 
  ROW_BUFFER_MISS:       5306
  FULL:     225225
