WARNING: physical memory size is smaller than virtual memory size.

*** ChampSim Multicore Out-of-Order Simulator ***
Warmup Instructions: 25000000
Simulation Instructions: 100000000
Number of CPUs: 1
Page size: 4096

Off-chip DRAM Size: 4 GiB Channels: 1 Width: 64-bit Data Race: 3200 MT/s
Heartbeat CPU 0 instructions: 10000001 cycles: 2524446 heartbeat IPC: 3.961 cumulative IPC: 3.961 (Simulation time: 00 hr 00 min 18 sec)
Heartbeat CPU 0 instructions: 20000001 cycles: 5024446 heartbeat IPC: 4 cumulative IPC: 3.981 (Simulation time: 00 hr 00 min 36 sec)
Warmup finished CPU 0 instructions: 25000001 cycles: 6274447 cumulative IPC: 3.984 (Simulation time: 00 hr 00 min 45 sec)
Warmup complete CPU 0 instructions: 25000001 cycles: 6274447 cumulative IPC: 3.984 (Simulation time: 00 hr 00 min 45 sec)
Heartbeat CPU 0 instructions: 30000000 cycles: 7607419 heartbeat IPC: 3.872 cumulative IPC: 3.751 (Simulation time: 00 hr 00 min 56 sec)
Heartbeat CPU 0 instructions: 40000000 cycles: 10270934 heartbeat IPC: 3.754 cumulative IPC: 3.753 (Simulation time: 00 hr 01 min 18 sec)
Heartbeat CPU 0 instructions: 50000003 cycles: 12909284 heartbeat IPC: 3.79 cumulative IPC: 3.768 (Simulation time: 00 hr 01 min 39 sec)
Heartbeat CPU 0 instructions: 60000000 cycles: 15546776 heartbeat IPC: 3.791 cumulative IPC: 3.775 (Simulation time: 00 hr 02 min 01 sec)
Heartbeat CPU 0 instructions: 70000000 cycles: 18173052 heartbeat IPC: 3.808 cumulative IPC: 3.782 (Simulation time: 00 hr 02 min 23 sec)
Heartbeat CPU 0 instructions: 80000000 cycles: 20785985 heartbeat IPC: 3.827 cumulative IPC: 3.79 (Simulation time: 00 hr 02 min 44 sec)
Heartbeat CPU 0 instructions: 90000003 cycles: 23425458 heartbeat IPC: 3.789 cumulative IPC: 3.79 (Simulation time: 00 hr 03 min 06 sec)
Heartbeat CPU 0 instructions: 100000001 cycles: 26070940 heartbeat IPC: 3.78 cumulative IPC: 3.789 (Simulation time: 00 hr 03 min 27 sec)
*** Reached end of trace: (0, "../traces/secret_traces/compute_fp/compute_fp_2.champsimtrace.xz")
Heartbeat CPU 0 instructions: 110000001 cycles: 35005535 heartbeat IPC: 1.119 cumulative IPC: 2.958 (Simulation time: 00 hr 04 min 14 sec)
Heartbeat CPU 0 instructions: 120000002 cycles: 38767037 heartbeat IPC: 2.659 cumulative IPC: 2.924 (Simulation time: 00 hr 04 min 39 sec)
Simulation finished CPU 0 instructions: 100000001 cycles: 33836593 cumulative IPC: 2.955 (Simulation time: 00 hr 04 min 50 sec)
Simulation complete CPU 0 instructions: 100000001 cycles: 33836593 cumulative IPC: 2.955 (Simulation time: 00 hr 04 min 50 sec)

ChampSim completed all CPUs

=== Simulation ===
CPU 0 runs ../traces/secret_traces/compute_fp/compute_fp_2.champsimtrace.xz
Region of Interest Statistics

CPU 0 cumulative IPC: 2.955 instructions: 100000001 cycles: 33836593
CPU 0 Branch Prediction Accuracy: 93.5% MPKI: 0.6138 Average ROB Occupancy at Mispredict: 106.6
Branch type MPKI
BRANCH_DIRECT_JUMP: 0.00734
BRANCH_INDIRECT: 0.308
BRANCH_CONDITIONAL: 0.26
BRANCH_DIRECT_CALL: 0.0201
BRANCH_INDIRECT_CALL: 0.00756
BRANCH_RETURN: 0.0111

LLC TOTAL        ACCESS:     230647 HIT:     106274 MISS:     124373
LLC LOAD         ACCESS:     129621 HIT:      38486 MISS:      91135
LLC RFO          ACCESS:      40647 HIT:       8357 MISS:      32290
LLC PREFETCH     ACCESS:          0 HIT:          0 MISS:          0
LLC WRITE        ACCESS:      59436 HIT:      59348 MISS:         88
LLC TRANSLATION  ACCESS:        943 HIT:         83 MISS:        860
LLC PREFETCH REQUESTED:          0 ISSUED:          0 USEFUL:          0 USELESS:          0
LLC AVERAGE MISS LATENCY: 298.9 cycles
cpu0_DTLB TOTAL        ACCESS:   16128416 HIT:   15606561 MISS:     521855
cpu0_DTLB LOAD         ACCESS:   16128416 HIT:   15606561 MISS:     521855
cpu0_DTLB RFO          ACCESS:          0 HIT:          0 MISS:          0
cpu0_DTLB PREFETCH     ACCESS:          0 HIT:          0 MISS:          0
cpu0_DTLB WRITE        ACCESS:          0 HIT:          0 MISS:          0
cpu0_DTLB TRANSLATION  ACCESS:          0 HIT:          0 MISS:          0
cpu0_DTLB PREFETCH REQUESTED:          0 ISSUED:          0 USEFUL:          0 USELESS:          0
cpu0_DTLB AVERAGE MISS LATENCY: 1.835 cycles
cpu0_ITLB TOTAL        ACCESS:      60771 HIT:      56284 MISS:       4487
cpu0_ITLB LOAD         ACCESS:      60771 HIT:      56284 MISS:       4487
cpu0_ITLB RFO          ACCESS:          0 HIT:          0 MISS:          0
cpu0_ITLB PREFETCH     ACCESS:          0 HIT:          0 MISS:          0
cpu0_ITLB WRITE        ACCESS:          0 HIT:          0 MISS:          0
cpu0_ITLB TRANSLATION  ACCESS:          0 HIT:          0 MISS:          0
cpu0_ITLB PREFETCH REQUESTED:          0 ISSUED:          0 USEFUL:          0 USELESS:          0
cpu0_ITLB AVERAGE MISS LATENCY: 17.5 cycles
cpu0_L1D TOTAL        ACCESS:   19868022 HIT:   16507397 MISS:    3360625
cpu0_L1D LOAD         ACCESS:   10992816 HIT:    7850908 MISS:    3141908
cpu0_L1D RFO          ACCESS:          0 HIT:          0 MISS:          0
cpu0_L1D PREFETCH     ACCESS:          0 HIT:          0 MISS:          0
cpu0_L1D WRITE        ACCESS:    8872432 HIT:    8655139 MISS:     217293
cpu0_L1D TRANSLATION  ACCESS:       2774 HIT:       1350 MISS:       1424
cpu0_L1D PREFETCH REQUESTED:          0 ISSUED:          0 USEFUL:          0 USELESS:          0
cpu0_L1D AVERAGE MISS LATENCY: 11.2 cycles
cpu0_L1I TOTAL        ACCESS:      67242 HIT:      45379 MISS:      21863
cpu0_L1I LOAD         ACCESS:      67242 HIT:      45379 MISS:      21863
cpu0_L1I RFO          ACCESS:          0 HIT:          0 MISS:          0
cpu0_L1I PREFETCH     ACCESS:          0 HIT:          0 MISS:          0
cpu0_L1I WRITE        ACCESS:          0 HIT:          0 MISS:          0
cpu0_L1I TRANSLATION  ACCESS:          0 HIT:          0 MISS:          0
cpu0_L1I PREFETCH REQUESTED:          0 ISSUED:          0 USEFUL:          0 USELESS:          0
cpu0_L1I AVERAGE MISS LATENCY: 78.85 cycles
cpu0_L2C TOTAL        ACCESS:    1313671 HIT:    1142428 MISS:     171243
cpu0_L2C LOAD         ACCESS:     857104 HIT:     727466 MISS:     129638
cpu0_L2C RFO          ACCESS:      41362 HIT:        715 MISS:      40647
cpu0_L2C PREFETCH     ACCESS:          0 HIT:          0 MISS:          0
cpu0_L2C WRITE        ACCESS:     413806 HIT:     413791 MISS:         15
cpu0_L2C TRANSLATION  ACCESS:       1399 HIT:        456 MISS:        943
cpu0_L2C PREFETCH REQUESTED:          0 ISSUED:          0 USEFUL:          0 USELESS:          0
cpu0_L2C AVERAGE MISS LATENCY: 237.9 cycles
cpu0_STLB TOTAL        ACCESS:     169505 HIT:     166855 MISS:       2650
cpu0_STLB LOAD         ACCESS:     169505 HIT:     166855 MISS:       2650
cpu0_STLB RFO          ACCESS:          0 HIT:          0 MISS:          0
cpu0_STLB PREFETCH     ACCESS:          0 HIT:          0 MISS:          0
cpu0_STLB WRITE        ACCESS:          0 HIT:          0 MISS:          0
cpu0_STLB TRANSLATION  ACCESS:          0 HIT:          0 MISS:          0
cpu0_STLB PREFETCH REQUESTED:          0 ISSUED:          0 USEFUL:          0 USELESS:          0
cpu0_STLB AVERAGE MISS LATENCY: 136.4 cycles

DRAM Statistics

Channel 0 RQ ROW_BUFFER_HIT:      73632
  ROW_BUFFER_MISS:      50644
 AVG DBUS CONGESTED CYCLE: 3.985
WQ ROW_BUFFER_HIT: Channel 0 
  ROW_BUFFER_MISS:       5604
  FULL:      38181
