WARNING: physical memory size is smaller than virtual memory size.

*** ChampSim Multicore Out-of-Order Simulator ***
Warmup Instructions: 25000000
Simulation Instructions: 100000000
Number of CPUs: 1
Page size: 4096

Off-chip DRAM Size: 4 GiB Channels: 1 Width: 64-bit Data Race: 3200 MT/s
Heartbeat CPU 0 instructions: 10000000 cycles: 2520165 heartbeat IPC: 3.968 cumulative IPC: 3.968 (Simulation time: 00 hr 00 min 19 sec)
Heartbeat CPU 0 instructions: 20000001 cycles: 5044324 heartbeat IPC: 3.962 cumulative IPC: 3.965 (Simulation time: 00 hr 00 min 38 sec)
Warmup finished CPU 0 instructions: 25000003 cycles: 6312802 cumulative IPC: 3.96 (Simulation time: 00 hr 00 min 47 sec)
Warmup complete CPU 0 instructions: 25000003 cycles: 6312802 cumulative IPC: 3.96 (Simulation time: 00 hr 00 min 47 sec)
Heartbeat CPU 0 instructions: 30000000 cycles: 10283731 heartbeat IPC: 1.909 cumulative IPC: 1.259 (Simulation time: 00 hr 01 min 05 sec)
Heartbeat CPU 0 instructions: 40000001 cycles: 17961256 heartbeat IPC: 1.303 cumulative IPC: 1.288 (Simulation time: 00 hr 01 min 41 sec)
Heartbeat CPU 0 instructions: 50000003 cycles: 26198003 heartbeat IPC: 1.214 cumulative IPC: 1.257 (Simulation time: 00 hr 02 min 18 sec)
Heartbeat CPU 0 instructions: 60000001 cycles: 34205368 heartbeat IPC: 1.249 cumulative IPC: 1.255 (Simulation time: 00 hr 02 min 55 sec)
Heartbeat CPU 0 instructions: 70000003 cycles: 41663885 heartbeat IPC: 1.341 cumulative IPC: 1.273 (Simulation time: 00 hr 03 min 30 sec)
Heartbeat CPU 0 instructions: 80000000 cycles: 49582746 heartbeat IPC: 1.263 cumulative IPC: 1.271 (Simulation time: 00 hr 04 min 06 sec)
Heartbeat CPU 0 instructions: 90000001 cycles: 57562829 heartbeat IPC: 1.253 cumulative IPC: 1.268 (Simulation time: 00 hr 04 min 43 sec)
Heartbeat CPU 0 instructions: 100000000 cycles: 65117177 heartbeat IPC: 1.324 cumulative IPC: 1.275 (Simulation time: 00 hr 05 min 18 sec)
*** Reached end of trace: (0, "../traces/secret_traces/compute_int/compute_int_835.champsimtrace.xz")
Heartbeat CPU 0 instructions: 110000003 cycles: 72989500 heartbeat IPC: 1.27 cumulative IPC: 1.275 (Simulation time: 00 hr 05 min 54 sec)
Heartbeat CPU 0 instructions: 120000000 cycles: 82055764 heartbeat IPC: 1.103 cumulative IPC: 1.254 (Simulation time: 00 hr 06 min 33 sec)
Simulation finished CPU 0 instructions: 100000004 cycles: 79716796 cumulative IPC: 1.254 (Simulation time: 00 hr 06 min 51 sec)
Simulation complete CPU 0 instructions: 100000004 cycles: 79716796 cumulative IPC: 1.254 (Simulation time: 00 hr 06 min 51 sec)

ChampSim completed all CPUs

=== Simulation ===
CPU 0 runs ../traces/secret_traces/compute_int/compute_int_835.champsimtrace.xz
Region of Interest Statistics

CPU 0 cumulative IPC: 1.254 instructions: 100000004 cycles: 79716796
CPU 0 Branch Prediction Accuracy: 84.36% MPKI: 28.68 Average ROB Occupancy at Mispredict: 10.98
Branch type MPKI
BRANCH_DIRECT_JUMP: 0.0142
BRANCH_INDIRECT: 13.4
BRANCH_CONDITIONAL: 15.2
BRANCH_DIRECT_CALL: 0.0303
BRANCH_INDIRECT_CALL: 0.0465
BRANCH_RETURN: 0.0156

LLC TOTAL        ACCESS:     332192 HIT:     289135 MISS:      43057
LLC LOAD         ACCESS:     165394 HIT:     133675 MISS:      31719
LLC RFO          ACCESS:      72938 HIT:      63249 MISS:       9689
LLC PREFETCH     ACCESS:          0 HIT:          0 MISS:          0
LLC WRITE        ACCESS:      88393 HIT:      88152 MISS:        241
LLC TRANSLATION  ACCESS:       5467 HIT:       4059 MISS:       1408
LLC PREFETCH REQUESTED:          0 ISSUED:          0 USEFUL:          0 USELESS:          0
LLC AVERAGE MISS LATENCY: 287.2 cycles
cpu0_DTLB TOTAL        ACCESS:   21352797 HIT:   21102637 MISS:     250160
cpu0_DTLB LOAD         ACCESS:   21352797 HIT:   21102637 MISS:     250160
cpu0_DTLB RFO          ACCESS:          0 HIT:          0 MISS:          0
cpu0_DTLB PREFETCH     ACCESS:          0 HIT:          0 MISS:          0
cpu0_DTLB WRITE        ACCESS:          0 HIT:          0 MISS:          0
cpu0_DTLB TRANSLATION  ACCESS:          0 HIT:          0 MISS:          0
cpu0_DTLB PREFETCH REQUESTED:          0 ISSUED:          0 USEFUL:          0 USELESS:          0
cpu0_DTLB AVERAGE MISS LATENCY: 6.924 cycles
cpu0_ITLB TOTAL        ACCESS:    4585657 HIT:    4566280 MISS:      19377
cpu0_ITLB LOAD         ACCESS:    4585657 HIT:    4566280 MISS:      19377
cpu0_ITLB RFO          ACCESS:          0 HIT:          0 MISS:          0
cpu0_ITLB PREFETCH     ACCESS:          0 HIT:          0 MISS:          0
cpu0_ITLB WRITE        ACCESS:          0 HIT:          0 MISS:          0
cpu0_ITLB TRANSLATION  ACCESS:          0 HIT:          0 MISS:          0
cpu0_ITLB PREFETCH REQUESTED:          0 ISSUED:          0 USEFUL:          0 USELESS:          0
cpu0_ITLB AVERAGE MISS LATENCY: 5.528 cycles
cpu0_L1D TOTAL        ACCESS:   25495998 HIT:   24038414 MISS:    1457584
cpu0_L1D LOAD         ACCESS:   18559257 HIT:   17884672 MISS:     674585
cpu0_L1D RFO          ACCESS:          0 HIT:          0 MISS:          0
cpu0_L1D PREFETCH     ACCESS:          0 HIT:          0 MISS:          0
cpu0_L1D WRITE        ACCESS:    6927973 HIT:    6152769 MISS:     775204
cpu0_L1D TRANSLATION  ACCESS:       8768 HIT:        973 MISS:       7795
cpu0_L1D PREFETCH REQUESTED:          0 ISSUED:          0 USEFUL:          0 USELESS:          0
cpu0_L1D AVERAGE MISS LATENCY: 14.16 cycles
cpu0_L1I TOTAL        ACCESS:    5224014 HIT:    4555427 MISS:     668587
cpu0_L1I LOAD         ACCESS:    5224014 HIT:    4555427 MISS:     668587
cpu0_L1I RFO          ACCESS:          0 HIT:          0 MISS:          0
cpu0_L1I PREFETCH     ACCESS:          0 HIT:          0 MISS:          0
cpu0_L1I WRITE        ACCESS:          0 HIT:          0 MISS:          0
cpu0_L1I TRANSLATION  ACCESS:          0 HIT:          0 MISS:          0
cpu0_L1I PREFETCH REQUESTED:          0 ISSUED:          0 USEFUL:          0 USELESS:          0
cpu0_L1I AVERAGE MISS LATENCY: 9.36 cycles
cpu0_L2C TOTAL        ACCESS:    1350783 HIT:    1106926 MISS:     243857
cpu0_L2C LOAD         ACCESS:     881042 HIT:     715648 MISS:     165394
cpu0_L2C RFO          ACCESS:     210318 HIT:     137380 MISS:      72938
cpu0_L2C PREFETCH     ACCESS:          0 HIT:          0 MISS:          0
cpu0_L2C WRITE        ACCESS:     251635 HIT:     251577 MISS:         58
cpu0_L2C TRANSLATION  ACCESS:       7788 HIT:       2321 MISS:       5467
cpu0_L2C PREFETCH REQUESTED:          0 ISSUED:          0 USEFUL:          0 USELESS:          0
cpu0_L2C AVERAGE MISS LATENCY: 70.91 cycles
cpu0_STLB TOTAL        ACCESS:     147503 HIT:     138875 MISS:       8628
cpu0_STLB LOAD         ACCESS:     147503 HIT:     138875 MISS:       8628
cpu0_STLB RFO          ACCESS:          0 HIT:          0 MISS:          0
cpu0_STLB PREFETCH     ACCESS:          0 HIT:          0 MISS:          0
cpu0_STLB WRITE        ACCESS:          0 HIT:          0 MISS:          0
cpu0_STLB TRANSLATION  ACCESS:          0 HIT:          0 MISS:          0
cpu0_STLB PREFETCH REQUESTED:          0 ISSUED:          0 USEFUL:          0 USELESS:          0
cpu0_STLB AVERAGE MISS LATENCY: 104.1 cycles

DRAM Statistics

Channel 0 RQ ROW_BUFFER_HIT:       8476
  ROW_BUFFER_MISS:      34330
 AVG DBUS CONGESTED CYCLE: 3.951
WQ ROW_BUFFER_HIT: Channel 0 
  ROW_BUFFER_MISS:       4047
  FULL:      18880
