WARNING: physical memory size is smaller than virtual memory size.

*** ChampSim Multicore Out-of-Order Simulator ***
Warmup Instructions: 25000000
Simulation Instructions: 100000000
Number of CPUs: 1
Page size: 4096

Off-chip DRAM Size: 4 GiB Channels: 1 Width: 64-bit Data Race: 3200 MT/s
Heartbeat CPU 0 instructions: 10000002 cycles: 2510161 heartbeat IPC: 3.984 cumulative IPC: 3.984 (Simulation time: 00 hr 00 min 16 sec)
*** Reached end of trace: (0, "../traces/secret_traces/crypto/crypto93.champsimtrace.xz")
Heartbeat CPU 0 instructions: 20000003 cycles: 5020736 heartbeat IPC: 3.983 cumulative IPC: 3.983 (Simulation time: 00 hr 00 min 33 sec)
Warmup finished CPU 0 instructions: 25000001 cycles: 6270953 cumulative IPC: 3.987 (Simulation time: 00 hr 00 min 40 sec)
Warmup complete CPU 0 instructions: 25000001 cycles: 6270953 cumulative IPC: 3.987 (Simulation time: 00 hr 00 min 40 sec)
Heartbeat CPU 0 instructions: 30000002 cycles: 9271315 heartbeat IPC: 2.353 cumulative IPC: 1.666 (Simulation time: 00 hr 00 min 57 sec)
*** Reached end of trace: (0, "../traces/secret_traces/crypto/crypto93.champsimtrace.xz")
Heartbeat CPU 0 instructions: 40000001 cycles: 15602142 heartbeat IPC: 1.58 cumulative IPC: 1.608 (Simulation time: 00 hr 01 min 31 sec)
*** Reached end of trace: (0, "../traces/secret_traces/crypto/crypto93.champsimtrace.xz")
Heartbeat CPU 0 instructions: 50000000 cycles: 21867049 heartbeat IPC: 1.596 cumulative IPC: 1.603 (Simulation time: 00 hr 02 min 04 sec)
Heartbeat CPU 0 instructions: 60000001 cycles: 27931812 heartbeat IPC: 1.649 cumulative IPC: 1.616 (Simulation time: 00 hr 02 min 38 sec)
*** Reached end of trace: (0, "../traces/secret_traces/crypto/crypto93.champsimtrace.xz")
Heartbeat CPU 0 instructions: 70000000 cycles: 34260232 heartbeat IPC: 1.58 cumulative IPC: 1.608 (Simulation time: 00 hr 03 min 12 sec)
*** Reached end of trace: (0, "../traces/secret_traces/crypto/crypto93.champsimtrace.xz")
Heartbeat CPU 0 instructions: 80000003 cycles: 40524737 heartbeat IPC: 1.596 cumulative IPC: 1.606 (Simulation time: 00 hr 03 min 46 sec)
Heartbeat CPU 0 instructions: 90000000 cycles: 46589598 heartbeat IPC: 1.649 cumulative IPC: 1.612 (Simulation time: 00 hr 04 min 19 sec)
*** Reached end of trace: (0, "../traces/secret_traces/crypto/crypto93.champsimtrace.xz")
Heartbeat CPU 0 instructions: 100000000 cycles: 52917984 heartbeat IPC: 1.58 cumulative IPC: 1.608 (Simulation time: 00 hr 04 min 53 sec)
*** Reached end of trace: (0, "../traces/secret_traces/crypto/crypto93.champsimtrace.xz")
Heartbeat CPU 0 instructions: 110000004 cycles: 59262399 heartbeat IPC: 1.576 cumulative IPC: 1.604 (Simulation time: 00 hr 05 min 27 sec)
Heartbeat CPU 0 instructions: 120000000 cycles: 65247349 heartbeat IPC: 1.671 cumulative IPC: 1.611 (Simulation time: 00 hr 06 min 00 sec)
*** Reached end of trace: (0, "../traces/secret_traces/crypto/crypto93.champsimtrace.xz")
Simulation finished CPU 0 instructions: 100000000 cycles: 62287057 cumulative IPC: 1.605 (Simulation time: 00 hr 06 min 18 sec)
Simulation complete CPU 0 instructions: 100000000 cycles: 62287057 cumulative IPC: 1.605 (Simulation time: 00 hr 06 min 18 sec)

ChampSim completed all CPUs

=== Simulation ===
CPU 0 runs ../traces/secret_traces/crypto/crypto93.champsimtrace.xz
Region of Interest Statistics

CPU 0 cumulative IPC: 1.605 instructions: 100000000 cycles: 62287057
CPU 0 Branch Prediction Accuracy: 92.98% MPKI: 5.308 Average ROB Occupancy at Mispredict: 40.41
Branch type MPKI
BRANCH_DIRECT_JUMP: 0.0509
BRANCH_INDIRECT: 2.81
BRANCH_CONDITIONAL: 1.97
BRANCH_DIRECT_CALL: 0.157
BRANCH_INDIRECT_CALL: 0.23
BRANCH_RETURN: 0.0847

LLC TOTAL        ACCESS:     239614 HIT:     234429 MISS:       5185
LLC LOAD         ACCESS:      87833 HIT:      84756 MISS:       3077
LLC RFO          ACCESS:      71440 HIT:      69456 MISS:       1984
LLC PREFETCH     ACCESS:          0 HIT:          0 MISS:          0
LLC WRITE        ACCESS:      78646 HIT:      78646 MISS:          0
LLC TRANSLATION  ACCESS:       1695 HIT:       1571 MISS:        124
LLC PREFETCH REQUESTED:          0 ISSUED:          0 USEFUL:          0 USELESS:          0
LLC AVERAGE MISS LATENCY: 153.9 cycles
cpu0_DTLB TOTAL        ACCESS:    9176283 HIT:    9148184 MISS:      28099
cpu0_DTLB LOAD         ACCESS:    9176283 HIT:    9148184 MISS:      28099
cpu0_DTLB RFO          ACCESS:          0 HIT:          0 MISS:          0
cpu0_DTLB PREFETCH     ACCESS:          0 HIT:          0 MISS:          0
cpu0_DTLB WRITE        ACCESS:          0 HIT:          0 MISS:          0
cpu0_DTLB TRANSLATION  ACCESS:          0 HIT:          0 MISS:          0
cpu0_DTLB PREFETCH REQUESTED:          0 ISSUED:          0 USEFUL:          0 USELESS:          0
cpu0_DTLB AVERAGE MISS LATENCY: 7.471 cycles
cpu0_ITLB TOTAL        ACCESS:     328070 HIT:     305065 MISS:      23005
cpu0_ITLB LOAD         ACCESS:     328070 HIT:     305065 MISS:      23005
cpu0_ITLB RFO          ACCESS:          0 HIT:          0 MISS:          0
cpu0_ITLB PREFETCH     ACCESS:          0 HIT:          0 MISS:          0
cpu0_ITLB WRITE        ACCESS:          0 HIT:          0 MISS:          0
cpu0_ITLB TRANSLATION  ACCESS:          0 HIT:          0 MISS:          0
cpu0_ITLB PREFETCH REQUESTED:          0 ISSUED:          0 USEFUL:          0 USELESS:          0
cpu0_ITLB AVERAGE MISS LATENCY: 5.519 cycles
cpu0_L1D TOTAL        ACCESS:   12661260 HIT:   12401405 MISS:     259855
cpu0_L1D LOAD         ACCESS:    7294758 HIT:    7180582 MISS:     114176
cpu0_L1D RFO          ACCESS:          0 HIT:          0 MISS:          0
cpu0_L1D PREFETCH     ACCESS:          0 HIT:          0 MISS:          0
cpu0_L1D WRITE        ACCESS:    5362073 HIT:    5218602 MISS:     143471
cpu0_L1D TRANSLATION  ACCESS:       4429 HIT:       2221 MISS:       2208
cpu0_L1D PREFETCH REQUESTED:          0 ISSUED:          0 USEFUL:          0 USELESS:          0
cpu0_L1D AVERAGE MISS LATENCY: 16.97 cycles
cpu0_L1I TOTAL        ACCESS:     356270 HIT:     267897 MISS:      88373
cpu0_L1I LOAD         ACCESS:     356270 HIT:     267897 MISS:      88373
cpu0_L1I RFO          ACCESS:          0 HIT:          0 MISS:          0
cpu0_L1I PREFETCH     ACCESS:          0 HIT:          0 MISS:          0
cpu0_L1I WRITE        ACCESS:          0 HIT:          0 MISS:          0
cpu0_L1I TRANSLATION  ACCESS:          0 HIT:          0 MISS:          0
cpu0_L1I PREFETCH REQUESTED:          0 ISSUED:          0 USEFUL:          0 USELESS:          0
cpu0_L1I AVERAGE MISS LATENCY: 21.25 cycles
cpu0_L2C TOTAL        ACCESS:     317823 HIT:     156785 MISS:     161038
cpu0_L2C LOAD         ACCESS:     149466 HIT:      61633 MISS:      87833
cpu0_L2C RFO          ACCESS:      74904 HIT:       3464 MISS:      71440
cpu0_L2C PREFETCH     ACCESS:          0 HIT:          0 MISS:          0
cpu0_L2C WRITE        ACCESS:      91395 HIT:      91325 MISS:         70
cpu0_L2C TRANSLATION  ACCESS:       2058 HIT:        363 MISS:       1695
cpu0_L2C PREFETCH REQUESTED:          0 ISSUED:          0 USEFUL:          0 USELESS:          0
cpu0_L2C AVERAGE MISS LATENCY: 25.17 cycles
cpu0_STLB TOTAL        ACCESS:      32037 HIT:      27798 MISS:       4239
cpu0_STLB LOAD         ACCESS:      32037 HIT:      27798 MISS:       4239
cpu0_STLB RFO          ACCESS:          0 HIT:          0 MISS:          0
cpu0_STLB PREFETCH     ACCESS:          0 HIT:          0 MISS:          0
cpu0_STLB WRITE        ACCESS:          0 HIT:          0 MISS:          0
cpu0_STLB TRANSLATION  ACCESS:          0 HIT:          0 MISS:          0
cpu0_STLB PREFETCH REQUESTED:          0 ISSUED:          0 USEFUL:          0 USELESS:          0
cpu0_STLB AVERAGE MISS LATENCY: 26.68 cycles

DRAM Statistics

Channel 0 RQ ROW_BUFFER_HIT:       1335
  ROW_BUFFER_MISS:       3850
 AVG DBUS CONGESTED CYCLE: 3.773
WQ ROW_BUFFER_HIT: Channel 0 
  ROW_BUFFER_MISS:        376
  FULL:       1995
