WARNING: physical memory size is smaller than virtual memory size.

*** ChampSim Multicore Out-of-Order Simulator ***
Warmup Instructions: 25000000
Simulation Instructions: 100000000
Number of CPUs: 1
Page size: 4096

Off-chip DRAM Size: 4 GiB Channels: 1 Width: 64-bit Data Race: 3200 MT/s
Heartbeat CPU 0 instructions: 10000002 cycles: 2510170 heartbeat IPC: 3.984 cumulative IPC: 3.984 (Simulation time: 00 hr 00 min 18 sec)
Heartbeat CPU 0 instructions: 20000002 cycles: 5037293 heartbeat IPC: 3.957 cumulative IPC: 3.97 (Simulation time: 00 hr 00 min 35 sec)
Warmup finished CPU 0 instructions: 25000002 cycles: 6287294 cumulative IPC: 3.976 (Simulation time: 00 hr 00 min 44 sec)
Warmup complete CPU 0 instructions: 25000002 cycles: 6287294 cumulative IPC: 3.976 (Simulation time: 00 hr 00 min 44 sec)
Heartbeat CPU 0 instructions: 30000004 cycles: 8145750 heartbeat IPC: 3.217 cumulative IPC: 2.69 (Simulation time: 00 hr 00 min 55 sec)
Heartbeat CPU 0 instructions: 40000001 cycles: 11645738 heartbeat IPC: 2.857 cumulative IPC: 2.799 (Simulation time: 00 hr 01 min 18 sec)
*** Reached end of trace: (0, "../traces/secret_traces/crypto/crypto21.champsimtrace.xz")
Heartbeat CPU 0 instructions: 50000001 cycles: 17899116 heartbeat IPC: 1.599 cumulative IPC: 2.153 (Simulation time: 00 hr 01 min 49 sec)
Heartbeat CPU 0 instructions: 60000002 cycles: 24164372 heartbeat IPC: 1.596 cumulative IPC: 1.958 (Simulation time: 00 hr 02 min 21 sec)
Heartbeat CPU 0 instructions: 70000002 cycles: 27772320 heartbeat IPC: 2.772 cumulative IPC: 2.094 (Simulation time: 00 hr 02 min 43 sec)
Heartbeat CPU 0 instructions: 80000001 cycles: 31272327 heartbeat IPC: 2.857 cumulative IPC: 2.201 (Simulation time: 00 hr 03 min 06 sec)
*** Reached end of trace: (0, "../traces/secret_traces/crypto/crypto21.champsimtrace.xz")
Heartbeat CPU 0 instructions: 90000001 cycles: 37515463 heartbeat IPC: 1.602 cumulative IPC: 2.081 (Simulation time: 00 hr 03 min 37 sec)
Heartbeat CPU 0 instructions: 100000001 cycles: 43775381 heartbeat IPC: 1.597 cumulative IPC: 2.001 (Simulation time: 00 hr 04 min 09 sec)
Heartbeat CPU 0 instructions: 110000000 cycles: 47383345 heartbeat IPC: 2.772 cumulative IPC: 2.068 (Simulation time: 00 hr 04 min 31 sec)
Heartbeat CPU 0 instructions: 120000003 cycles: 50883343 heartbeat IPC: 2.857 cumulative IPC: 2.13 (Simulation time: 00 hr 04 min 53 sec)
*** Reached end of trace: (0, "../traces/secret_traces/crypto/crypto21.champsimtrace.xz")
Simulation finished CPU 0 instructions: 100000000 cycles: 48897169 cumulative IPC: 2.045 (Simulation time: 00 hr 05 min 13 sec)
Simulation complete CPU 0 instructions: 100000000 cycles: 48897169 cumulative IPC: 2.045 (Simulation time: 00 hr 05 min 13 sec)

ChampSim completed all CPUs

=== Simulation ===
CPU 0 runs ../traces/secret_traces/crypto/crypto21.champsimtrace.xz
Region of Interest Statistics

CPU 0 cumulative IPC: 2.045 instructions: 100000000 cycles: 48897169
CPU 0 Branch Prediction Accuracy: 89.51% MPKI: 12.74 Average ROB Occupancy at Mispredict: 20
Branch type MPKI
BRANCH_DIRECT_JUMP: 0.0378
BRANCH_INDIRECT: 1.74
BRANCH_CONDITIONAL: 10.7
BRANCH_DIRECT_CALL: 0.111
BRANCH_INDIRECT_CALL: 0.121
BRANCH_RETURN: 0.0604

LLC TOTAL        ACCESS:     264974 HIT:     127796 MISS:     137178
LLC LOAD         ACCESS:      84360 HIT:      20971 MISS:      63389
LLC RFO          ACCESS:      86203 HIT:      14231 MISS:      71972
LLC PREFETCH     ACCESS:          0 HIT:          0 MISS:          0
LLC WRITE        ACCESS:      92222 HIT:      92147 MISS:         75
LLC TRANSLATION  ACCESS:       2189 HIT:        447 MISS:       1742
LLC PREFETCH REQUESTED:          0 ISSUED:          0 USEFUL:          0 USELESS:          0
LLC AVERAGE MISS LATENCY: 564.6 cycles
cpu0_DTLB TOTAL        ACCESS:   16492624 HIT:   16461587 MISS:      31037
cpu0_DTLB LOAD         ACCESS:   16492624 HIT:   16461587 MISS:      31037
cpu0_DTLB RFO          ACCESS:          0 HIT:          0 MISS:          0
cpu0_DTLB PREFETCH     ACCESS:          0 HIT:          0 MISS:          0
cpu0_DTLB WRITE        ACCESS:          0 HIT:          0 MISS:          0
cpu0_DTLB TRANSLATION  ACCESS:          0 HIT:          0 MISS:          0
cpu0_DTLB PREFETCH REQUESTED:          0 ISSUED:          0 USEFUL:          0 USELESS:          0
cpu0_DTLB AVERAGE MISS LATENCY: 20.69 cycles
cpu0_ITLB TOTAL        ACCESS:     238280 HIT:     219115 MISS:      19165
cpu0_ITLB LOAD         ACCESS:     238280 HIT:     219115 MISS:      19165
cpu0_ITLB RFO          ACCESS:          0 HIT:          0 MISS:          0
cpu0_ITLB PREFETCH     ACCESS:          0 HIT:          0 MISS:          0
cpu0_ITLB WRITE        ACCESS:          0 HIT:          0 MISS:          0
cpu0_ITLB TRANSLATION  ACCESS:          0 HIT:          0 MISS:          0
cpu0_ITLB PREFETCH REQUESTED:          0 ISSUED:          0 USEFUL:          0 USELESS:          0
cpu0_ITLB AVERAGE MISS LATENCY: 10.77 cycles
cpu0_L1D TOTAL        ACCESS:   20917676 HIT:   20560866 MISS:     356810
cpu0_L1D LOAD         ACCESS:   13953997 HIT:   13810019 MISS:     143978
cpu0_L1D RFO          ACCESS:          0 HIT:          0 MISS:          0
cpu0_L1D PREFETCH     ACCESS:          0 HIT:          0 MISS:          0
cpu0_L1D WRITE        ACCESS:    6958960 HIT:    6748802 MISS:     210158
cpu0_L1D TRANSLATION  ACCESS:       4719 HIT:       2045 MISS:       2674
cpu0_L1D PREFETCH REQUESTED:          0 ISSUED:          0 USEFUL:          0 USELESS:          0
cpu0_L1D AVERAGE MISS LATENCY: 213.3 cycles
cpu0_L1I TOTAL        ACCESS:     260326 HIT:     188229 MISS:      72097
cpu0_L1I LOAD         ACCESS:     260326 HIT:     188229 MISS:      72097
cpu0_L1I RFO          ACCESS:          0 HIT:          0 MISS:          0
cpu0_L1I PREFETCH     ACCESS:          0 HIT:          0 MISS:          0
cpu0_L1I WRITE        ACCESS:          0 HIT:          0 MISS:          0
cpu0_L1I TRANSLATION  ACCESS:          0 HIT:          0 MISS:          0
cpu0_L1I PREFETCH REQUESTED:          0 ISSUED:          0 USEFUL:          0 USELESS:          0
cpu0_L1I AVERAGE MISS LATENCY: 71.06 cycles
cpu0_L2C TOTAL        ACCESS:     325782 HIT:     152990 MISS:     172792
cpu0_L2C LOAD         ACCESS:     132126 HIT:      47766 MISS:      84360
cpu0_L2C RFO          ACCESS:      89085 HIT:       2882 MISS:      86203
cpu0_L2C PREFETCH     ACCESS:          0 HIT:          0 MISS:          0
cpu0_L2C WRITE        ACCESS:     101961 HIT:     101921 MISS:         40
cpu0_L2C TRANSLATION  ACCESS:       2610 HIT:        421 MISS:       2189
cpu0_L2C PREFETCH REQUESTED:          0 ISSUED:          0 USEFUL:          0 USELESS:          0
cpu0_L2C AVERAGE MISS LATENCY: 469 cycles
cpu0_STLB TOTAL        ACCESS:      25058 HIT:      20637 MISS:       4421
cpu0_STLB LOAD         ACCESS:      25058 HIT:      20637 MISS:       4421
cpu0_STLB RFO          ACCESS:          0 HIT:          0 MISS:          0
cpu0_STLB PREFETCH     ACCESS:          0 HIT:          0 MISS:          0
cpu0_STLB WRITE        ACCESS:          0 HIT:          0 MISS:          0
cpu0_STLB TRANSLATION  ACCESS:          0 HIT:          0 MISS:          0
cpu0_STLB PREFETCH REQUESTED:          0 ISSUED:          0 USEFUL:          0 USELESS:          0
cpu0_STLB AVERAGE MISS LATENCY: 170.9 cycles

DRAM Statistics

Channel 0 RQ ROW_BUFFER_HIT:      56283
  ROW_BUFFER_MISS:      80818
 AVG DBUS CONGESTED CYCLE: 3.983
WQ ROW_BUFFER_HIT: Channel 0 
  ROW_BUFFER_MISS:      10569
  FULL:      70779
