WARNING: physical memory size is smaller than virtual memory size.

*** ChampSim Multicore Out-of-Order Simulator ***
Warmup Instructions: 25000000
Simulation Instructions: 100000000
Number of CPUs: 1
Page size: 4096

Off-chip DRAM Size: 4 GiB Channels: 1 Width: 64-bit Data Race: 3200 MT/s
Heartbeat CPU 0 instructions: 10000003 cycles: 2500041 heartbeat IPC: 4 cumulative IPC: 4 (Simulation time: 00 hr 00 min 15 sec)
Heartbeat CPU 0 instructions: 20000003 cycles: 5000041 heartbeat IPC: 4 cumulative IPC: 4 (Simulation time: 00 hr 00 min 31 sec)
Warmup finished CPU 0 instructions: 25000003 cycles: 6250042 cumulative IPC: 4 (Simulation time: 00 hr 00 min 39 sec)
Warmup complete CPU 0 instructions: 25000003 cycles: 6250042 cumulative IPC: 4 (Simulation time: 00 hr 00 min 39 sec)
Heartbeat CPU 0 instructions: 30000002 cycles: 7736427 heartbeat IPC: 3.654 cumulative IPC: 3.364 (Simulation time: 00 hr 00 min 50 sec)
Heartbeat CPU 0 instructions: 40000002 cycles: 14389656 heartbeat IPC: 1.503 cumulative IPC: 1.843 (Simulation time: 00 hr 01 min 21 sec)
Heartbeat CPU 0 instructions: 50000004 cycles: 22173603 heartbeat IPC: 1.285 cumulative IPC: 1.57 (Simulation time: 00 hr 01 min 59 sec)
Heartbeat CPU 0 instructions: 60000001 cycles: 28131475 heartbeat IPC: 1.678 cumulative IPC: 1.6 (Simulation time: 00 hr 02 min 28 sec)
Heartbeat CPU 0 instructions: 70000000 cycles: 34344418 heartbeat IPC: 1.61 cumulative IPC: 1.602 (Simulation time: 00 hr 02 min 57 sec)
Heartbeat CPU 0 instructions: 80000002 cycles: 42641506 heartbeat IPC: 1.205 cumulative IPC: 1.511 (Simulation time: 00 hr 03 min 34 sec)
Heartbeat CPU 0 instructions: 90000001 cycles: 51567633 heartbeat IPC: 1.12 cumulative IPC: 1.434 (Simulation time: 00 hr 04 min 13 sec)
Heartbeat CPU 0 instructions: 100000004 cycles: 59605779 heartbeat IPC: 1.244 cumulative IPC: 1.406 (Simulation time: 00 hr 04 min 51 sec)
*** Reached end of trace: (0, "../traces/secret_traces/crypto/crypto52.champsimtrace.xz")
Heartbeat CPU 0 instructions: 110000000 cycles: 63946195 heartbeat IPC: 2.304 cumulative IPC: 1.473 (Simulation time: 00 hr 05 min 19 sec)
Heartbeat CPU 0 instructions: 120000000 cycles: 67061131 heartbeat IPC: 3.21 cumulative IPC: 1.562 (Simulation time: 00 hr 05 min 40 sec)
Simulation finished CPU 0 instructions: 100000003 cycles: 62375128 cumulative IPC: 1.603 (Simulation time: 00 hr 05 min 51 sec)
Simulation complete CPU 0 instructions: 100000003 cycles: 62375128 cumulative IPC: 1.603 (Simulation time: 00 hr 05 min 51 sec)

ChampSim completed all CPUs

=== Simulation ===
CPU 0 runs ../traces/secret_traces/crypto/crypto52.champsimtrace.xz
Region of Interest Statistics

CPU 0 cumulative IPC: 1.603 instructions: 100000003 cycles: 62375128
CPU 0 Branch Prediction Accuracy: 84.9% MPKI: 14.78 Average ROB Occupancy at Mispredict: 24.34
Branch type MPKI
BRANCH_DIRECT_JUMP: 0.234
BRANCH_INDIRECT: 5.89
BRANCH_CONDITIONAL: 7.12
BRANCH_DIRECT_CALL: 0.385
BRANCH_INDIRECT_CALL: 0.826
BRANCH_RETURN: 0.331

LLC TOTAL        ACCESS:     413456 HIT:     278698 MISS:     134758
LLC LOAD         ACCESS:     223130 HIT:     135906 MISS:      87224
LLC RFO          ACCESS:      85468 HIT:      41398 MISS:      44070
LLC PREFETCH     ACCESS:          0 HIT:          0 MISS:          0
LLC WRITE        ACCESS:      99727 HIT:      99697 MISS:         30
LLC TRANSLATION  ACCESS:       5131 HIT:       1697 MISS:       3434
LLC PREFETCH REQUESTED:          0 ISSUED:          0 USEFUL:          0 USELESS:          0
LLC AVERAGE MISS LATENCY: 180.9 cycles
cpu0_DTLB TOTAL        ACCESS:   15737036 HIT:   15622519 MISS:     114517
cpu0_DTLB LOAD         ACCESS:   15737036 HIT:   15622519 MISS:     114517
cpu0_DTLB RFO          ACCESS:          0 HIT:          0 MISS:          0
cpu0_DTLB PREFETCH     ACCESS:          0 HIT:          0 MISS:          0
cpu0_DTLB WRITE        ACCESS:          0 HIT:          0 MISS:          0
cpu0_DTLB TRANSLATION  ACCESS:          0 HIT:          0 MISS:          0
cpu0_DTLB PREFETCH REQUESTED:          0 ISSUED:          0 USEFUL:          0 USELESS:          0
cpu0_DTLB AVERAGE MISS LATENCY: 13.59 cycles
cpu0_ITLB TOTAL        ACCESS:    1376903 HIT:    1279314 MISS:      97589
cpu0_ITLB LOAD         ACCESS:    1376903 HIT:    1279314 MISS:      97589
cpu0_ITLB RFO          ACCESS:          0 HIT:          0 MISS:          0
cpu0_ITLB PREFETCH     ACCESS:          0 HIT:          0 MISS:          0
cpu0_ITLB WRITE        ACCESS:          0 HIT:          0 MISS:          0
cpu0_ITLB TRANSLATION  ACCESS:          0 HIT:          0 MISS:          0
cpu0_ITLB PREFETCH REQUESTED:          0 ISSUED:          0 USEFUL:          0 USELESS:          0
cpu0_ITLB AVERAGE MISS LATENCY: 8.686 cycles
cpu0_L1D TOTAL        ACCESS:   19832530 HIT:   18679894 MISS:    1152636
cpu0_L1D LOAD         ACCESS:   14078079 HIT:   13330566 MISS:     747513
cpu0_L1D RFO          ACCESS:          0 HIT:          0 MISS:          0
cpu0_L1D PREFETCH     ACCESS:          0 HIT:          0 MISS:          0
cpu0_L1D WRITE        ACCESS:    5746847 HIT:    5347822 MISS:     399025
cpu0_L1D TRANSLATION  ACCESS:       7604 HIT:       1506 MISS:       6098
cpu0_L1D PREFETCH REQUESTED:          0 ISSUED:          0 USEFUL:          0 USELESS:          0
cpu0_L1D AVERAGE MISS LATENCY: 19.59 cycles
cpu0_L1I TOTAL        ACCESS:    1537142 HIT:    1104741 MISS:     432401
cpu0_L1I LOAD         ACCESS:    1537142 HIT:    1104741 MISS:     432401
cpu0_L1I RFO          ACCESS:          0 HIT:          0 MISS:          0
cpu0_L1I PREFETCH     ACCESS:          0 HIT:          0 MISS:          0
cpu0_L1I WRITE        ACCESS:          0 HIT:          0 MISS:          0
cpu0_L1I TRANSLATION  ACCESS:          0 HIT:          0 MISS:          0
cpu0_L1I PREFETCH REQUESTED:          0 ISSUED:          0 USEFUL:          0 USELESS:          0
cpu0_L1I AVERAGE MISS LATENCY: 26.7 cycles
cpu0_L2C TOTAL        ACCESS:     849527 HIT:     535129 MISS:     314398
cpu0_L2C LOAD         ACCESS:     591477 HIT:     368347 MISS:     223130
cpu0_L2C RFO          ACCESS:     108362 HIT:      22894 MISS:      85468
cpu0_L2C PREFETCH     ACCESS:          0 HIT:          0 MISS:          0
cpu0_L2C WRITE        ACCESS:     143590 HIT:     142921 MISS:        669
cpu0_L2C TRANSLATION  ACCESS:       6098 HIT:        967 MISS:       5131
cpu0_L2C PREFETCH REQUESTED:          0 ISSUED:          0 USEFUL:          0 USELESS:          0
cpu0_L2C AVERAGE MISS LATENCY: 97.95 cycles
cpu0_STLB TOTAL        ACCESS:     128286 HIT:     121124 MISS:       7162
cpu0_STLB LOAD         ACCESS:     128286 HIT:     121124 MISS:       7162
cpu0_STLB RFO          ACCESS:          0 HIT:          0 MISS:          0
cpu0_STLB PREFETCH     ACCESS:          0 HIT:          0 MISS:          0
cpu0_STLB WRITE        ACCESS:          0 HIT:          0 MISS:          0
cpu0_STLB TRANSLATION  ACCESS:          0 HIT:          0 MISS:          0
cpu0_STLB PREFETCH REQUESTED:          0 ISSUED:          0 USEFUL:          0 USELESS:          0
cpu0_STLB AVERAGE MISS LATENCY: 224 cycles

DRAM Statistics

Channel 0 RQ ROW_BUFFER_HIT:      52911
  ROW_BUFFER_MISS:      81570
 AVG DBUS CONGESTED CYCLE: 3.93
WQ ROW_BUFFER_HIT: Channel 0 
  ROW_BUFFER_MISS:       9160
  FULL:      28161
