WARNING: physical memory size is smaller than virtual memory size.

*** ChampSim Multicore Out-of-Order Simulator ***
Warmup Instructions: 25000000
Simulation Instructions: 100000000
Number of CPUs: 1
Page size: 4096

Off-chip DRAM Size: 4 GiB Channels: 1 Width: 64-bit Data Race: 3200 MT/s
Heartbeat CPU 0 instructions: 10000001 cycles: 2510120 heartbeat IPC: 3.984 cumulative IPC: 3.984 (Simulation time: 00 hr 00 min 17 sec)
*** Reached end of trace: (0, "../traces/secret_traces/crypto/crypto27.champsimtrace.xz")
Heartbeat CPU 0 instructions: 20000003 cycles: 5042368 heartbeat IPC: 3.949 cumulative IPC: 3.966 (Simulation time: 00 hr 00 min 34 sec)
Warmup finished CPU 0 instructions: 25000003 cycles: 6297755 cumulative IPC: 3.97 (Simulation time: 00 hr 00 min 42 sec)
Warmup complete CPU 0 instructions: 25000003 cycles: 6297755 cumulative IPC: 3.97 (Simulation time: 00 hr 00 min 42 sec)
Heartbeat CPU 0 instructions: 30000001 cycles: 8438073 heartbeat IPC: 2.945 cumulative IPC: 2.336 (Simulation time: 00 hr 00 min 53 sec)
*** Reached end of trace: (0, "../traces/secret_traces/crypto/crypto27.champsimtrace.xz")
Heartbeat CPU 0 instructions: 40000002 cycles: 17084637 heartbeat IPC: 1.157 cumulative IPC: 1.391 (Simulation time: 00 hr 01 min 30 sec)
Heartbeat CPU 0 instructions: 50000001 cycles: 22094917 heartbeat IPC: 1.996 cumulative IPC: 1.583 (Simulation time: 00 hr 01 min 55 sec)
*** Reached end of trace: (0, "../traces/secret_traces/crypto/crypto27.champsimtrace.xz")
Heartbeat CPU 0 instructions: 60000002 cycles: 31116268 heartbeat IPC: 1.108 cumulative IPC: 1.41 (Simulation time: 00 hr 02 min 34 sec)
Heartbeat CPU 0 instructions: 70000004 cycles: 35750532 heartbeat IPC: 2.158 cumulative IPC: 1.528 (Simulation time: 00 hr 02 min 57 sec)
*** Reached end of trace: (0, "../traces/secret_traces/crypto/crypto27.champsimtrace.xz")
Heartbeat CPU 0 instructions: 80000001 cycles: 44976873 heartbeat IPC: 1.084 cumulative IPC: 1.422 (Simulation time: 00 hr 03 min 36 sec)
Heartbeat CPU 0 instructions: 90000002 cycles: 49410618 heartbeat IPC: 2.255 cumulative IPC: 1.508 (Simulation time: 00 hr 03 min 58 sec)
*** Reached end of trace: (0, "../traces/secret_traces/crypto/crypto27.champsimtrace.xz")
Heartbeat CPU 0 instructions: 100000004 cycles: 58636952 heartbeat IPC: 1.084 cumulative IPC: 1.433 (Simulation time: 00 hr 04 min 38 sec)
Heartbeat CPU 0 instructions: 110000001 cycles: 63070699 heartbeat IPC: 2.255 cumulative IPC: 1.497 (Simulation time: 00 hr 05 min 00 sec)
*** Reached end of trace: (0, "../traces/secret_traces/crypto/crypto27.champsimtrace.xz")
Heartbeat CPU 0 instructions: 120000003 cycles: 72297050 heartbeat IPC: 1.084 cumulative IPC: 1.439 (Simulation time: 00 hr 05 min 39 sec)
Simulation finished CPU 0 instructions: 100000000 cycles: 68342712 cumulative IPC: 1.463 (Simulation time: 00 hr 05 min 51 sec)
Simulation complete CPU 0 instructions: 100000000 cycles: 68342712 cumulative IPC: 1.463 (Simulation time: 00 hr 05 min 51 sec)

ChampSim completed all CPUs

=== Simulation ===
CPU 0 runs ../traces/secret_traces/crypto/crypto27.champsimtrace.xz
Region of Interest Statistics

CPU 0 cumulative IPC: 1.463 instructions: 100000000 cycles: 68342712
CPU 0 Branch Prediction Accuracy: 71.36% MPKI: 20.29 Average ROB Occupancy at Mispredict: 18.05
Branch type MPKI
BRANCH_DIRECT_JUMP: 0.0719
BRANCH_INDIRECT: 3.22
BRANCH_CONDITIONAL: 16.5
BRANCH_DIRECT_CALL: 0.209
BRANCH_INDIRECT_CALL: 0.211
BRANCH_RETURN: 0.113

LLC TOTAL        ACCESS:     572958 HIT:     281738 MISS:     291220
LLC LOAD         ACCESS:     177665 HIT:      44251 MISS:     133414
LLC RFO          ACCESS:     188227 HIT:      34135 MISS:     154092
LLC PREFETCH     ACCESS:          0 HIT:          0 MISS:          0
LLC WRITE        ACCESS:     202688 HIT:     202471 MISS:        217
LLC TRANSLATION  ACCESS:       4378 HIT:        881 MISS:       3497
LLC PREFETCH REQUESTED:          0 ISSUED:          0 USEFUL:          0 USELESS:          0
LLC AVERAGE MISS LATENCY: 587.4 cycles
cpu0_DTLB TOTAL        ACCESS:   14383995 HIT:   14318141 MISS:      65854
cpu0_DTLB LOAD         ACCESS:   14383995 HIT:   14318141 MISS:      65854
cpu0_DTLB RFO          ACCESS:          0 HIT:          0 MISS:          0
cpu0_DTLB PREFETCH     ACCESS:          0 HIT:          0 MISS:          0
cpu0_DTLB WRITE        ACCESS:          0 HIT:          0 MISS:          0
cpu0_DTLB TRANSLATION  ACCESS:          0 HIT:          0 MISS:          0
cpu0_DTLB PREFETCH REQUESTED:          0 ISSUED:          0 USEFUL:          0 USELESS:          0
cpu0_DTLB AVERAGE MISS LATENCY: 20.04 cycles
cpu0_ITLB TOTAL        ACCESS:     461465 HIT:     423998 MISS:      37467
cpu0_ITLB LOAD         ACCESS:     461465 HIT:     423998 MISS:      37467
cpu0_ITLB RFO          ACCESS:          0 HIT:          0 MISS:          0
cpu0_ITLB PREFETCH     ACCESS:          0 HIT:          0 MISS:          0
cpu0_ITLB WRITE        ACCESS:          0 HIT:          0 MISS:          0
cpu0_ITLB TRANSLATION  ACCESS:          0 HIT:          0 MISS:          0
cpu0_ITLB PREFETCH REQUESTED:          0 ISSUED:          0 USEFUL:          0 USELESS:          0
cpu0_ITLB AVERAGE MISS LATENCY: 10.54 cycles
cpu0_L1D TOTAL        ACCESS:   16226289 HIT:   15464197 MISS:     762092
cpu0_L1D LOAD         ACCESS:   11039456 HIT:   10751788 MISS:     287668
cpu0_L1D RFO          ACCESS:          0 HIT:          0 MISS:          0
cpu0_L1D PREFETCH     ACCESS:          0 HIT:          0 MISS:          0
cpu0_L1D WRITE        ACCESS:    5176676 HIT:    4707598 MISS:     469078
cpu0_L1D TRANSLATION  ACCESS:      10157 HIT:       4811 MISS:       5346
cpu0_L1D PREFETCH REQUESTED:          0 ISSUED:          0 USEFUL:          0 USELESS:          0
cpu0_L1D AVERAGE MISS LATENCY: 222.2 cycles
cpu0_L1I TOTAL        ACCESS:     504202 HIT:     367974 MISS:     136228
cpu0_L1I LOAD         ACCESS:     504202 HIT:     367974 MISS:     136228
cpu0_L1I RFO          ACCESS:          0 HIT:          0 MISS:          0
cpu0_L1I PREFETCH     ACCESS:          0 HIT:          0 MISS:          0
cpu0_L1I WRITE        ACCESS:          0 HIT:          0 MISS:          0
cpu0_L1I TRANSLATION  ACCESS:          0 HIT:          0 MISS:          0
cpu0_L1I PREFETCH REQUESTED:          0 ISSUED:          0 USEFUL:          0 USELESS:          0
cpu0_L1I AVERAGE MISS LATENCY: 71.65 cycles
cpu0_L2C TOTAL        ACCESS:     688220 HIT:     317895 MISS:     370325
cpu0_L2C LOAD         ACCESS:     267785 HIT:      90120 MISS:     177665
cpu0_L2C RFO          ACCESS:     194109 HIT:       5882 MISS:     188227
cpu0_L2C PREFETCH     ACCESS:          0 HIT:          0 MISS:          0
cpu0_L2C WRITE        ACCESS:     221127 HIT:     221072 MISS:         55
cpu0_L2C TRANSLATION  ACCESS:       5199 HIT:        821 MISS:       4378
cpu0_L2C PREFETCH REQUESTED:          0 ISSUED:          0 USEFUL:          0 USELESS:          0
cpu0_L2C AVERAGE MISS LATENCY: 482.7 cycles
cpu0_STLB TOTAL        ACCESS:      50976 HIT:      41401 MISS:       9575
cpu0_STLB LOAD         ACCESS:      50976 HIT:      41401 MISS:       9575
cpu0_STLB RFO          ACCESS:          0 HIT:          0 MISS:          0
cpu0_STLB PREFETCH     ACCESS:          0 HIT:          0 MISS:          0
cpu0_STLB WRITE        ACCESS:          0 HIT:          0 MISS:          0
cpu0_STLB TRANSLATION  ACCESS:          0 HIT:          0 MISS:          0
cpu0_STLB PREFETCH REQUESTED:          0 ISSUED:          0 USEFUL:          0 USELESS:          0
cpu0_STLB AVERAGE MISS LATENCY: 161.8 cycles

DRAM Statistics

Channel 0 RQ ROW_BUFFER_HIT:     123138
  ROW_BUFFER_MISS:     167850
 AVG DBUS CONGESTED CYCLE: 3.983
WQ ROW_BUFFER_HIT: Channel 0 
  ROW_BUFFER_MISS:      20353
  FULL:     151951
