WARNING: physical memory size is smaller than virtual memory size.

*** ChampSim Multicore Out-of-Order Simulator ***
Warmup Instructions: 25000000
Simulation Instructions: 100000000
Number of CPUs: 1
Page size: 4096

Off-chip DRAM Size: 4 GiB Channels: 1 Width: 64-bit Data Race: 3200 MT/s
Heartbeat CPU 0 instructions: 10000002 cycles: 2510225 heartbeat IPC: 3.984 cumulative IPC: 3.984 (Simulation time: 00 hr 00 min 16 sec)
Heartbeat CPU 0 instructions: 20000002 cycles: 5037346 heartbeat IPC: 3.957 cumulative IPC: 3.97 (Simulation time: 00 hr 00 min 33 sec)
Warmup finished CPU 0 instructions: 25000002 cycles: 6287347 cumulative IPC: 3.976 (Simulation time: 00 hr 00 min 41 sec)
Warmup complete CPU 0 instructions: 25000002 cycles: 6287347 cumulative IPC: 3.976 (Simulation time: 00 hr 00 min 41 sec)
Heartbeat CPU 0 instructions: 30000003 cycles: 7694967 heartbeat IPC: 3.763 cumulative IPC: 3.552 (Simulation time: 00 hr 00 min 50 sec)
Heartbeat CPU 0 instructions: 40000000 cycles: 10314151 heartbeat IPC: 3.818 cumulative IPC: 3.725 (Simulation time: 00 hr 01 min 07 sec)
Heartbeat CPU 0 instructions: 50000000 cycles: 12934781 heartbeat IPC: 3.816 cumulative IPC: 3.761 (Simulation time: 00 hr 01 min 25 sec)
Heartbeat CPU 0 instructions: 60000003 cycles: 15564320 heartbeat IPC: 3.803 cumulative IPC: 3.773 (Simulation time: 00 hr 01 min 42 sec)
Heartbeat CPU 0 instructions: 70000002 cycles: 18175251 heartbeat IPC: 3.83 cumulative IPC: 3.785 (Simulation time: 00 hr 02 min 00 sec)
Heartbeat CPU 0 instructions: 80000001 cycles: 20788495 heartbeat IPC: 3.827 cumulative IPC: 3.793 (Simulation time: 00 hr 02 min 17 sec)
Heartbeat CPU 0 instructions: 90000000 cycles: 23401383 heartbeat IPC: 3.827 cumulative IPC: 3.798 (Simulation time: 00 hr 02 min 35 sec)
Heartbeat CPU 0 instructions: 100000000 cycles: 26013660 heartbeat IPC: 3.828 cumulative IPC: 3.802 (Simulation time: 00 hr 02 min 52 sec)
Heartbeat CPU 0 instructions: 110000002 cycles: 28625513 heartbeat IPC: 3.829 cumulative IPC: 3.805 (Simulation time: 00 hr 03 min 10 sec)
Heartbeat CPU 0 instructions: 120000000 cycles: 31238244 heartbeat IPC: 3.827 cumulative IPC: 3.807 (Simulation time: 00 hr 03 min 27 sec)
Simulation finished CPU 0 instructions: 100000002 cycles: 26257739 cumulative IPC: 3.808 (Simulation time: 00 hr 03 min 36 sec)
Simulation complete CPU 0 instructions: 100000002 cycles: 26257739 cumulative IPC: 3.808 (Simulation time: 00 hr 03 min 36 sec)

ChampSim completed all CPUs

=== Simulation ===
CPU 0 runs ../traces/secret_traces/crypto/crypto15.champsimtrace.xz
Region of Interest Statistics

CPU 0 cumulative IPC: 3.808 instructions: 100000002 cycles: 26257739
CPU 0 Branch Prediction Accuracy: 78.5% MPKI: 0.988 Average ROB Occupancy at Mispredict: 280
Branch type MPKI
BRANCH_DIRECT_JUMP: 0.00047
BRANCH_INDIRECT: 0.868
BRANCH_CONDITIONAL: 0.117
BRANCH_DIRECT_CALL: 0.00141
BRANCH_INDIRECT_CALL: 0.00073
BRANCH_RETURN: 0.00126

LLC TOTAL        ACCESS:       1210 HIT:        548 MISS:        662
LLC LOAD         ACCESS:        702 HIT:         85 MISS:        617
LLC RFO          ACCESS:         31 HIT:         15 MISS:         16
LLC PREFETCH     ACCESS:          0 HIT:          0 MISS:          0
LLC WRITE        ACCESS:        446 HIT:        446 MISS:          0
LLC TRANSLATION  ACCESS:         31 HIT:          2 MISS:         29
LLC PREFETCH REQUESTED:          0 ISSUED:          0 USEFUL:          0 USELESS:          0
LLC AVERAGE MISS LATENCY: 182.2 cycles
cpu0_DTLB TOTAL        ACCESS:    7186303 HIT:    7185833 MISS:        470
cpu0_DTLB LOAD         ACCESS:    7186303 HIT:    7185833 MISS:        470
cpu0_DTLB RFO          ACCESS:          0 HIT:          0 MISS:          0
cpu0_DTLB PREFETCH     ACCESS:          0 HIT:          0 MISS:          0
cpu0_DTLB WRITE        ACCESS:          0 HIT:          0 MISS:          0
cpu0_DTLB TRANSLATION  ACCESS:          0 HIT:          0 MISS:          0
cpu0_DTLB PREFETCH REQUESTED:          0 ISSUED:          0 USEFUL:          0 USELESS:          0
cpu0_DTLB AVERAGE MISS LATENCY: 17.47 cycles
cpu0_ITLB TOTAL        ACCESS:     231453 HIT:     230395 MISS:       1058
cpu0_ITLB LOAD         ACCESS:     231453 HIT:     230395 MISS:       1058
cpu0_ITLB RFO          ACCESS:          0 HIT:          0 MISS:          0
cpu0_ITLB PREFETCH     ACCESS:          0 HIT:          0 MISS:          0
cpu0_ITLB WRITE        ACCESS:          0 HIT:          0 MISS:          0
cpu0_ITLB TRANSLATION  ACCESS:          0 HIT:          0 MISS:          0
cpu0_ITLB PREFETCH REQUESTED:          0 ISSUED:          0 USEFUL:          0 USELESS:          0
cpu0_ITLB AVERAGE MISS LATENCY: 4.222 cycles
cpu0_L1D TOTAL        ACCESS:    7273126 HIT:    7272660 MISS:        466
cpu0_L1D LOAD         ACCESS:    4144318 HIT:    4143962 MISS:        356
cpu0_L1D RFO          ACCESS:          0 HIT:          0 MISS:          0
cpu0_L1D PREFETCH     ACCESS:          0 HIT:          0 MISS:          0
cpu0_L1D WRITE        ACCESS:    3128775 HIT:    3128697 MISS:         78
cpu0_L1D TRANSLATION  ACCESS:         33 HIT:          1 MISS:         32
cpu0_L1D PREFETCH REQUESTED:          0 ISSUED:          0 USEFUL:          0 USELESS:          0
cpu0_L1D AVERAGE MISS LATENCY: 109.3 cycles
cpu0_L1I TOTAL        ACCESS:     256192 HIT:     251150 MISS:       5042
cpu0_L1I LOAD         ACCESS:     256192 HIT:     251150 MISS:       5042
cpu0_L1I RFO          ACCESS:          0 HIT:          0 MISS:          0
cpu0_L1I PREFETCH     ACCESS:          0 HIT:          0 MISS:          0
cpu0_L1I WRITE        ACCESS:          0 HIT:          0 MISS:          0
cpu0_L1I TRANSLATION  ACCESS:          0 HIT:          0 MISS:          0
cpu0_L1I PREFETCH REQUESTED:          0 ISSUED:          0 USEFUL:          0 USELESS:          0
cpu0_L1I AVERAGE MISS LATENCY: 23.88 cycles
cpu0_L2C TOTAL        ACCESS:       4034 HIT:       3270 MISS:        764
cpu0_L2C LOAD         ACCESS:       3787 HIT:       3085 MISS:        702
cpu0_L2C RFO          ACCESS:         33 HIT:          2 MISS:         31
cpu0_L2C PREFETCH     ACCESS:          0 HIT:          0 MISS:          0
cpu0_L2C WRITE        ACCESS:        182 HIT:        182 MISS:          0
cpu0_L2C TRANSLATION  ACCESS:         32 HIT:          1 MISS:         31
cpu0_L2C PREFETCH REQUESTED:          0 ISSUED:          0 USEFUL:          0 USELESS:          0
cpu0_L2C AVERAGE MISS LATENCY: 178.7 cycles
cpu0_STLB TOTAL        ACCESS:        772 HIT:        747 MISS:         25
cpu0_STLB LOAD         ACCESS:        772 HIT:        747 MISS:         25
cpu0_STLB RFO          ACCESS:          0 HIT:          0 MISS:          0
cpu0_STLB PREFETCH     ACCESS:          0 HIT:          0 MISS:          0
cpu0_STLB WRITE        ACCESS:          0 HIT:          0 MISS:          0
cpu0_STLB TRANSLATION  ACCESS:          0 HIT:          0 MISS:          0
cpu0_STLB PREFETCH REQUESTED:          0 ISSUED:          0 USEFUL:          0 USELESS:          0
cpu0_STLB AVERAGE MISS LATENCY: 354.5 cycles

DRAM Statistics

Channel 0 RQ ROW_BUFFER_HIT:         35
  ROW_BUFFER_MISS:        627
 AVG DBUS CONGESTED CYCLE: 3.955
WQ ROW_BUFFER_HIT: Channel 0 
  ROW_BUFFER_MISS:         71
  FULL:        227
