WARNING: physical memory size is smaller than virtual memory size.

*** ChampSim Multicore Out-of-Order Simulator ***
Warmup Instructions: 25000000
Simulation Instructions: 100000000
Number of CPUs: 1
Page size: 4096

Off-chip DRAM Size: 4 GiB Channels: 1 Width: 64-bit Data Race: 3200 MT/s
Heartbeat CPU 0 instructions: 10000003 cycles: 2500116 heartbeat IPC: 4 cumulative IPC: 4 (Simulation time: 00 hr 00 min 22 sec)
Heartbeat CPU 0 instructions: 20000003 cycles: 5000116 heartbeat IPC: 4 cumulative IPC: 4 (Simulation time: 00 hr 00 min 45 sec)
Warmup finished CPU 0 instructions: 25000003 cycles: 6250117 cumulative IPC: 4 (Simulation time: 00 hr 00 min 56 sec)
Warmup complete CPU 0 instructions: 25000003 cycles: 6250117 cumulative IPC: 4 (Simulation time: 00 hr 00 min 56 sec)
Heartbeat CPU 0 instructions: 30000000 cycles: 14280952 heartbeat IPC: 1.077 cumulative IPC: 0.6226 (Simulation time: 00 hr 01 min 27 sec)
Heartbeat CPU 0 instructions: 40000003 cycles: 30388271 heartbeat IPC: 0.6208 cumulative IPC: 0.6214 (Simulation time: 00 hr 02 min 30 sec)
Heartbeat CPU 0 instructions: 50000004 cycles: 46453190 heartbeat IPC: 0.6225 cumulative IPC: 0.6218 (Simulation time: 00 hr 03 min 33 sec)
Heartbeat CPU 0 instructions: 60000004 cycles: 62630872 heartbeat IPC: 0.6181 cumulative IPC: 0.6208 (Simulation time: 00 hr 04 min 36 sec)
Heartbeat CPU 0 instructions: 70000000 cycles: 78829843 heartbeat IPC: 0.6173 cumulative IPC: 0.62 (Simulation time: 00 hr 05 min 39 sec)
Heartbeat CPU 0 instructions: 80000004 cycles: 94807928 heartbeat IPC: 0.6259 cumulative IPC: 0.6211 (Simulation time: 00 hr 06 min 42 sec)
*** Reached end of trace: (0, "../traces/secret_traces/srv/srv185.champsimtrace.xz")
Heartbeat CPU 0 instructions: 90000002 cycles: 110788050 heartbeat IPC: 0.6258 cumulative IPC: 0.6218 (Simulation time: 00 hr 07 min 44 sec)
Heartbeat CPU 0 instructions: 100000004 cycles: 126816183 heartbeat IPC: 0.6239 cumulative IPC: 0.6221 (Simulation time: 00 hr 08 min 47 sec)
Heartbeat CPU 0 instructions: 110000000 cycles: 142840025 heartbeat IPC: 0.6241 cumulative IPC: 0.6223 (Simulation time: 00 hr 09 min 50 sec)
Heartbeat CPU 0 instructions: 120000003 cycles: 158955719 heartbeat IPC: 0.6205 cumulative IPC: 0.6221 (Simulation time: 00 hr 10 min 53 sec)
Simulation finished CPU 0 instructions: 100000001 cycles: 160719737 cumulative IPC: 0.6222 (Simulation time: 00 hr 11 min 24 sec)
Simulation complete CPU 0 instructions: 100000001 cycles: 160719737 cumulative IPC: 0.6222 (Simulation time: 00 hr 11 min 24 sec)

ChampSim completed all CPUs

=== Simulation ===
CPU 0 runs ../traces/secret_traces/srv/srv185.champsimtrace.xz
Region of Interest Statistics

CPU 0 cumulative IPC: 0.6222 instructions: 100000001 cycles: 160719737
CPU 0 Branch Prediction Accuracy: 71.94% MPKI: 50.4 Average ROB Occupancy at Mispredict: 3.961
Branch type MPKI
BRANCH_DIRECT_JUMP: 0.609
BRANCH_INDIRECT: 34.9
BRANCH_CONDITIONAL: 9.6
BRANCH_DIRECT_CALL: 1.78
BRANCH_INDIRECT_CALL: 2.16
BRANCH_RETURN: 1.34

LLC TOTAL        ACCESS:     865315 HIT:     843051 MISS:      22264
LLC LOAD         ACCESS:     680302 HIT:     663754 MISS:      16548
LLC RFO          ACCESS:      61298 HIT:      56616 MISS:       4682
LLC PREFETCH     ACCESS:          0 HIT:          0 MISS:          0
LLC WRITE        ACCESS:     118398 HIT:     118256 MISS:        142
LLC TRANSLATION  ACCESS:       5317 HIT:       4425 MISS:        892
LLC PREFETCH REQUESTED:          0 ISSUED:          0 USEFUL:          0 USELESS:          0
LLC AVERAGE MISS LATENCY: 192 cycles
cpu0_DTLB TOTAL        ACCESS:   26880236 HIT:   25698745 MISS:    1181491
cpu0_DTLB LOAD         ACCESS:   26880236 HIT:   25698745 MISS:    1181491
cpu0_DTLB RFO          ACCESS:          0 HIT:          0 MISS:          0
cpu0_DTLB PREFETCH     ACCESS:          0 HIT:          0 MISS:          0
cpu0_DTLB WRITE        ACCESS:          0 HIT:          0 MISS:          0
cpu0_DTLB TRANSLATION  ACCESS:          0 HIT:          0 MISS:          0
cpu0_DTLB PREFETCH REQUESTED:          0 ISSUED:          0 USEFUL:          0 USELESS:          0
cpu0_DTLB AVERAGE MISS LATENCY: 6.684 cycles
cpu0_ITLB TOTAL        ACCESS:   11293545 HIT:    9095758 MISS:    2197787
cpu0_ITLB LOAD         ACCESS:   11293545 HIT:    9095758 MISS:    2197787
cpu0_ITLB RFO          ACCESS:          0 HIT:          0 MISS:          0
cpu0_ITLB PREFETCH     ACCESS:          0 HIT:          0 MISS:          0
cpu0_ITLB WRITE        ACCESS:          0 HIT:          0 MISS:          0
cpu0_ITLB TRANSLATION  ACCESS:          0 HIT:          0 MISS:          0
cpu0_ITLB PREFETCH REQUESTED:          0 ISSUED:          0 USEFUL:          0 USELESS:          0
cpu0_ITLB AVERAGE MISS LATENCY: 3.006 cycles
cpu0_L1D TOTAL        ACCESS:   33762493 HIT:   29557313 MISS:    4205180
cpu0_L1D LOAD         ACCESS:   20459251 HIT:   17963012 MISS:    2496239
cpu0_L1D RFO          ACCESS:          0 HIT:          0 MISS:          0
cpu0_L1D PREFETCH     ACCESS:          0 HIT:          0 MISS:          0
cpu0_L1D WRITE        ACCESS:   13290160 HIT:   11594199 MISS:    1695961
cpu0_L1D TRANSLATION  ACCESS:      13082 HIT:        102 MISS:      12980
cpu0_L1D PREFETCH REQUESTED:          0 ISSUED:          0 USEFUL:          0 USELESS:          0
cpu0_L1D AVERAGE MISS LATENCY: 8.915 cycles
cpu0_L1I TOTAL        ACCESS:   12729087 HIT:    5507463 MISS:    7221624
cpu0_L1I LOAD         ACCESS:   12729087 HIT:    5507463 MISS:    7221624
cpu0_L1I RFO          ACCESS:          0 HIT:          0 MISS:          0
cpu0_L1I PREFETCH     ACCESS:          0 HIT:          0 MISS:          0
cpu0_L1I WRITE        ACCESS:          0 HIT:          0 MISS:          0
cpu0_L1I TRANSLATION  ACCESS:          0 HIT:          0 MISS:          0
cpu0_L1I PREFETCH REQUESTED:          0 ISSUED:          0 USEFUL:          0 USELESS:          0
cpu0_L1I AVERAGE MISS LATENCY: 8.942 cycles
cpu0_L2C TOTAL        ACCESS:    9633053 HIT:    8883198 MISS:     749855
cpu0_L2C LOAD         ACCESS:    7864542 HIT:    7184240 MISS:     680302
cpu0_L2C RFO          ACCESS:     601672 HIT:     540374 MISS:      61298
cpu0_L2C PREFETCH     ACCESS:          0 HIT:          0 MISS:          0
cpu0_L2C WRITE        ACCESS:    1153860 HIT:    1150922 MISS:       2938
cpu0_L2C TRANSLATION  ACCESS:      12979 HIT:       7662 MISS:       5317
cpu0_L2C PREFETCH REQUESTED:          0 ISSUED:          0 USEFUL:          0 USELESS:          0
cpu0_L2C AVERAGE MISS LATENCY: 25.66 cycles
cpu0_STLB TOTAL        ACCESS:    2035859 HIT:    2023108 MISS:      12751
cpu0_STLB LOAD         ACCESS:    2035859 HIT:    2023108 MISS:      12751
cpu0_STLB RFO          ACCESS:          0 HIT:          0 MISS:          0
cpu0_STLB PREFETCH     ACCESS:          0 HIT:          0 MISS:          0
cpu0_STLB WRITE        ACCESS:          0 HIT:          0 MISS:          0
cpu0_STLB TRANSLATION  ACCESS:          0 HIT:          0 MISS:          0
cpu0_STLB PREFETCH REQUESTED:          0 ISSUED:          0 USEFUL:          0 USELESS:          0
cpu0_STLB AVERAGE MISS LATENCY: 45.2 cycles

DRAM Statistics

Channel 0 RQ ROW_BUFFER_HIT:      10392
  ROW_BUFFER_MISS:      11728
 AVG DBUS CONGESTED CYCLE: 3.943
WQ ROW_BUFFER_HIT: Channel 0 
  ROW_BUFFER_MISS:        333
  FULL:       2651
