WARNING: physical memory size is smaller than virtual memory size.

*** ChampSim Multicore Out-of-Order Simulator ***
Warmup Instructions: 25000000
Simulation Instructions: 100000000
Number of CPUs: 1
Page size: 4096

Off-chip DRAM Size: 4 GiB Channels: 1 Width: 64-bit Data Race: 3200 MT/s
Heartbeat CPU 0 instructions: 10000002 cycles: 2500070 heartbeat IPC: 4 cumulative IPC: 4 (Simulation time: 00 hr 00 min 22 sec)
Heartbeat CPU 0 instructions: 20000001 cycles: 5000119 heartbeat IPC: 4 cumulative IPC: 4 (Simulation time: 00 hr 00 min 44 sec)
Warmup finished CPU 0 instructions: 25000001 cycles: 6250120 cumulative IPC: 4 (Simulation time: 00 hr 00 min 55 sec)
Warmup complete CPU 0 instructions: 25000001 cycles: 6250120 cumulative IPC: 4 (Simulation time: 00 hr 00 min 55 sec)
Heartbeat CPU 0 instructions: 30000000 cycles: 13860461 heartbeat IPC: 1.129 cumulative IPC: 0.657 (Simulation time: 00 hr 01 min 25 sec)
Heartbeat CPU 0 instructions: 40000000 cycles: 29668610 heartbeat IPC: 0.6326 cumulative IPC: 0.6405 (Simulation time: 00 hr 02 min 26 sec)
Heartbeat CPU 0 instructions: 50000004 cycles: 45133698 heartbeat IPC: 0.6466 cumulative IPC: 0.6429 (Simulation time: 00 hr 03 min 27 sec)
Heartbeat CPU 0 instructions: 60000003 cycles: 60669150 heartbeat IPC: 0.6437 cumulative IPC: 0.6432 (Simulation time: 00 hr 04 min 28 sec)
Heartbeat CPU 0 instructions: 70000002 cycles: 76467124 heartbeat IPC: 0.633 cumulative IPC: 0.6409 (Simulation time: 00 hr 05 min 29 sec)
Heartbeat CPU 0 instructions: 80000000 cycles: 92413469 heartbeat IPC: 0.6271 cumulative IPC: 0.6383 (Simulation time: 00 hr 06 min 32 sec)
Heartbeat CPU 0 instructions: 90000001 cycles: 108156764 heartbeat IPC: 0.6352 cumulative IPC: 0.6378 (Simulation time: 00 hr 07 min 33 sec)
Heartbeat CPU 0 instructions: 100000003 cycles: 124206530 heartbeat IPC: 0.6231 cumulative IPC: 0.6358 (Simulation time: 00 hr 08 min 35 sec)
*** Reached end of trace: (0, "../traces/secret_traces/srv/srv116.champsimtrace.xz")
Heartbeat CPU 0 instructions: 110000001 cycles: 139528895 heartbeat IPC: 0.6526 cumulative IPC: 0.6378 (Simulation time: 00 hr 09 min 36 sec)
Heartbeat CPU 0 instructions: 120000000 cycles: 155038082 heartbeat IPC: 0.6448 cumulative IPC: 0.6385 (Simulation time: 00 hr 10 min 37 sec)
Simulation finished CPU 0 instructions: 100000000 cycles: 156507375 cumulative IPC: 0.6389 (Simulation time: 00 hr 11 min 07 sec)
Simulation complete CPU 0 instructions: 100000000 cycles: 156507375 cumulative IPC: 0.6389 (Simulation time: 00 hr 11 min 07 sec)

ChampSim completed all CPUs

=== Simulation ===
CPU 0 runs ../traces/secret_traces/srv/srv116.champsimtrace.xz
Region of Interest Statistics

CPU 0 cumulative IPC: 0.6389 instructions: 100000000 cycles: 156507375
CPU 0 Branch Prediction Accuracy: 70.63% MPKI: 51.83 Average ROB Occupancy at Mispredict: 4.383
Branch type MPKI
BRANCH_DIRECT_JUMP: 0.823
BRANCH_INDIRECT: 35.2
BRANCH_CONDITIONAL: 10.1
BRANCH_DIRECT_CALL: 2.25
BRANCH_INDIRECT_CALL: 2.14
BRANCH_RETURN: 1.4

LLC TOTAL        ACCESS:    1088058 HIT:    1027325 MISS:      60733
LLC LOAD         ACCESS:     745209 HIT:     723292 MISS:      21917
LLC RFO          ACCESS:     135894 HIT:      98442 MISS:      37452
LLC PREFETCH     ACCESS:          0 HIT:          0 MISS:          0
LLC WRITE        ACCESS:     202506 HIT:     202235 MISS:        271
LLC TRANSLATION  ACCESS:       4449 HIT:       3356 MISS:       1093
LLC PREFETCH REQUESTED:          0 ISSUED:          0 USEFUL:          0 USELESS:          0
LLC AVERAGE MISS LATENCY: 281.2 cycles
cpu0_DTLB TOTAL        ACCESS:   27108598 HIT:   26014199 MISS:    1094399
cpu0_DTLB LOAD         ACCESS:   27108598 HIT:   26014199 MISS:    1094399
cpu0_DTLB RFO          ACCESS:          0 HIT:          0 MISS:          0
cpu0_DTLB PREFETCH     ACCESS:          0 HIT:          0 MISS:          0
cpu0_DTLB WRITE        ACCESS:          0 HIT:          0 MISS:          0
cpu0_DTLB TRANSLATION  ACCESS:          0 HIT:          0 MISS:          0
cpu0_DTLB PREFETCH REQUESTED:          0 ISSUED:          0 USEFUL:          0 USELESS:          0
cpu0_DTLB AVERAGE MISS LATENCY: 6.59 cycles
cpu0_ITLB TOTAL        ACCESS:   10010031 HIT:    8271981 MISS:    1738050
cpu0_ITLB LOAD         ACCESS:   10010031 HIT:    8271981 MISS:    1738050
cpu0_ITLB RFO          ACCESS:          0 HIT:          0 MISS:          0
cpu0_ITLB PREFETCH     ACCESS:          0 HIT:          0 MISS:          0
cpu0_ITLB WRITE        ACCESS:          0 HIT:          0 MISS:          0
cpu0_ITLB TRANSLATION  ACCESS:          0 HIT:          0 MISS:          0
cpu0_ITLB PREFETCH REQUESTED:          0 ISSUED:          0 USEFUL:          0 USELESS:          0
cpu0_ITLB AVERAGE MISS LATENCY: 3.135 cycles
cpu0_L1D TOTAL        ACCESS:   33970315 HIT:   30793883 MISS:    3176432
cpu0_L1D LOAD         ACCESS:   20827065 HIT:   19167765 MISS:    1659300
cpu0_L1D RFO          ACCESS:          0 HIT:          0 MISS:          0
cpu0_L1D PREFETCH     ACCESS:          0 HIT:          0 MISS:          0
cpu0_L1D WRITE        ACCESS:   13136200 HIT:   11625818 MISS:    1510382
cpu0_L1D TRANSLATION  ACCESS:       7050 HIT:        300 MISS:       6750
cpu0_L1D PREFETCH REQUESTED:          0 ISSUED:          0 USEFUL:          0 USELESS:          0
cpu0_L1D AVERAGE MISS LATENCY: 13.63 cycles
cpu0_L1I TOTAL        ACCESS:   11228976 HIT:    5178873 MISS:    6050103
cpu0_L1I LOAD         ACCESS:   11228976 HIT:    5178873 MISS:    6050103
cpu0_L1I RFO          ACCESS:          0 HIT:          0 MISS:          0
cpu0_L1I PREFETCH     ACCESS:          0 HIT:          0 MISS:          0
cpu0_L1I WRITE        ACCESS:          0 HIT:          0 MISS:          0
cpu0_L1I TRANSLATION  ACCESS:          0 HIT:          0 MISS:          0
cpu0_L1I PREFETCH REQUESTED:          0 ISSUED:          0 USEFUL:          0 USELESS:          0
cpu0_L1I AVERAGE MISS LATENCY: 9.504 cycles
cpu0_L2C TOTAL        ACCESS:    7688941 HIT:    6790542 MISS:     898399
cpu0_L2C LOAD         ACCESS:    6229965 HIT:    5484756 MISS:     745209
cpu0_L2C RFO          ACCESS:     542248 HIT:     406354 MISS:     135894
cpu0_L2C PREFETCH     ACCESS:          0 HIT:          0 MISS:          0
cpu0_L2C WRITE        ACCESS:     909986 HIT:     897139 MISS:      12847
cpu0_L2C TRANSLATION  ACCESS:       6742 HIT:       2293 MISS:       4449
cpu0_L2C PREFETCH REQUESTED:          0 ISSUED:          0 USEFUL:          0 USELESS:          0
cpu0_L2C AVERAGE MISS LATENCY: 38.8 cycles
cpu0_STLB TOTAL        ACCESS:    1757467 HIT:    1750790 MISS:       6677
cpu0_STLB LOAD         ACCESS:    1757467 HIT:    1750790 MISS:       6677
cpu0_STLB RFO          ACCESS:          0 HIT:          0 MISS:          0
cpu0_STLB PREFETCH     ACCESS:          0 HIT:          0 MISS:          0
cpu0_STLB WRITE        ACCESS:          0 HIT:          0 MISS:          0
cpu0_STLB TRANSLATION  ACCESS:          0 HIT:          0 MISS:          0
cpu0_STLB PREFETCH REQUESTED:          0 ISSUED:          0 USEFUL:          0 USELESS:          0
cpu0_STLB AVERAGE MISS LATENCY: 85.82 cycles

DRAM Statistics

Channel 0 RQ ROW_BUFFER_HIT:      28751
  ROW_BUFFER_MISS:      31711
 AVG DBUS CONGESTED CYCLE: 3.977
WQ ROW_BUFFER_HIT: Channel 0 
  ROW_BUFFER_MISS:       2616
  FULL:      31018
