WARNING: physical memory size is smaller than virtual memory size.

*** ChampSim Multicore Out-of-Order Simulator ***
Warmup Instructions: 25000000
Simulation Instructions: 100000000
Number of CPUs: 1
Page size: 4096

Off-chip DRAM Size: 4 GiB Channels: 1 Width: 64-bit Data Race: 3200 MT/s
Heartbeat CPU 0 instructions: 10000003 cycles: 2500159 heartbeat IPC: 4 cumulative IPC: 4 (Simulation time: 00 hr 00 min 22 sec)
Heartbeat CPU 0 instructions: 20000003 cycles: 5000159 heartbeat IPC: 4 cumulative IPC: 4 (Simulation time: 00 hr 00 min 45 sec)
Warmup finished CPU 0 instructions: 25000003 cycles: 6250160 cumulative IPC: 4 (Simulation time: 00 hr 00 min 56 sec)
Warmup complete CPU 0 instructions: 25000003 cycles: 6250160 cumulative IPC: 4 (Simulation time: 00 hr 00 min 56 sec)
Heartbeat CPU 0 instructions: 30000001 cycles: 14763209 heartbeat IPC: 1.024 cumulative IPC: 0.5873 (Simulation time: 00 hr 01 min 29 sec)
Heartbeat CPU 0 instructions: 40000000 cycles: 31658657 heartbeat IPC: 0.5919 cumulative IPC: 0.5904 (Simulation time: 00 hr 02 min 35 sec)
Heartbeat CPU 0 instructions: 50000002 cycles: 48539625 heartbeat IPC: 0.5924 cumulative IPC: 0.5912 (Simulation time: 00 hr 03 min 41 sec)
Heartbeat CPU 0 instructions: 60000002 cycles: 65502642 heartbeat IPC: 0.5895 cumulative IPC: 0.5907 (Simulation time: 00 hr 04 min 47 sec)
Heartbeat CPU 0 instructions: 70000000 cycles: 82314162 heartbeat IPC: 0.5948 cumulative IPC: 0.5916 (Simulation time: 00 hr 05 min 53 sec)
Heartbeat CPU 0 instructions: 80000002 cycles: 99062152 heartbeat IPC: 0.5971 cumulative IPC: 0.5926 (Simulation time: 00 hr 06 min 59 sec)
*** Reached end of trace: (0, "../traces/secret_traces/srv/srv186.champsimtrace.xz")
Heartbeat CPU 0 instructions: 90000000 cycles: 115672256 heartbeat IPC: 0.602 cumulative IPC: 0.594 (Simulation time: 00 hr 08 min 04 sec)
Heartbeat CPU 0 instructions: 100000000 cycles: 132450118 heartbeat IPC: 0.596 cumulative IPC: 0.5943 (Simulation time: 00 hr 09 min 10 sec)
Heartbeat CPU 0 instructions: 110000003 cycles: 149050562 heartbeat IPC: 0.6024 cumulative IPC: 0.5952 (Simulation time: 00 hr 10 min 15 sec)
Heartbeat CPU 0 instructions: 120000002 cycles: 165825269 heartbeat IPC: 0.5961 cumulative IPC: 0.5953 (Simulation time: 00 hr 11 min 20 sec)
Simulation finished CPU 0 instructions: 100000003 cycles: 167967300 cumulative IPC: 0.5954 (Simulation time: 00 hr 11 min 53 sec)
Simulation complete CPU 0 instructions: 100000003 cycles: 167967300 cumulative IPC: 0.5954 (Simulation time: 00 hr 11 min 53 sec)

ChampSim completed all CPUs

=== Simulation ===
CPU 0 runs ../traces/secret_traces/srv/srv186.champsimtrace.xz
Region of Interest Statistics

CPU 0 cumulative IPC: 0.5954 instructions: 100000003 cycles: 167967300
CPU 0 Branch Prediction Accuracy: 72.34% MPKI: 49.93 Average ROB Occupancy at Mispredict: 4.199
Branch type MPKI
BRANCH_DIRECT_JUMP: 0.449
BRANCH_INDIRECT: 34.8
BRANCH_CONDITIONAL: 9.85
BRANCH_DIRECT_CALL: 1.56
BRANCH_INDIRECT_CALL: 2.11
BRANCH_RETURN: 1.2

LLC TOTAL        ACCESS:    1056777 HIT:     976187 MISS:      80590
LLC LOAD         ACCESS:     793343 HIT:     731904 MISS:      61439
LLC RFO          ACCESS:      90690 HIT:      84721 MISS:       5969
LLC PREFETCH     ACCESS:          0 HIT:          0 MISS:          0
LLC WRITE        ACCESS:     144087 HIT:     143586 MISS:        501
LLC TRANSLATION  ACCESS:      28657 HIT:      15976 MISS:      12681
LLC PREFETCH REQUESTED:          0 ISSUED:          0 USEFUL:          0 USELESS:          0
LLC AVERAGE MISS LATENCY: 175.7 cycles
cpu0_DTLB TOTAL        ACCESS:   26899289 HIT:   25626144 MISS:    1273145
cpu0_DTLB LOAD         ACCESS:   26899289 HIT:   25626144 MISS:    1273145
cpu0_DTLB RFO          ACCESS:          0 HIT:          0 MISS:          0
cpu0_DTLB PREFETCH     ACCESS:          0 HIT:          0 MISS:          0
cpu0_DTLB WRITE        ACCESS:          0 HIT:          0 MISS:          0
cpu0_DTLB TRANSLATION  ACCESS:          0 HIT:          0 MISS:          0
cpu0_DTLB PREFETCH REQUESTED:          0 ISSUED:          0 USEFUL:          0 USELESS:          0
cpu0_DTLB AVERAGE MISS LATENCY: 9.208 cycles
cpu0_ITLB TOTAL        ACCESS:   11279203 HIT:    9110365 MISS:    2168838
cpu0_ITLB LOAD         ACCESS:   11279203 HIT:    9110365 MISS:    2168838
cpu0_ITLB RFO          ACCESS:          0 HIT:          0 MISS:          0
cpu0_ITLB PREFETCH     ACCESS:          0 HIT:          0 MISS:          0
cpu0_ITLB WRITE        ACCESS:          0 HIT:          0 MISS:          0
cpu0_ITLB TRANSLATION  ACCESS:          0 HIT:          0 MISS:          0
cpu0_ITLB PREFETCH REQUESTED:          0 ISSUED:          0 USEFUL:          0 USELESS:          0
cpu0_ITLB AVERAGE MISS LATENCY: 3.073 cycles
cpu0_L1D TOTAL        ACCESS:   33710755 HIT:   29418663 MISS:    4292092
cpu0_L1D LOAD         ACCESS:   20428447 HIT:   17901111 MISS:    2527336
cpu0_L1D RFO          ACCESS:          0 HIT:          0 MISS:          0
cpu0_L1D PREFETCH     ACCESS:          0 HIT:          0 MISS:          0
cpu0_L1D WRITE        ACCESS:   13229252 HIT:   11515608 MISS:    1713644
cpu0_L1D TRANSLATION  ACCESS:      53056 HIT:       1944 MISS:      51112
cpu0_L1D PREFETCH REQUESTED:          0 ISSUED:          0 USEFUL:          0 USELESS:          0
cpu0_L1D AVERAGE MISS LATENCY: 11.32 cycles
cpu0_L1I TOTAL        ACCESS:   12733033 HIT:    5536381 MISS:    7196652
cpu0_L1I LOAD         ACCESS:   12733033 HIT:    5536381 MISS:    7196652
cpu0_L1I RFO          ACCESS:          0 HIT:          0 MISS:          0
cpu0_L1I PREFETCH     ACCESS:          0 HIT:          0 MISS:          0
cpu0_L1I WRITE        ACCESS:          0 HIT:          0 MISS:          0
cpu0_L1I TRANSLATION  ACCESS:          0 HIT:          0 MISS:          0
cpu0_L1I PREFETCH REQUESTED:          0 ISSUED:          0 USEFUL:          0 USELESS:          0
cpu0_L1I AVERAGE MISS LATENCY: 9.139 cycles
cpu0_L2C TOTAL        ACCESS:    9603305 HIT:    8677569 MISS:     925736
cpu0_L2C LOAD         ACCESS:    7800498 HIT:    7007155 MISS:     793343
cpu0_L2C RFO          ACCESS:     600996 HIT:     510306 MISS:      90690
cpu0_L2C PREFETCH     ACCESS:          0 HIT:          0 MISS:          0
cpu0_L2C WRITE        ACCESS:    1150737 HIT:    1137691 MISS:      13046
cpu0_L2C TRANSLATION  ACCESS:      51074 HIT:      22417 MISS:      28657
cpu0_L2C PREFETCH REQUESTED:          0 ISSUED:          0 USEFUL:          0 USELESS:          0
cpu0_L2C AVERAGE MISS LATENCY: 35.11 cycles
cpu0_STLB TOTAL        ACCESS:    2093605 HIT:    2057832 MISS:      35773
cpu0_STLB LOAD         ACCESS:    2093605 HIT:    2057832 MISS:      35773
cpu0_STLB RFO          ACCESS:          0 HIT:          0 MISS:          0
cpu0_STLB PREFETCH     ACCESS:          0 HIT:          0 MISS:          0
cpu0_STLB WRITE        ACCESS:          0 HIT:          0 MISS:          0
cpu0_STLB TRANSLATION  ACCESS:          0 HIT:          0 MISS:          0
cpu0_STLB PREFETCH REQUESTED:          0 ISSUED:          0 USEFUL:          0 USELESS:          0
cpu0_STLB AVERAGE MISS LATENCY: 118.1 cycles

DRAM Statistics

Channel 0 RQ ROW_BUFFER_HIT:      28428
  ROW_BUFFER_MISS:      51661
 AVG DBUS CONGESTED CYCLE: 3.924
WQ ROW_BUFFER_HIT: Channel 0 
  ROW_BUFFER_MISS:       2162
  FULL:       5791
