WARNING: physical memory size is smaller than virtual memory size.

*** ChampSim Multicore Out-of-Order Simulator ***
Warmup Instructions: 25000000
Simulation Instructions: 100000000
Number of CPUs: 1
Page size: 4096

Off-chip DRAM Size: 4 GiB Channels: 1 Width: 64-bit Data Race: 3200 MT/s
Heartbeat CPU 0 instructions: 10000001 cycles: 2736747 heartbeat IPC: 3.654 cumulative IPC: 3.654 (Simulation time: 00 hr 00 min 23 sec)
Heartbeat CPU 0 instructions: 20000002 cycles: 5465320 heartbeat IPC: 3.665 cumulative IPC: 3.659 (Simulation time: 00 hr 00 min 46 sec)
Warmup finished CPU 0 instructions: 25000001 cycles: 6834795 cumulative IPC: 3.658 (Simulation time: 00 hr 00 min 57 sec)
Warmup complete CPU 0 instructions: 25000001 cycles: 6834795 cumulative IPC: 3.658 (Simulation time: 00 hr 00 min 57 sec)
Heartbeat CPU 0 instructions: 30000003 cycles: 16302389 heartbeat IPC: 0.9228 cumulative IPC: 0.5281 (Simulation time: 00 hr 01 min 38 sec)
Heartbeat CPU 0 instructions: 40000000 cycles: 35066212 heartbeat IPC: 0.5329 cumulative IPC: 0.5313 (Simulation time: 00 hr 02 min 59 sec)
Heartbeat CPU 0 instructions: 50000000 cycles: 53987497 heartbeat IPC: 0.5285 cumulative IPC: 0.5302 (Simulation time: 00 hr 04 min 20 sec)
Heartbeat CPU 0 instructions: 60000001 cycles: 72792988 heartbeat IPC: 0.5318 cumulative IPC: 0.5306 (Simulation time: 00 hr 05 min 42 sec)
Heartbeat CPU 0 instructions: 70000000 cycles: 91853708 heartbeat IPC: 0.5246 cumulative IPC: 0.5293 (Simulation time: 00 hr 07 min 04 sec)
Heartbeat CPU 0 instructions: 80000002 cycles: 110378889 heartbeat IPC: 0.5398 cumulative IPC: 0.5312 (Simulation time: 00 hr 08 min 24 sec)
Heartbeat CPU 0 instructions: 90000001 cycles: 129158266 heartbeat IPC: 0.5325 cumulative IPC: 0.5314 (Simulation time: 00 hr 09 min 45 sec)
Heartbeat CPU 0 instructions: 100000000 cycles: 148438015 heartbeat IPC: 0.5187 cumulative IPC: 0.5296 (Simulation time: 00 hr 11 min 08 sec)
*** Reached end of trace: (0, "../traces/secret_traces/srv/srv10.champsimtrace.xz")
Heartbeat CPU 0 instructions: 110000002 cycles: 167188799 heartbeat IPC: 0.5333 cumulative IPC: 0.5301 (Simulation time: 00 hr 12 min 29 sec)
Heartbeat CPU 0 instructions: 120000002 cycles: 186027616 heartbeat IPC: 0.5308 cumulative IPC: 0.5302 (Simulation time: 00 hr 13 min 50 sec)
Simulation finished CPU 0 instructions: 100000004 cycles: 188572001 cumulative IPC: 0.5303 (Simulation time: 00 hr 14 min 31 sec)
Simulation complete CPU 0 instructions: 100000004 cycles: 188572001 cumulative IPC: 0.5303 (Simulation time: 00 hr 14 min 31 sec)

ChampSim completed all CPUs

=== Simulation ===
CPU 0 runs ../traces/secret_traces/srv/srv10.champsimtrace.xz
Region of Interest Statistics

CPU 0 cumulative IPC: 0.5303 instructions: 100000004 cycles: 188572001
CPU 0 Branch Prediction Accuracy: 91.56% MPKI: 12.91 Average ROB Occupancy at Mispredict: 28.79
Branch type MPKI
BRANCH_DIRECT_JUMP: 0.00057
BRANCH_INDIRECT: 8.37
BRANCH_CONDITIONAL: 3.89
BRANCH_DIRECT_CALL: 0.00134
BRANCH_INDIRECT_CALL: 0.637
BRANCH_RETURN: 0.00115

LLC TOTAL        ACCESS:    5242521 HIT:    2964703 MISS:    2277818
LLC LOAD         ACCESS:    1387733 HIT:     622777 MISS:     764956
LLC RFO          ACCESS:    1782327 HIT:     287006 MISS:    1495321
LLC PREFETCH     ACCESS:          0 HIT:          0 MISS:          0
LLC WRITE        ACCESS:    2054579 HIT:    2051343 MISS:       3236
LLC TRANSLATION  ACCESS:      17882 HIT:       3577 MISS:      14305
LLC PREFETCH REQUESTED:          0 ISSUED:          0 USEFUL:          0 USELESS:          0
LLC AVERAGE MISS LATENCY: 632.4 cycles
cpu0_DTLB TOTAL        ACCESS:   25495421 HIT:   24048991 MISS:    1446430
cpu0_DTLB LOAD         ACCESS:   25495421 HIT:   24048991 MISS:    1446430
cpu0_DTLB RFO          ACCESS:          0 HIT:          0 MISS:          0
cpu0_DTLB PREFETCH     ACCESS:          0 HIT:          0 MISS:          0
cpu0_DTLB WRITE        ACCESS:          0 HIT:          0 MISS:          0
cpu0_DTLB TRANSLATION  ACCESS:          0 HIT:          0 MISS:          0
cpu0_DTLB PREFETCH REQUESTED:          0 ISSUED:          0 USEFUL:          0 USELESS:          0
cpu0_DTLB AVERAGE MISS LATENCY: 10.25 cycles
cpu0_ITLB TOTAL        ACCESS:   10215880 HIT:    8176761 MISS:    2039119
cpu0_ITLB LOAD         ACCESS:   10215880 HIT:    8176761 MISS:    2039119
cpu0_ITLB RFO          ACCESS:          0 HIT:          0 MISS:          0
cpu0_ITLB PREFETCH     ACCESS:          0 HIT:          0 MISS:          0
cpu0_ITLB WRITE        ACCESS:          0 HIT:          0 MISS:          0
cpu0_ITLB TRANSLATION  ACCESS:          0 HIT:          0 MISS:          0
cpu0_ITLB PREFETCH REQUESTED:          0 ISSUED:          0 USEFUL:          0 USELESS:          0
cpu0_ITLB AVERAGE MISS LATENCY: 1.759 cycles
cpu0_L1D TOTAL        ACCESS:   34468622 HIT:   22859928 MISS:   11608694
cpu0_L1D LOAD         ACCESS:   17360019 HIT:   13809054 MISS:    3550965
cpu0_L1D RFO          ACCESS:          0 HIT:          0 MISS:          0
cpu0_L1D PREFETCH     ACCESS:          0 HIT:          0 MISS:          0
cpu0_L1D WRITE        ACCESS:   17066342 HIT:    9036752 MISS:    8029590
cpu0_L1D TRANSLATION  ACCESS:      42261 HIT:      14122 MISS:      28139
cpu0_L1D PREFETCH REQUESTED:          0 ISSUED:          0 USEFUL:          0 USELESS:          0
cpu0_L1D AVERAGE MISS LATENCY: 126.7 cycles
cpu0_L1I TOTAL        ACCESS:   11749347 HIT:    4962406 MISS:    6786941
cpu0_L1I LOAD         ACCESS:   11749347 HIT:    4962406 MISS:    6786941
cpu0_L1I RFO          ACCESS:          0 HIT:          0 MISS:          0
cpu0_L1I PREFETCH     ACCESS:          0 HIT:          0 MISS:          0
cpu0_L1I WRITE        ACCESS:          0 HIT:          0 MISS:          0
cpu0_L1I TRANSLATION  ACCESS:          0 HIT:          0 MISS:          0
cpu0_L1I PREFETCH REQUESTED:          0 ISSUED:          0 USEFUL:          0 USELESS:          0
cpu0_L1I AVERAGE MISS LATENCY: 7.57 cycles
cpu0_L2C TOTAL        ACCESS:   10171002 HIT:    6978514 MISS:    3192488
cpu0_L2C LOAD         ACCESS:    6127889 HIT:    4740156 MISS:    1387733
cpu0_L2C RFO          ACCESS:    1835866 HIT:      53537 MISS:    1782329
cpu0_L2C PREFETCH     ACCESS:          0 HIT:          0 MISS:          0
cpu0_L2C WRITE        ACCESS:    2179188 HIT:    2174644 MISS:       4544
cpu0_L2C TRANSLATION  ACCESS:      28059 HIT:      10177 MISS:      17882
cpu0_L2C PREFETCH REQUESTED:          0 ISSUED:          0 USEFUL:          0 USELESS:          0
cpu0_L2C AVERAGE MISS LATENCY: 471.9 cycles
cpu0_STLB TOTAL        ACCESS:    1466633 HIT:    1428614 MISS:      38019
cpu0_STLB LOAD         ACCESS:    1466633 HIT:    1428614 MISS:      38019
cpu0_STLB RFO          ACCESS:          0 HIT:          0 MISS:          0
cpu0_STLB PREFETCH     ACCESS:          0 HIT:          0 MISS:          0
cpu0_STLB WRITE        ACCESS:          0 HIT:          0 MISS:          0
cpu0_STLB TRANSLATION  ACCESS:          0 HIT:          0 MISS:          0
cpu0_STLB PREFETCH REQUESTED:          0 ISSUED:          0 USEFUL:          0 USELESS:          0
cpu0_STLB AVERAGE MISS LATENCY: 304.5 cycles

DRAM Statistics

Channel 0 RQ ROW_BUFFER_HIT:     846964
  ROW_BUFFER_MISS:    1427073
 AVG DBUS CONGESTED CYCLE: 3.978
WQ ROW_BUFFER_HIT: Channel 0 
  ROW_BUFFER_MISS:     163411
  FULL:    1443423
