WARNING: physical memory size is smaller than virtual memory size.

*** ChampSim Multicore Out-of-Order Simulator ***
Warmup Instructions: 25000000
Simulation Instructions: 100000000
Number of CPUs: 1
Page size: 4096

Off-chip DRAM Size: 4 GiB Channels: 1 Width: 64-bit Data Race: 3200 MT/s
Heartbeat CPU 0 instructions: 10000001 cycles: 2500168 heartbeat IPC: 4 cumulative IPC: 4 (Simulation time: 00 hr 00 min 22 sec)
Heartbeat CPU 0 instructions: 20000001 cycles: 5000168 heartbeat IPC: 4 cumulative IPC: 4 (Simulation time: 00 hr 00 min 44 sec)
Warmup finished CPU 0 instructions: 25000001 cycles: 6250169 cumulative IPC: 4 (Simulation time: 00 hr 00 min 56 sec)
Warmup complete CPU 0 instructions: 25000001 cycles: 6250169 cumulative IPC: 4 (Simulation time: 00 hr 00 min 56 sec)
Heartbeat CPU 0 instructions: 30000000 cycles: 14751448 heartbeat IPC: 1.026 cumulative IPC: 0.5881 (Simulation time: 00 hr 01 min 28 sec)
Heartbeat CPU 0 instructions: 40000001 cycles: 31817096 heartbeat IPC: 0.586 cumulative IPC: 0.5867 (Simulation time: 00 hr 02 min 34 sec)
Heartbeat CPU 0 instructions: 50000000 cycles: 48915860 heartbeat IPC: 0.5848 cumulative IPC: 0.586 (Simulation time: 00 hr 03 min 39 sec)
Heartbeat CPU 0 instructions: 60000002 cycles: 66058467 heartbeat IPC: 0.5833 cumulative IPC: 0.5852 (Simulation time: 00 hr 04 min 45 sec)
Heartbeat CPU 0 instructions: 70000000 cycles: 83118552 heartbeat IPC: 0.5862 cumulative IPC: 0.5854 (Simulation time: 00 hr 05 min 51 sec)
Heartbeat CPU 0 instructions: 80000000 cycles: 100261331 heartbeat IPC: 0.5833 cumulative IPC: 0.585 (Simulation time: 00 hr 06 min 56 sec)
Heartbeat CPU 0 instructions: 90000001 cycles: 117294115 heartbeat IPC: 0.5871 cumulative IPC: 0.5854 (Simulation time: 00 hr 08 min 02 sec)
Heartbeat CPU 0 instructions: 100000002 cycles: 134490727 heartbeat IPC: 0.5815 cumulative IPC: 0.5848 (Simulation time: 00 hr 09 min 08 sec)
*** Reached end of trace: (0, "../traces/secret_traces/srv/srv115.champsimtrace.xz")
Heartbeat CPU 0 instructions: 110000000 cycles: 151440446 heartbeat IPC: 0.59 cumulative IPC: 0.5854 (Simulation time: 00 hr 10 min 13 sec)
Heartbeat CPU 0 instructions: 120000002 cycles: 168683542 heartbeat IPC: 0.5799 cumulative IPC: 0.5849 (Simulation time: 00 hr 11 min 19 sec)
Simulation finished CPU 0 instructions: 100000000 cycles: 170976647 cumulative IPC: 0.5849 (Simulation time: 00 hr 11 min 52 sec)
Simulation complete CPU 0 instructions: 100000000 cycles: 170976647 cumulative IPC: 0.5849 (Simulation time: 00 hr 11 min 52 sec)

ChampSim completed all CPUs

=== Simulation ===
CPU 0 runs ../traces/secret_traces/srv/srv115.champsimtrace.xz
Region of Interest Statistics

CPU 0 cumulative IPC: 0.5849 instructions: 100000000 cycles: 170976647
CPU 0 Branch Prediction Accuracy: 67.22% MPKI: 57.63 Average ROB Occupancy at Mispredict: 3.702
Branch type MPKI
BRANCH_DIRECT_JUMP: 1.09
BRANCH_INDIRECT: 38.6
BRANCH_CONDITIONAL: 10.9
BRANCH_DIRECT_CALL: 2.93
BRANCH_INDIRECT_CALL: 2.29
BRANCH_RETURN: 1.83

LLC TOTAL        ACCESS:    1154728 HIT:    1108270 MISS:      46458
LLC LOAD         ACCESS:     805487 HIT:     787871 MISS:      17616
LLC RFO          ACCESS:     137301 HIT:     109200 MISS:      28101
LLC PREFETCH     ACCESS:          0 HIT:          0 MISS:          0
LLC WRITE        ACCESS:     208788 HIT:     208606 MISS:        182
LLC TRANSLATION  ACCESS:       3152 HIT:       2593 MISS:        559
LLC PREFETCH REQUESTED:          0 ISSUED:          0 USEFUL:          0 USELESS:          0
LLC AVERAGE MISS LATENCY: 282.8 cycles
cpu0_DTLB TOTAL        ACCESS:   27667651 HIT:   26601247 MISS:    1066404
cpu0_DTLB LOAD         ACCESS:   27667651 HIT:   26601247 MISS:    1066404
cpu0_DTLB RFO          ACCESS:          0 HIT:          0 MISS:          0
cpu0_DTLB PREFETCH     ACCESS:          0 HIT:          0 MISS:          0
cpu0_DTLB WRITE        ACCESS:          0 HIT:          0 MISS:          0
cpu0_DTLB TRANSLATION  ACCESS:          0 HIT:          0 MISS:          0
cpu0_DTLB PREFETCH REQUESTED:          0 ISSUED:          0 USEFUL:          0 USELESS:          0
cpu0_DTLB AVERAGE MISS LATENCY: 6.828 cycles
cpu0_ITLB TOTAL        ACCESS:   10753161 HIT:    8833314 MISS:    1919847
cpu0_ITLB LOAD         ACCESS:   10753161 HIT:    8833314 MISS:    1919847
cpu0_ITLB RFO          ACCESS:          0 HIT:          0 MISS:          0
cpu0_ITLB PREFETCH     ACCESS:          0 HIT:          0 MISS:          0
cpu0_ITLB WRITE        ACCESS:          0 HIT:          0 MISS:          0
cpu0_ITLB TRANSLATION  ACCESS:          0 HIT:          0 MISS:          0
cpu0_ITLB PREFETCH REQUESTED:          0 ISSUED:          0 USEFUL:          0 USELESS:          0
cpu0_ITLB AVERAGE MISS LATENCY: 3.144 cycles
cpu0_L1D TOTAL        ACCESS:   34565405 HIT:   31302897 MISS:    3262508
cpu0_L1D LOAD         ACCESS:   21099794 HIT:   19430161 MISS:    1669633
cpu0_L1D RFO          ACCESS:          0 HIT:          0 MISS:          0
cpu0_L1D PREFETCH     ACCESS:          0 HIT:          0 MISS:          0
cpu0_L1D WRITE        ACCESS:   13461048 HIT:   11872483 MISS:    1588565
cpu0_L1D TRANSLATION  ACCESS:       4563 HIT:        253 MISS:       4310
cpu0_L1D PREFETCH REQUESTED:          0 ISSUED:          0 USEFUL:          0 USELESS:          0
cpu0_L1D AVERAGE MISS LATENCY: 12.11 cycles
cpu0_L1I TOTAL        ACCESS:   12064763 HIT:    5463270 MISS:    6601493
cpu0_L1I LOAD         ACCESS:   12064763 HIT:    5463270 MISS:    6601493
cpu0_L1I RFO          ACCESS:          0 HIT:          0 MISS:          0
cpu0_L1I PREFETCH     ACCESS:          0 HIT:          0 MISS:          0
cpu0_L1I WRITE        ACCESS:          0 HIT:          0 MISS:          0
cpu0_L1I TRANSLATION  ACCESS:          0 HIT:          0 MISS:          0
cpu0_L1I PREFETCH REQUESTED:          0 ISSUED:          0 USEFUL:          0 USELESS:          0
cpu0_L1I AVERAGE MISS LATENCY: 9.656 cycles
cpu0_L2C TOTAL        ACCESS:    8298038 HIT:    7340273 MISS:     957765
cpu0_L2C LOAD         ACCESS:    6748020 HIT:    5942533 MISS:     805487
cpu0_L2C RFO          ACCESS:     560200 HIT:     422899 MISS:     137301
cpu0_L2C PREFETCH     ACCESS:          0 HIT:          0 MISS:          0
cpu0_L2C WRITE        ACCESS:     985509 HIT:     973684 MISS:      11825
cpu0_L2C TRANSLATION  ACCESS:       4309 HIT:       1157 MISS:       3152
cpu0_L2C PREFETCH REQUESTED:          0 ISSUED:          0 USEFUL:          0 USELESS:          0
cpu0_L2C AVERAGE MISS LATENCY: 33.53 cycles
cpu0_STLB TOTAL        ACCESS:    1859604 HIT:    1855231 MISS:       4373
cpu0_STLB LOAD         ACCESS:    1859604 HIT:    1855231 MISS:       4373
cpu0_STLB RFO          ACCESS:          0 HIT:          0 MISS:          0
cpu0_STLB PREFETCH     ACCESS:          0 HIT:          0 MISS:          0
cpu0_STLB WRITE        ACCESS:          0 HIT:          0 MISS:          0
cpu0_STLB TRANSLATION  ACCESS:          0 HIT:          0 MISS:          0
cpu0_STLB PREFETCH REQUESTED:          0 ISSUED:          0 USEFUL:          0 USELESS:          0
cpu0_STLB AVERAGE MISS LATENCY: 92.62 cycles

DRAM Statistics

Channel 0 RQ ROW_BUFFER_HIT:      23709
  ROW_BUFFER_MISS:      22566
 AVG DBUS CONGESTED CYCLE: 3.972
WQ ROW_BUFFER_HIT: Channel 0 
  ROW_BUFFER_MISS:       1749
  FULL:      19693
