WARNING: physical memory size is smaller than virtual memory size.

*** ChampSim Multicore Out-of-Order Simulator ***
Warmup Instructions: 25000000
Simulation Instructions: 100000000
Number of CPUs: 1
Page size: 4096

Off-chip DRAM Size: 4 GiB Channels: 1 Width: 64-bit Data Race: 3200 MT/s
Heartbeat CPU 0 instructions: 10000000 cycles: 2500073 heartbeat IPC: 4 cumulative IPC: 4 (Simulation time: 00 hr 00 min 22 sec)
Heartbeat CPU 0 instructions: 20000000 cycles: 5000073 heartbeat IPC: 4 cumulative IPC: 4 (Simulation time: 00 hr 00 min 44 sec)
Warmup finished CPU 0 instructions: 25000000 cycles: 6250074 cumulative IPC: 4 (Simulation time: 00 hr 00 min 55 sec)
Warmup complete CPU 0 instructions: 25000000 cycles: 6250074 cumulative IPC: 4 (Simulation time: 00 hr 00 min 55 sec)
Heartbeat CPU 0 instructions: 30000002 cycles: 13537753 heartbeat IPC: 1.171 cumulative IPC: 0.6861 (Simulation time: 00 hr 01 min 25 sec)
Heartbeat CPU 0 instructions: 40000002 cycles: 28684997 heartbeat IPC: 0.6602 cumulative IPC: 0.6686 (Simulation time: 00 hr 02 min 26 sec)
Heartbeat CPU 0 instructions: 50000004 cycles: 43715761 heartbeat IPC: 0.6653 cumulative IPC: 0.6673 (Simulation time: 00 hr 03 min 27 sec)
Heartbeat CPU 0 instructions: 60000001 cycles: 58478797 heartbeat IPC: 0.6774 cumulative IPC: 0.6701 (Simulation time: 00 hr 04 min 27 sec)
Heartbeat CPU 0 instructions: 70000003 cycles: 73591971 heartbeat IPC: 0.6617 cumulative IPC: 0.6682 (Simulation time: 00 hr 05 min 29 sec)
Heartbeat CPU 0 instructions: 80000001 cycles: 88139970 heartbeat IPC: 0.6874 cumulative IPC: 0.6716 (Simulation time: 00 hr 06 min 28 sec)
Heartbeat CPU 0 instructions: 90000002 cycles: 103253809 heartbeat IPC: 0.6616 cumulative IPC: 0.6701 (Simulation time: 00 hr 07 min 30 sec)
Heartbeat CPU 0 instructions: 100000000 cycles: 117933310 heartbeat IPC: 0.6812 cumulative IPC: 0.6715 (Simulation time: 00 hr 08 min 29 sec)
*** Reached end of trace: (0, "../traces/secret_traces/srv/srv234.champsimtrace.xz")
Heartbeat CPU 0 instructions: 110000002 cycles: 132456070 heartbeat IPC: 0.6886 cumulative IPC: 0.6735 (Simulation time: 00 hr 09 min 29 sec)
Heartbeat CPU 0 instructions: 120000000 cycles: 146686293 heartbeat IPC: 0.7027 cumulative IPC: 0.6765 (Simulation time: 00 hr 10 min 27 sec)
Simulation finished CPU 0 instructions: 100000001 cycles: 147801756 cumulative IPC: 0.6766 (Simulation time: 00 hr 10 min 57 sec)
Simulation complete CPU 0 instructions: 100000001 cycles: 147801756 cumulative IPC: 0.6766 (Simulation time: 00 hr 10 min 57 sec)

ChampSim completed all CPUs

=== Simulation ===
CPU 0 runs ../traces/secret_traces/srv/srv234.champsimtrace.xz
Region of Interest Statistics

CPU 0 cumulative IPC: 0.6766 instructions: 100000001 cycles: 147801756
CPU 0 Branch Prediction Accuracy: 80.39% MPKI: 36.46 Average ROB Occupancy at Mispredict: 6.475
Branch type MPKI
BRANCH_DIRECT_JUMP: 0.0804
BRANCH_INDIRECT: 25.9
BRANCH_CONDITIONAL: 8.56
BRANCH_DIRECT_CALL: 0.0809
BRANCH_INDIRECT_CALL: 1.74
BRANCH_RETURN: 0.082

LLC TOTAL        ACCESS:     561031 HIT:     256216 MISS:     304815
LLC LOAD         ACCESS:     321466 HIT:      55295 MISS:     266171
LLC RFO          ACCESS:      48387 HIT:      17449 MISS:      30938
LLC PREFETCH     ACCESS:          0 HIT:          0 MISS:          0
LLC WRITE        ACCESS:     182302 HIT:     180894 MISS:       1408
LLC TRANSLATION  ACCESS:       8876 HIT:       2578 MISS:       6298
LLC PREFETCH REQUESTED:          0 ISSUED:          0 USEFUL:          0 USELESS:          0
LLC AVERAGE MISS LATENCY: 250.7 cycles
cpu0_DTLB TOTAL        ACCESS:   24234959 HIT:   23171742 MISS:    1063217
cpu0_DTLB LOAD         ACCESS:   24234959 HIT:   23171742 MISS:    1063217
cpu0_DTLB RFO          ACCESS:          0 HIT:          0 MISS:          0
cpu0_DTLB PREFETCH     ACCESS:          0 HIT:          0 MISS:          0
cpu0_DTLB WRITE        ACCESS:          0 HIT:          0 MISS:          0
cpu0_DTLB TRANSLATION  ACCESS:          0 HIT:          0 MISS:          0
cpu0_DTLB PREFETCH REQUESTED:          0 ISSUED:          0 USEFUL:          0 USELESS:          0
cpu0_DTLB AVERAGE MISS LATENCY: 8.288 cycles
cpu0_ITLB TOTAL        ACCESS:   11927757 HIT:    9691934 MISS:    2235823
cpu0_ITLB LOAD         ACCESS:   11927757 HIT:    9691934 MISS:    2235823
cpu0_ITLB RFO          ACCESS:          0 HIT:          0 MISS:          0
cpu0_ITLB PREFETCH     ACCESS:          0 HIT:          0 MISS:          0
cpu0_ITLB WRITE        ACCESS:          0 HIT:          0 MISS:          0
cpu0_ITLB TRANSLATION  ACCESS:          0 HIT:          0 MISS:          0
cpu0_ITLB PREFETCH REQUESTED:          0 ISSUED:          0 USEFUL:          0 USELESS:          0
cpu0_ITLB AVERAGE MISS LATENCY: 2.507 cycles
cpu0_L1D TOTAL        ACCESS:   30805591 HIT:   29032588 MISS:    1773003
cpu0_L1D LOAD         ACCESS:   18328639 HIT:   17010316 MISS:    1318323
cpu0_L1D RFO          ACCESS:          0 HIT:          0 MISS:          0
cpu0_L1D PREFETCH     ACCESS:          0 HIT:          0 MISS:          0
cpu0_L1D WRITE        ACCESS:   12461252 HIT:   12020143 MISS:     441109
cpu0_L1D TRANSLATION  ACCESS:      15700 HIT:       2129 MISS:      13571
cpu0_L1D PREFETCH REQUESTED:          0 ISSUED:          0 USEFUL:          0 USELESS:          0
cpu0_L1D AVERAGE MISS LATENCY: 49.67 cycles
cpu0_L1I TOTAL        ACCESS:   13550500 HIT:    5009903 MISS:    8540597
cpu0_L1I LOAD         ACCESS:   13550500 HIT:    5009903 MISS:    8540597
cpu0_L1I RFO          ACCESS:          0 HIT:          0 MISS:          0
cpu0_L1I PREFETCH     ACCESS:          0 HIT:          0 MISS:          0
cpu0_L1I WRITE        ACCESS:          0 HIT:          0 MISS:          0
cpu0_L1I TRANSLATION  ACCESS:          0 HIT:          0 MISS:          0
cpu0_L1I PREFETCH REQUESTED:          0 ISSUED:          0 USEFUL:          0 USELESS:          0
cpu0_L1I AVERAGE MISS LATENCY: 7.48 cycles
cpu0_L2C TOTAL        ACCESS:    8090694 HIT:    7709605 MISS:     381089
cpu0_L2C LOAD         ACCESS:    7422243 HIT:    7100777 MISS:     321466
cpu0_L2C RFO          ACCESS:     190975 HIT:     142588 MISS:      48387
cpu0_L2C PREFETCH     ACCESS:          0 HIT:          0 MISS:          0
cpu0_L2C WRITE        ACCESS:     463922 HIT:     461562 MISS:       2360
cpu0_L2C TRANSLATION  ACCESS:      13554 HIT:       4678 MISS:       8876
cpu0_L2C PREFETCH REQUESTED:          0 ISSUED:          0 USEFUL:          0 USELESS:          0
cpu0_L2C AVERAGE MISS LATENCY: 221.2 cycles
cpu0_STLB TOTAL        ACCESS:    1800402 HIT:    1785427 MISS:      14975
cpu0_STLB LOAD         ACCESS:    1800402 HIT:    1785427 MISS:      14975
cpu0_STLB RFO          ACCESS:          0 HIT:          0 MISS:          0
cpu0_STLB PREFETCH     ACCESS:          0 HIT:          0 MISS:          0
cpu0_STLB WRITE        ACCESS:          0 HIT:          0 MISS:          0
cpu0_STLB TRANSLATION  ACCESS:          0 HIT:          0 MISS:          0
cpu0_STLB PREFETCH REQUESTED:          0 ISSUED:          0 USEFUL:          0 USELESS:          0
cpu0_STLB AVERAGE MISS LATENCY: 226.5 cycles

DRAM Statistics

Channel 0 RQ ROW_BUFFER_HIT:      57875
  ROW_BUFFER_MISS:     245516
 AVG DBUS CONGESTED CYCLE: 3.892
WQ ROW_BUFFER_HIT: Channel 0 
  ROW_BUFFER_MISS:      39670
  FULL:     110680
