WARNING: physical memory size is smaller than virtual memory size.

*** ChampSim Multicore Out-of-Order Simulator ***
Warmup Instructions: 25000000
Simulation Instructions: 100000000
Number of CPUs: 1
Page size: 4096

Off-chip DRAM Size: 4 GiB Channels: 1 Width: 64-bit Data Race: 3200 MT/s
Heartbeat CPU 0 instructions: 10000001 cycles: 2500139 heartbeat IPC: 4 cumulative IPC: 4 (Simulation time: 00 hr 00 min 22 sec)
Heartbeat CPU 0 instructions: 20000000 cycles: 5000182 heartbeat IPC: 4 cumulative IPC: 4 (Simulation time: 00 hr 00 min 45 sec)
Warmup finished CPU 0 instructions: 25000000 cycles: 6250183 cumulative IPC: 4 (Simulation time: 00 hr 00 min 56 sec)
Warmup complete CPU 0 instructions: 25000000 cycles: 6250183 cumulative IPC: 4 (Simulation time: 00 hr 00 min 56 sec)
Heartbeat CPU 0 instructions: 30000000 cycles: 14765031 heartbeat IPC: 1.024 cumulative IPC: 0.5872 (Simulation time: 00 hr 01 min 28 sec)
Heartbeat CPU 0 instructions: 40000001 cycles: 31701022 heartbeat IPC: 0.5905 cumulative IPC: 0.5894 (Simulation time: 00 hr 02 min 34 sec)
Heartbeat CPU 0 instructions: 50000001 cycles: 48668120 heartbeat IPC: 0.5894 cumulative IPC: 0.5894 (Simulation time: 00 hr 03 min 39 sec)
Heartbeat CPU 0 instructions: 60000002 cycles: 65673595 heartbeat IPC: 0.588 cumulative IPC: 0.589 (Simulation time: 00 hr 04 min 44 sec)
Heartbeat CPU 0 instructions: 70000000 cycles: 82739067 heartbeat IPC: 0.586 cumulative IPC: 0.5883 (Simulation time: 00 hr 05 min 50 sec)
Heartbeat CPU 0 instructions: 80000001 cycles: 99742549 heartbeat IPC: 0.5881 cumulative IPC: 0.5883 (Simulation time: 00 hr 06 min 55 sec)
Heartbeat CPU 0 instructions: 90000002 cycles: 116813900 heartbeat IPC: 0.5858 cumulative IPC: 0.5879 (Simulation time: 00 hr 08 min 01 sec)
Heartbeat CPU 0 instructions: 100000000 cycles: 133776639 heartbeat IPC: 0.5895 cumulative IPC: 0.5881 (Simulation time: 00 hr 09 min 06 sec)
*** Reached end of trace: (0, "../traces/secret_traces/srv/srv212.champsimtrace.xz")
Heartbeat CPU 0 instructions: 110000002 cycles: 150883281 heartbeat IPC: 0.5846 cumulative IPC: 0.5877 (Simulation time: 00 hr 10 min 12 sec)
Heartbeat CPU 0 instructions: 120000000 cycles: 167808462 heartbeat IPC: 0.5908 cumulative IPC: 0.588 (Simulation time: 00 hr 11 min 17 sec)
Simulation finished CPU 0 instructions: 100000003 cycles: 170182184 cumulative IPC: 0.5876 (Simulation time: 00 hr 11 min 50 sec)
Simulation complete CPU 0 instructions: 100000003 cycles: 170182184 cumulative IPC: 0.5876 (Simulation time: 00 hr 11 min 50 sec)

ChampSim completed all CPUs

=== Simulation ===
CPU 0 runs ../traces/secret_traces/srv/srv212.champsimtrace.xz
Region of Interest Statistics

CPU 0 cumulative IPC: 0.5876 instructions: 100000003 cycles: 170182184
CPU 0 Branch Prediction Accuracy: 67.11% MPKI: 57.79 Average ROB Occupancy at Mispredict: 3.695
Branch type MPKI
BRANCH_DIRECT_JUMP: 1.1
BRANCH_INDIRECT: 38.7
BRANCH_CONDITIONAL: 10.9
BRANCH_DIRECT_CALL: 2.96
BRANCH_INDIRECT_CALL: 2.28
BRANCH_RETURN: 1.84

LLC TOTAL        ACCESS:    1109743 HIT:    1062968 MISS:      46775
LLC LOAD         ACCESS:     739671 HIT:     722191 MISS:      17480
LLC RFO          ACCESS:     143705 HIT:     115139 MISS:      28566
LLC PREFETCH     ACCESS:          0 HIT:          0 MISS:          0
LLC WRITE        ACCESS:     223470 HIT:     223265 MISS:        205
LLC TRANSLATION  ACCESS:       2897 HIT:       2373 MISS:        524
LLC PREFETCH REQUESTED:          0 ISSUED:          0 USEFUL:          0 USELESS:          0
LLC AVERAGE MISS LATENCY: 272.3 cycles
cpu0_DTLB TOTAL        ACCESS:   27660071 HIT:   26594986 MISS:    1065085
cpu0_DTLB LOAD         ACCESS:   27660071 HIT:   26594986 MISS:    1065085
cpu0_DTLB RFO          ACCESS:          0 HIT:          0 MISS:          0
cpu0_DTLB PREFETCH     ACCESS:          0 HIT:          0 MISS:          0
cpu0_DTLB WRITE        ACCESS:          0 HIT:          0 MISS:          0
cpu0_DTLB TRANSLATION  ACCESS:          0 HIT:          0 MISS:          0
cpu0_DTLB PREFETCH REQUESTED:          0 ISSUED:          0 USEFUL:          0 USELESS:          0
cpu0_DTLB AVERAGE MISS LATENCY: 6.819 cycles
cpu0_ITLB TOTAL        ACCESS:   10717761 HIT:    8809928 MISS:    1907833
cpu0_ITLB LOAD         ACCESS:   10717761 HIT:    8809928 MISS:    1907833
cpu0_ITLB RFO          ACCESS:          0 HIT:          0 MISS:          0
cpu0_ITLB PREFETCH     ACCESS:          0 HIT:          0 MISS:          0
cpu0_ITLB WRITE        ACCESS:          0 HIT:          0 MISS:          0
cpu0_ITLB TRANSLATION  ACCESS:          0 HIT:          0 MISS:          0
cpu0_ITLB PREFETCH REQUESTED:          0 ISSUED:          0 USEFUL:          0 USELESS:          0
cpu0_ITLB AVERAGE MISS LATENCY: 3.153 cycles
cpu0_L1D TOTAL        ACCESS:   34562527 HIT:   31310693 MISS:    3251834
cpu0_L1D LOAD         ACCESS:   21106542 HIT:   19444106 MISS:    1662436
cpu0_L1D RFO          ACCESS:          0 HIT:          0 MISS:          0
cpu0_L1D PREFETCH     ACCESS:          0 HIT:          0 MISS:          0
cpu0_L1D WRITE        ACCESS:   13451623 HIT:   11866320 MISS:    1585303
cpu0_L1D TRANSLATION  ACCESS:       4362 HIT:        267 MISS:       4095
cpu0_L1D PREFETCH REQUESTED:          0 ISSUED:          0 USEFUL:          0 USELESS:          0
cpu0_L1D AVERAGE MISS LATENCY: 11.97 cycles
cpu0_L1I TOTAL        ACCESS:   12023866 HIT:    5451900 MISS:    6571966
cpu0_L1I LOAD         ACCESS:   12023866 HIT:    5451900 MISS:    6571966
cpu0_L1I RFO          ACCESS:          0 HIT:          0 MISS:          0
cpu0_L1I PREFETCH     ACCESS:          0 HIT:          0 MISS:          0
cpu0_L1I WRITE        ACCESS:          0 HIT:          0 MISS:          0
cpu0_L1I TRANSLATION  ACCESS:          0 HIT:          0 MISS:          0
cpu0_L1I PREFETCH REQUESTED:          0 ISSUED:          0 USEFUL:          0 USELESS:          0
cpu0_L1I AVERAGE MISS LATENCY: 9.505 cycles
cpu0_L2C TOTAL        ACCESS:    8272925 HIT:    7373595 MISS:     899330
cpu0_L2C LOAD         ACCESS:    6725796 HIT:    5986125 MISS:     739671
cpu0_L2C RFO          ACCESS:     560362 HIT:     416657 MISS:     143705
cpu0_L2C PREFETCH     ACCESS:          0 HIT:          0 MISS:          0
cpu0_L2C WRITE        ACCESS:     982674 HIT:     969617 MISS:      13057
cpu0_L2C TRANSLATION  ACCESS:       4093 HIT:       1196 MISS:       2897
cpu0_L2C PREFETCH REQUESTED:          0 ISSUED:          0 USEFUL:          0 USELESS:          0
cpu0_L2C AVERAGE MISS LATENCY: 33.94 cycles
cpu0_STLB TOTAL        ACCESS:    1854303 HIT:    1850103 MISS:       4200
cpu0_STLB LOAD         ACCESS:    1854303 HIT:    1850103 MISS:       4200
cpu0_STLB RFO          ACCESS:          0 HIT:          0 MISS:          0
cpu0_STLB PREFETCH     ACCESS:          0 HIT:          0 MISS:          0
cpu0_STLB WRITE        ACCESS:          0 HIT:          0 MISS:          0
cpu0_STLB TRANSLATION  ACCESS:          0 HIT:          0 MISS:          0
cpu0_STLB PREFETCH REQUESTED:          0 ISSUED:          0 USEFUL:          0 USELESS:          0
cpu0_STLB AVERAGE MISS LATENCY: 94.39 cycles

DRAM Statistics

Channel 0 RQ ROW_BUFFER_HIT:      23455
  ROW_BUFFER_MISS:      23114
 AVG DBUS CONGESTED CYCLE: 3.973
WQ ROW_BUFFER_HIT: Channel 0 
  ROW_BUFFER_MISS:       1905
  FULL:      19244
