WARNING: physical memory size is smaller than virtual memory size.

*** ChampSim Multicore Out-of-Order Simulator ***
Warmup Instructions: 25000000
Simulation Instructions: 100000000
Number of CPUs: 1
Page size: 4096

Off-chip DRAM Size: 4 GiB Channels: 1 Width: 64-bit Data Race: 3200 MT/s
Heartbeat CPU 0 instructions: 10000001 cycles: 2500118 heartbeat IPC: 4 cumulative IPC: 4 (Simulation time: 00 hr 00 min 22 sec)
Heartbeat CPU 0 instructions: 20000003 cycles: 5000709 heartbeat IPC: 3.999 cumulative IPC: 3.999 (Simulation time: 00 hr 00 min 45 sec)
Warmup finished CPU 0 instructions: 25000003 cycles: 6250710 cumulative IPC: 4 (Simulation time: 00 hr 00 min 56 sec)
Warmup complete CPU 0 instructions: 25000003 cycles: 6250710 cumulative IPC: 4 (Simulation time: 00 hr 00 min 56 sec)
Heartbeat CPU 0 instructions: 30000001 cycles: 14690894 heartbeat IPC: 1.032 cumulative IPC: 0.5924 (Simulation time: 00 hr 01 min 29 sec)
*** Reached end of trace: (0, "../traces/secret_traces/srv/srv24.champsimtrace.xz")
Heartbeat CPU 0 instructions: 40000002 cycles: 31276040 heartbeat IPC: 0.6029 cumulative IPC: 0.5994 (Simulation time: 00 hr 02 min 35 sec)
Heartbeat CPU 0 instructions: 50000001 cycles: 47903169 heartbeat IPC: 0.6014 cumulative IPC: 0.6002 (Simulation time: 00 hr 03 min 40 sec)
Heartbeat CPU 0 instructions: 60000000 cycles: 64371561 heartbeat IPC: 0.6072 cumulative IPC: 0.6022 (Simulation time: 00 hr 04 min 45 sec)
Heartbeat CPU 0 instructions: 70000002 cycles: 80868028 heartbeat IPC: 0.6062 cumulative IPC: 0.6031 (Simulation time: 00 hr 05 min 50 sec)
*** Reached end of trace: (0, "../traces/secret_traces/srv/srv24.champsimtrace.xz")
Heartbeat CPU 0 instructions: 80000001 cycles: 97319537 heartbeat IPC: 0.6078 cumulative IPC: 0.6039 (Simulation time: 00 hr 06 min 55 sec)
Heartbeat CPU 0 instructions: 90000000 cycles: 113896287 heartbeat IPC: 0.6033 cumulative IPC: 0.6038 (Simulation time: 00 hr 08 min 01 sec)
Heartbeat CPU 0 instructions: 100000000 cycles: 130371410 heartbeat IPC: 0.607 cumulative IPC: 0.6043 (Simulation time: 00 hr 09 min 06 sec)
Heartbeat CPU 0 instructions: 110000001 cycles: 146834665 heartbeat IPC: 0.6074 cumulative IPC: 0.6046 (Simulation time: 00 hr 10 min 11 sec)
*** Reached end of trace: (0, "../traces/secret_traces/srv/srv24.champsimtrace.xz")
Heartbeat CPU 0 instructions: 120000000 cycles: 163304370 heartbeat IPC: 0.6072 cumulative IPC: 0.6049 (Simulation time: 00 hr 11 min 16 sec)
Simulation finished CPU 0 instructions: 100000000 cycles: 165381030 cumulative IPC: 0.6047 (Simulation time: 00 hr 11 min 49 sec)
Simulation complete CPU 0 instructions: 100000000 cycles: 165381030 cumulative IPC: 0.6047 (Simulation time: 00 hr 11 min 49 sec)

ChampSim completed all CPUs

=== Simulation ===
CPU 0 runs ../traces/secret_traces/srv/srv24.champsimtrace.xz
Region of Interest Statistics

CPU 0 cumulative IPC: 0.6047 instructions: 100000000 cycles: 165381030
CPU 0 Branch Prediction Accuracy: 71.8% MPKI: 50.68 Average ROB Occupancy at Mispredict: 4.187
Branch type MPKI
BRANCH_DIRECT_JUMP: 0.526
BRANCH_INDIRECT: 35.2
BRANCH_CONDITIONAL: 9.98
BRANCH_DIRECT_CALL: 1.6
BRANCH_INDIRECT_CALL: 2.15
BRANCH_RETURN: 1.22

LLC TOTAL        ACCESS:    1038723 HIT:     979775 MISS:      58948
LLC LOAD         ACCESS:     691104 HIT:     647352 MISS:      43752
LLC RFO          ACCESS:     130330 HIT:     125310 MISS:       5020
LLC PREFETCH     ACCESS:          0 HIT:          0 MISS:          0
LLC WRITE        ACCESS:     192109 HIT:     191827 MISS:        282
LLC TRANSLATION  ACCESS:      25180 HIT:      15286 MISS:       9894
LLC PREFETCH REQUESTED:          0 ISSUED:          0 USEFUL:          0 USELESS:          0
LLC AVERAGE MISS LATENCY: 165.7 cycles
cpu0_DTLB TOTAL        ACCESS:   27048952 HIT:   25810555 MISS:    1238397
cpu0_DTLB LOAD         ACCESS:   27048952 HIT:   25810555 MISS:    1238397
cpu0_DTLB RFO          ACCESS:          0 HIT:          0 MISS:          0
cpu0_DTLB PREFETCH     ACCESS:          0 HIT:          0 MISS:          0
cpu0_DTLB WRITE        ACCESS:          0 HIT:          0 MISS:          0
cpu0_DTLB TRANSLATION  ACCESS:          0 HIT:          0 MISS:          0
cpu0_DTLB PREFETCH REQUESTED:          0 ISSUED:          0 USEFUL:          0 USELESS:          0
cpu0_DTLB AVERAGE MISS LATENCY: 8.329 cycles
cpu0_ITLB TOTAL        ACCESS:   11371841 HIT:    9194201 MISS:    2177640
cpu0_ITLB LOAD         ACCESS:   11371841 HIT:    9194201 MISS:    2177640
cpu0_ITLB RFO          ACCESS:          0 HIT:          0 MISS:          0
cpu0_ITLB PREFETCH     ACCESS:          0 HIT:          0 MISS:          0
cpu0_ITLB WRITE        ACCESS:          0 HIT:          0 MISS:          0
cpu0_ITLB TRANSLATION  ACCESS:          0 HIT:          0 MISS:          0
cpu0_ITLB PREFETCH REQUESTED:          0 ISSUED:          0 USEFUL:          0 USELESS:          0
cpu0_ITLB AVERAGE MISS LATENCY: 3.021 cycles
cpu0_L1D TOTAL        ACCESS:   33878649 HIT:   29767318 MISS:    4111331
cpu0_L1D LOAD         ACCESS:   20493180 HIT:   18113990 MISS:    2379190
cpu0_L1D RFO          ACCESS:          0 HIT:          0 MISS:          0
cpu0_L1D PREFETCH     ACCESS:          0 HIT:          0 MISS:          0
cpu0_L1D WRITE        ACCESS:   13345639 HIT:   11651961 MISS:    1693678
cpu0_L1D TRANSLATION  ACCESS:      39830 HIT:       1367 MISS:      38463
cpu0_L1D PREFETCH REQUESTED:          0 ISSUED:          0 USEFUL:          0 USELESS:          0
cpu0_L1D AVERAGE MISS LATENCY: 10.6 cycles
cpu0_L1I TOTAL        ACCESS:   12824451 HIT:    5576289 MISS:    7248162
cpu0_L1I LOAD         ACCESS:   12824451 HIT:    5576289 MISS:    7248162
cpu0_L1I RFO          ACCESS:          0 HIT:          0 MISS:          0
cpu0_L1I PREFETCH     ACCESS:          0 HIT:          0 MISS:          0
cpu0_L1I WRITE        ACCESS:          0 HIT:          0 MISS:          0
cpu0_L1I TRANSLATION  ACCESS:          0 HIT:          0 MISS:          0
cpu0_L1I PREFETCH REQUESTED:          0 ISSUED:          0 USEFUL:          0 USELESS:          0
cpu0_L1I AVERAGE MISS LATENCY: 8.753 cycles
cpu0_L2C TOTAL        ACCESS:    9452045 HIT:    8595778 MISS:     856267
cpu0_L2C LOAD         ACCESS:    7682789 HIT:    6991685 MISS:     691104
cpu0_L2C RFO          ACCESS:     597732 HIT:     467402 MISS:     130330
cpu0_L2C PREFETCH     ACCESS:          0 HIT:          0 MISS:          0
cpu0_L2C WRITE        ACCESS:    1133093 HIT:    1123440 MISS:       9653
cpu0_L2C TRANSLATION  ACCESS:      38431 HIT:      13251 MISS:      25180
cpu0_L2C PREFETCH REQUESTED:          0 ISSUED:          0 USEFUL:          0 USELESS:          0
cpu0_L2C AVERAGE MISS LATENCY: 31.26 cycles
cpu0_STLB TOTAL        ACCESS:    2074166 HIT:    2047135 MISS:      27031
cpu0_STLB LOAD         ACCESS:    2074166 HIT:    2047135 MISS:      27031
cpu0_STLB RFO          ACCESS:          0 HIT:          0 MISS:          0
cpu0_STLB PREFETCH     ACCESS:          0 HIT:          0 MISS:          0
cpu0_STLB WRITE        ACCESS:          0 HIT:          0 MISS:          0
cpu0_STLB TRANSLATION  ACCESS:          0 HIT:          0 MISS:          0
cpu0_STLB PREFETCH REQUESTED:          0 ISSUED:          0 USEFUL:          0 USELESS:          0
cpu0_STLB AVERAGE MISS LATENCY: 105.9 cycles

DRAM Statistics

Channel 0 RQ ROW_BUFFER_HIT:      20605
  ROW_BUFFER_MISS:      38058
 AVG DBUS CONGESTED CYCLE: 3.873
WQ ROW_BUFFER_HIT: Channel 0 
  ROW_BUFFER_MISS:       1379
  FULL:       4193
