WARNING: physical memory size is smaller than virtual memory size.

*** ChampSim Multicore Out-of-Order Simulator ***
Warmup Instructions: 25000000
Simulation Instructions: 100000000
Number of CPUs: 1
Page size: 4096

Off-chip DRAM Size: 4 GiB Channels: 1 Width: 64-bit Data Race: 3200 MT/s
Heartbeat CPU 0 instructions: 10000003 cycles: 2500115 heartbeat IPC: 4 cumulative IPC: 4 (Simulation time: 00 hr 00 min 22 sec)
Heartbeat CPU 0 instructions: 20000002 cycles: 5000158 heartbeat IPC: 4 cumulative IPC: 4 (Simulation time: 00 hr 00 min 44 sec)
Warmup finished CPU 0 instructions: 25000002 cycles: 6250159 cumulative IPC: 4 (Simulation time: 00 hr 00 min 55 sec)
Warmup complete CPU 0 instructions: 25000002 cycles: 6250159 cumulative IPC: 4 (Simulation time: 00 hr 00 min 55 sec)
Heartbeat CPU 0 instructions: 30000004 cycles: 13807079 heartbeat IPC: 1.135 cumulative IPC: 0.6616 (Simulation time: 00 hr 01 min 25 sec)
Heartbeat CPU 0 instructions: 40000000 cycles: 29384143 heartbeat IPC: 0.642 cumulative IPC: 0.6484 (Simulation time: 00 hr 02 min 27 sec)
Heartbeat CPU 0 instructions: 50000001 cycles: 44977506 heartbeat IPC: 0.6413 cumulative IPC: 0.6455 (Simulation time: 00 hr 03 min 28 sec)
Heartbeat CPU 0 instructions: 60000000 cycles: 60567382 heartbeat IPC: 0.6414 cumulative IPC: 0.6444 (Simulation time: 00 hr 04 min 30 sec)
Heartbeat CPU 0 instructions: 70000004 cycles: 76033230 heartbeat IPC: 0.6466 cumulative IPC: 0.6449 (Simulation time: 00 hr 05 min 31 sec)
Heartbeat CPU 0 instructions: 80000004 cycles: 91230507 heartbeat IPC: 0.658 cumulative IPC: 0.6472 (Simulation time: 00 hr 06 min 31 sec)
Heartbeat CPU 0 instructions: 90000004 cycles: 106790154 heartbeat IPC: 0.6427 cumulative IPC: 0.6465 (Simulation time: 00 hr 07 min 32 sec)
Heartbeat CPU 0 instructions: 100000000 cycles: 122204721 heartbeat IPC: 0.6487 cumulative IPC: 0.6468 (Simulation time: 00 hr 08 min 33 sec)
*** Reached end of trace: (0, "../traces/secret_traces/srv/srv280.champsimtrace.xz")
Heartbeat CPU 0 instructions: 110000000 cycles: 137780860 heartbeat IPC: 0.642 cumulative IPC: 0.6462 (Simulation time: 00 hr 09 min 35 sec)
Heartbeat CPU 0 instructions: 120000003 cycles: 153703788 heartbeat IPC: 0.628 cumulative IPC: 0.6443 (Simulation time: 00 hr 10 min 37 sec)
Simulation finished CPU 0 instructions: 100000000 cycles: 155330741 cumulative IPC: 0.6438 (Simulation time: 00 hr 11 min 08 sec)
Simulation complete CPU 0 instructions: 100000000 cycles: 155330741 cumulative IPC: 0.6438 (Simulation time: 00 hr 11 min 08 sec)

ChampSim completed all CPUs

=== Simulation ===
CPU 0 runs ../traces/secret_traces/srv/srv280.champsimtrace.xz
Region of Interest Statistics

CPU 0 cumulative IPC: 0.6438 instructions: 100000000 cycles: 155330741
CPU 0 Branch Prediction Accuracy: 70.9% MPKI: 51.31 Average ROB Occupancy at Mispredict: 4.439
Branch type MPKI
BRANCH_DIRECT_JUMP: 0.806
BRANCH_INDIRECT: 34.9
BRANCH_CONDITIONAL: 10
BRANCH_DIRECT_CALL: 2.18
BRANCH_INDIRECT_CALL: 2.1
BRANCH_RETURN: 1.35

LLC TOTAL        ACCESS:    1049908 HIT:     983482 MISS:      66426
LLC LOAD         ACCESS:     731474 HIT:     706658 MISS:      24816
LLC RFO          ACCESS:     125955 HIT:      85881 MISS:      40074
LLC PREFETCH     ACCESS:          0 HIT:          0 MISS:          0
LLC WRITE        ACCESS:     188262 HIT:     188012 MISS:        250
LLC TRANSLATION  ACCESS:       4217 HIT:       2931 MISS:       1286
LLC PREFETCH REQUESTED:          0 ISSUED:          0 USEFUL:          0 USELESS:          0
LLC AVERAGE MISS LATENCY: 278.2 cycles
cpu0_DTLB TOTAL        ACCESS:   27078811 HIT:   25999732 MISS:    1079079
cpu0_DTLB LOAD         ACCESS:   27078811 HIT:   25999732 MISS:    1079079
cpu0_DTLB RFO          ACCESS:          0 HIT:          0 MISS:          0
cpu0_DTLB PREFETCH     ACCESS:          0 HIT:          0 MISS:          0
cpu0_DTLB WRITE        ACCESS:          0 HIT:          0 MISS:          0
cpu0_DTLB TRANSLATION  ACCESS:          0 HIT:          0 MISS:          0
cpu0_DTLB PREFETCH REQUESTED:          0 ISSUED:          0 USEFUL:          0 USELESS:          0
cpu0_DTLB AVERAGE MISS LATENCY: 6.617 cycles
cpu0_ITLB TOTAL        ACCESS:    9927943 HIT:    8212351 MISS:    1715592
cpu0_ITLB LOAD         ACCESS:    9927943 HIT:    8212351 MISS:    1715592
cpu0_ITLB RFO          ACCESS:          0 HIT:          0 MISS:          0
cpu0_ITLB PREFETCH     ACCESS:          0 HIT:          0 MISS:          0
cpu0_ITLB WRITE        ACCESS:          0 HIT:          0 MISS:          0
cpu0_ITLB TRANSLATION  ACCESS:          0 HIT:          0 MISS:          0
cpu0_ITLB PREFETCH REQUESTED:          0 ISSUED:          0 USEFUL:          0 USELESS:          0
cpu0_ITLB AVERAGE MISS LATENCY: 3.139 cycles
cpu0_L1D TOTAL        ACCESS:   33968298 HIT:   30861695 MISS:    3106603
cpu0_L1D LOAD         ACCESS:   20836311 HIT:   19225711 MISS:    1610600
cpu0_L1D RFO          ACCESS:          0 HIT:          0 MISS:          0
cpu0_L1D PREFETCH     ACCESS:          0 HIT:          0 MISS:          0
cpu0_L1D WRITE        ACCESS:   13125980 HIT:   11635636 MISS:    1490344
cpu0_L1D TRANSLATION  ACCESS:       6007 HIT:        348 MISS:       5659
cpu0_L1D PREFETCH REQUESTED:          0 ISSUED:          0 USEFUL:          0 USELESS:          0
cpu0_L1D AVERAGE MISS LATENCY: 14.02 cycles
cpu0_L1I TOTAL        ACCESS:   11137418 HIT:    5148058 MISS:    5989360
cpu0_L1I LOAD         ACCESS:   11137418 HIT:    5148058 MISS:    5989360
cpu0_L1I RFO          ACCESS:          0 HIT:          0 MISS:          0
cpu0_L1I PREFETCH     ACCESS:          0 HIT:          0 MISS:          0
cpu0_L1I WRITE        ACCESS:          0 HIT:          0 MISS:          0
cpu0_L1I TRANSLATION  ACCESS:          0 HIT:          0 MISS:          0
cpu0_L1I PREFETCH REQUESTED:          0 ISSUED:          0 USEFUL:          0 USELESS:          0
cpu0_L1I AVERAGE MISS LATENCY: 9.551 cycles
cpu0_L2C TOTAL        ACCESS:    7572096 HIT:    6702097 MISS:     869999
cpu0_L2C LOAD         ACCESS:    6137481 HIT:    5406007 MISS:     731474
cpu0_L2C RFO          ACCESS:     536967 HIT:     411012 MISS:     125955
cpu0_L2C PREFETCH     ACCESS:          0 HIT:          0 MISS:          0
cpu0_L2C WRITE        ACCESS:     891991 HIT:     883638 MISS:       8353
cpu0_L2C TRANSLATION  ACCESS:       5657 HIT:       1440 MISS:       4217
cpu0_L2C PREFETCH REQUESTED:          0 ISSUED:          0 USEFUL:          0 USELESS:          0
cpu0_L2C AVERAGE MISS LATENCY: 41.13 cycles
cpu0_STLB TOTAL        ACCESS:    1733376 HIT:    1727788 MISS:       5588
cpu0_STLB LOAD         ACCESS:    1733376 HIT:    1727788 MISS:       5588
cpu0_STLB RFO          ACCESS:          0 HIT:          0 MISS:          0
cpu0_STLB PREFETCH     ACCESS:          0 HIT:          0 MISS:          0
cpu0_STLB WRITE        ACCESS:          0 HIT:          0 MISS:          0
cpu0_STLB TRANSLATION  ACCESS:          0 HIT:          0 MISS:          0
cpu0_STLB PREFETCH REQUESTED:          0 ISSUED:          0 USEFUL:          0 USELESS:          0
cpu0_STLB AVERAGE MISS LATENCY: 107.6 cycles

DRAM Statistics

Channel 0 RQ ROW_BUFFER_HIT:      31062
  ROW_BUFFER_MISS:      35112
 AVG DBUS CONGESTED CYCLE: 3.974
WQ ROW_BUFFER_HIT: Channel 0 
  ROW_BUFFER_MISS:       3165
  FULL:      33700
