WARNING: physical memory size is smaller than virtual memory size.

*** ChampSim Multicore Out-of-Order Simulator ***
Warmup Instructions: 25000000
Simulation Instructions: 100000000
Number of CPUs: 1
Page size: 4096

Off-chip DRAM Size: 4 GiB Channels: 1 Width: 64-bit Data Race: 3200 MT/s
Heartbeat CPU 0 instructions: 10000001 cycles: 2500190 heartbeat IPC: 4 cumulative IPC: 4 (Simulation time: 00 hr 00 min 22 sec)
Heartbeat CPU 0 instructions: 20000001 cycles: 5000190 heartbeat IPC: 4 cumulative IPC: 4 (Simulation time: 00 hr 00 min 43 sec)
Warmup finished CPU 0 instructions: 25000001 cycles: 6250191 cumulative IPC: 4 (Simulation time: 00 hr 00 min 54 sec)
Warmup complete CPU 0 instructions: 25000001 cycles: 6250191 cumulative IPC: 4 (Simulation time: 00 hr 00 min 54 sec)
Heartbeat CPU 0 instructions: 30000003 cycles: 13944933 heartbeat IPC: 1.118 cumulative IPC: 0.6498 (Simulation time: 00 hr 01 min 24 sec)
Heartbeat CPU 0 instructions: 40000004 cycles: 29473558 heartbeat IPC: 0.644 cumulative IPC: 0.6459 (Simulation time: 00 hr 02 min 25 sec)
Heartbeat CPU 0 instructions: 50000000 cycles: 45184484 heartbeat IPC: 0.6365 cumulative IPC: 0.6421 (Simulation time: 00 hr 03 min 26 sec)
Heartbeat CPU 0 instructions: 60000000 cycles: 60959454 heartbeat IPC: 0.6339 cumulative IPC: 0.6397 (Simulation time: 00 hr 04 min 28 sec)
Heartbeat CPU 0 instructions: 70000003 cycles: 76615324 heartbeat IPC: 0.6387 cumulative IPC: 0.6395 (Simulation time: 00 hr 05 min 29 sec)
Heartbeat CPU 0 instructions: 80000000 cycles: 92217932 heartbeat IPC: 0.6409 cumulative IPC: 0.6398 (Simulation time: 00 hr 06 min 30 sec)
Heartbeat CPU 0 instructions: 90000002 cycles: 108311439 heartbeat IPC: 0.6214 cumulative IPC: 0.6369 (Simulation time: 00 hr 07 min 32 sec)
Heartbeat CPU 0 instructions: 100000000 cycles: 124021321 heartbeat IPC: 0.6365 cumulative IPC: 0.6368 (Simulation time: 00 hr 08 min 33 sec)
*** Reached end of trace: (0, "../traces/secret_traces/srv/srv387.champsimtrace.xz")
Heartbeat CPU 0 instructions: 110000001 cycles: 139484110 heartbeat IPC: 0.6467 cumulative IPC: 0.638 (Simulation time: 00 hr 09 min 34 sec)
Heartbeat CPU 0 instructions: 120000003 cycles: 154175374 heartbeat IPC: 0.6807 cumulative IPC: 0.6422 (Simulation time: 00 hr 10 min 32 sec)
Simulation finished CPU 0 instructions: 100000004 cycles: 155562169 cumulative IPC: 0.6428 (Simulation time: 00 hr 11 min 02 sec)
Simulation complete CPU 0 instructions: 100000004 cycles: 155562169 cumulative IPC: 0.6428 (Simulation time: 00 hr 11 min 02 sec)

ChampSim completed all CPUs

=== Simulation ===
CPU 0 runs ../traces/secret_traces/srv/srv387.champsimtrace.xz
Region of Interest Statistics

CPU 0 cumulative IPC: 0.6428 instructions: 100000004 cycles: 155562169
CPU 0 Branch Prediction Accuracy: 70.86% MPKI: 51.45 Average ROB Occupancy at Mispredict: 4.442
Branch type MPKI
BRANCH_DIRECT_JUMP: 0.819
BRANCH_INDIRECT: 34.9
BRANCH_CONDITIONAL: 10
BRANCH_DIRECT_CALL: 2.23
BRANCH_INDIRECT_CALL: 2.11
BRANCH_RETURN: 1.38

LLC TOTAL        ACCESS:    1046874 HIT:     981805 MISS:      65069
LLC LOAD         ACCESS:     716492 HIT:     690116 MISS:      26376
LLC RFO          ACCESS:     131959 HIT:      94708 MISS:      37251
LLC PREFETCH     ACCESS:          0 HIT:          0 MISS:          0
LLC WRITE        ACCESS:     193877 HIT:     193633 MISS:        244
LLC TRANSLATION  ACCESS:       4546 HIT:       3348 MISS:       1198
LLC PREFETCH REQUESTED:          0 ISSUED:          0 USEFUL:          0 USELESS:          0
LLC AVERAGE MISS LATENCY: 290.9 cycles
cpu0_DTLB TOTAL        ACCESS:   27065764 HIT:   25989608 MISS:    1076156
cpu0_DTLB LOAD         ACCESS:   27065764 HIT:   25989608 MISS:    1076156
cpu0_DTLB RFO          ACCESS:          0 HIT:          0 MISS:          0
cpu0_DTLB PREFETCH     ACCESS:          0 HIT:          0 MISS:          0
cpu0_DTLB WRITE        ACCESS:          0 HIT:          0 MISS:          0
cpu0_DTLB TRANSLATION  ACCESS:          0 HIT:          0 MISS:          0
cpu0_DTLB PREFETCH REQUESTED:          0 ISSUED:          0 USEFUL:          0 USELESS:          0
cpu0_DTLB AVERAGE MISS LATENCY: 6.606 cycles
cpu0_ITLB TOTAL        ACCESS:    9896970 HIT:    8182388 MISS:    1714582
cpu0_ITLB LOAD         ACCESS:    9896970 HIT:    8182388 MISS:    1714582
cpu0_ITLB RFO          ACCESS:          0 HIT:          0 MISS:          0
cpu0_ITLB PREFETCH     ACCESS:          0 HIT:          0 MISS:          0
cpu0_ITLB WRITE        ACCESS:          0 HIT:          0 MISS:          0
cpu0_ITLB TRANSLATION  ACCESS:          0 HIT:          0 MISS:          0
cpu0_ITLB PREFETCH REQUESTED:          0 ISSUED:          0 USEFUL:          0 USELESS:          0
cpu0_ITLB AVERAGE MISS LATENCY: 3.155 cycles
cpu0_L1D TOTAL        ACCESS:   33935263 HIT:   30811894 MISS:    3123369
cpu0_L1D LOAD         ACCESS:   20797572 HIT:   19171530 MISS:    1626042
cpu0_L1D RFO          ACCESS:          0 HIT:          0 MISS:          0
cpu0_L1D PREFETCH     ACCESS:          0 HIT:          0 MISS:          0
cpu0_L1D WRITE        ACCESS:   13131753 HIT:   11640097 MISS:    1491656
cpu0_L1D TRANSLATION  ACCESS:       5938 HIT:        267 MISS:       5671
cpu0_L1D PREFETCH REQUESTED:          0 ISSUED:          0 USEFUL:          0 USELESS:          0
cpu0_L1D AVERAGE MISS LATENCY: 14.13 cycles
cpu0_L1I TOTAL        ACCESS:   11102695 HIT:    5122389 MISS:    5980306
cpu0_L1I LOAD         ACCESS:   11102695 HIT:    5122389 MISS:    5980306
cpu0_L1I RFO          ACCESS:          0 HIT:          0 MISS:          0
cpu0_L1I PREFETCH     ACCESS:          0 HIT:          0 MISS:          0
cpu0_L1I WRITE        ACCESS:          0 HIT:          0 MISS:          0
cpu0_L1I TRANSLATION  ACCESS:          0 HIT:          0 MISS:          0
cpu0_L1I PREFETCH REQUESTED:          0 ISSUED:          0 USEFUL:          0 USELESS:          0
cpu0_L1I AVERAGE MISS LATENCY: 9.517 cycles
cpu0_L2C TOTAL        ACCESS:    7588215 HIT:    6725773 MISS:     862442
cpu0_L2C LOAD         ACCESS:    6151305 HIT:    5434813 MISS:     716492
cpu0_L2C RFO          ACCESS:     534952 HIT:     402993 MISS:     131959
cpu0_L2C PREFETCH     ACCESS:          0 HIT:          0 MISS:          0
cpu0_L2C WRITE        ACCESS:     896289 HIT:     886844 MISS:       9445
cpu0_L2C TRANSLATION  ACCESS:       5669 HIT:       1123 MISS:       4546
cpu0_L2C PREFETCH REQUESTED:          0 ISSUED:          0 USEFUL:          0 USELESS:          0
cpu0_L2C AVERAGE MISS LATENCY: 41.81 cycles
cpu0_STLB TOTAL        ACCESS:    1732365 HIT:    1726781 MISS:       5584
cpu0_STLB LOAD         ACCESS:    1732365 HIT:    1726781 MISS:       5584
cpu0_STLB RFO          ACCESS:          0 HIT:          0 MISS:          0
cpu0_STLB PREFETCH     ACCESS:          0 HIT:          0 MISS:          0
cpu0_STLB WRITE        ACCESS:          0 HIT:          0 MISS:          0
cpu0_STLB TRANSLATION  ACCESS:          0 HIT:          0 MISS:          0
cpu0_STLB PREFETCH REQUESTED:          0 ISSUED:          0 USEFUL:          0 USELESS:          0
cpu0_STLB AVERAGE MISS LATENCY: 106.8 cycles

DRAM Statistics

Channel 0 RQ ROW_BUFFER_HIT:      29658
  ROW_BUFFER_MISS:      35167
 AVG DBUS CONGESTED CYCLE: 3.974
WQ ROW_BUFFER_HIT: Channel 0 
  ROW_BUFFER_MISS:       2975
  FULL:      33608
