WARNING: physical memory size is smaller than virtual memory size.

*** ChampSim Multicore Out-of-Order Simulator ***
Warmup Instructions: 25000000
Simulation Instructions: 100000000
Number of CPUs: 1
Page size: 4096

Off-chip DRAM Size: 4 GiB Channels: 1 Width: 64-bit Data Race: 3200 MT/s
Heartbeat CPU 0 instructions: 10000000 cycles: 2500159 heartbeat IPC: 4 cumulative IPC: 4 (Simulation time: 00 hr 00 min 22 sec)
Heartbeat CPU 0 instructions: 20000000 cycles: 5000353 heartbeat IPC: 4 cumulative IPC: 4 (Simulation time: 00 hr 00 min 45 sec)
Warmup finished CPU 0 instructions: 25000002 cycles: 6250611 cumulative IPC: 4 (Simulation time: 00 hr 00 min 57 sec)
Warmup complete CPU 0 instructions: 25000002 cycles: 6250611 cumulative IPC: 4 (Simulation time: 00 hr 00 min 57 sec)
Heartbeat CPU 0 instructions: 30000001 cycles: 11226497 heartbeat IPC: 1.606 cumulative IPC: 1.005 (Simulation time: 00 hr 01 min 21 sec)
Heartbeat CPU 0 instructions: 40000003 cycles: 21211991 heartbeat IPC: 1.001 cumulative IPC: 1.003 (Simulation time: 00 hr 02 min 08 sec)
Heartbeat CPU 0 instructions: 50000002 cycles: 31185389 heartbeat IPC: 1.003 cumulative IPC: 1.003 (Simulation time: 00 hr 02 min 56 sec)
Heartbeat CPU 0 instructions: 60000001 cycles: 41194145 heartbeat IPC: 0.9991 cumulative IPC: 1.002 (Simulation time: 00 hr 03 min 45 sec)
Heartbeat CPU 0 instructions: 70000001 cycles: 51184266 heartbeat IPC: 1.001 cumulative IPC: 1.001 (Simulation time: 00 hr 04 min 33 sec)
Heartbeat CPU 0 instructions: 80000000 cycles: 61209970 heartbeat IPC: 0.9974 cumulative IPC: 1.001 (Simulation time: 00 hr 05 min 21 sec)
Heartbeat CPU 0 instructions: 90000000 cycles: 71204706 heartbeat IPC: 1.001 cumulative IPC: 1.001 (Simulation time: 00 hr 06 min 09 sec)
Heartbeat CPU 0 instructions: 100000001 cycles: 81202379 heartbeat IPC: 1 cumulative IPC: 1.001 (Simulation time: 00 hr 06 min 57 sec)
*** Reached end of trace: (0, "../traces/secret_traces/srv/srv315.champsimtrace.xz")
Heartbeat CPU 0 instructions: 110000000 cycles: 91082560 heartbeat IPC: 1.012 cumulative IPC: 1.002 (Simulation time: 00 hr 07 min 45 sec)
Heartbeat CPU 0 instructions: 120000002 cycles: 100899688 heartbeat IPC: 1.019 cumulative IPC: 1.004 (Simulation time: 00 hr 08 min 33 sec)
Simulation finished CPU 0 instructions: 100000000 cycles: 99605319 cumulative IPC: 1.004 (Simulation time: 00 hr 08 min 57 sec)
Simulation complete CPU 0 instructions: 100000000 cycles: 99605319 cumulative IPC: 1.004 (Simulation time: 00 hr 08 min 57 sec)

ChampSim completed all CPUs

=== Simulation ===
CPU 0 runs ../traces/secret_traces/srv/srv315.champsimtrace.xz
Region of Interest Statistics

CPU 0 cumulative IPC: 1.004 instructions: 100000000 cycles: 99605319
CPU 0 Branch Prediction Accuracy: 86.93% MPKI: 22.45 Average ROB Occupancy at Mispredict: 11.1
Branch type MPKI
BRANCH_DIRECT_JUMP: 0.00025
BRANCH_INDIRECT: 16
BRANCH_CONDITIONAL: 5.2
BRANCH_DIRECT_CALL: 0.00071
BRANCH_INDIRECT_CALL: 1.25
BRANCH_RETURN: 0.019

LLC TOTAL        ACCESS:     572229 HIT:     526816 MISS:      45413
LLC LOAD         ACCESS:     298320 HIT:     267895 MISS:      30425
LLC RFO          ACCESS:      56968 HIT:      46641 MISS:      10327
LLC PREFETCH     ACCESS:          0 HIT:          0 MISS:          0
LLC WRITE        ACCESS:     205640 HIT:     205270 MISS:        370
LLC TRANSLATION  ACCESS:      11301 HIT:       7010 MISS:       4291
LLC PREFETCH REQUESTED:          0 ISSUED:          0 USEFUL:          0 USELESS:          0
LLC AVERAGE MISS LATENCY: 169.5 cycles
cpu0_DTLB TOTAL        ACCESS:   24157110 HIT:   22814495 MISS:    1342615
cpu0_DTLB LOAD         ACCESS:   24157110 HIT:   22814495 MISS:    1342615
cpu0_DTLB RFO          ACCESS:          0 HIT:          0 MISS:          0
cpu0_DTLB PREFETCH     ACCESS:          0 HIT:          0 MISS:          0
cpu0_DTLB WRITE        ACCESS:          0 HIT:          0 MISS:          0
cpu0_DTLB TRANSLATION  ACCESS:          0 HIT:          0 MISS:          0
cpu0_DTLB PREFETCH REQUESTED:          0 ISSUED:          0 USEFUL:          0 USELESS:          0
cpu0_DTLB AVERAGE MISS LATENCY: 6.778 cycles
cpu0_ITLB TOTAL        ACCESS:   13845228 HIT:   10541261 MISS:    3303967
cpu0_ITLB LOAD         ACCESS:   13845228 HIT:   10541261 MISS:    3303967
cpu0_ITLB RFO          ACCESS:          0 HIT:          0 MISS:          0
cpu0_ITLB PREFETCH     ACCESS:          0 HIT:          0 MISS:          0
cpu0_ITLB WRITE        ACCESS:          0 HIT:          0 MISS:          0
cpu0_ITLB TRANSLATION  ACCESS:          0 HIT:          0 MISS:          0
cpu0_ITLB PREFETCH REQUESTED:          0 ISSUED:          0 USEFUL:          0 USELESS:          0
cpu0_ITLB AVERAGE MISS LATENCY: 1.776 cycles
cpu0_L1D TOTAL        ACCESS:   31275610 HIT:   30014468 MISS:    1261142
cpu0_L1D LOAD         ACCESS:   18935056 HIT:   17984621 MISS:     950435
cpu0_L1D RFO          ACCESS:          0 HIT:          0 MISS:          0
cpu0_L1D PREFETCH     ACCESS:          0 HIT:          0 MISS:          0
cpu0_L1D WRITE        ACCESS:   12325375 HIT:   12029269 MISS:     296106
cpu0_L1D TRANSLATION  ACCESS:      15179 HIT:        578 MISS:      14601
cpu0_L1D PREFETCH REQUESTED:          0 ISSUED:          0 USEFUL:          0 USELESS:          0
cpu0_L1D AVERAGE MISS LATENCY: 17.84 cycles
cpu0_L1I TOTAL        ACCESS:   15894965 HIT:    5090735 MISS:   10804230
cpu0_L1I LOAD         ACCESS:   15894965 HIT:    5090735 MISS:   10804230
cpu0_L1I RFO          ACCESS:          0 HIT:          0 MISS:          0
cpu0_L1I PREFETCH     ACCESS:          0 HIT:          0 MISS:          0
cpu0_L1I WRITE        ACCESS:          0 HIT:          0 MISS:          0
cpu0_L1I TRANSLATION  ACCESS:          0 HIT:          0 MISS:          0
cpu0_L1I PREFETCH REQUESTED:          0 ISSUED:          0 USEFUL:          0 USELESS:          0
cpu0_L1I AVERAGE MISS LATENCY: 6.672 cycles
cpu0_L2C TOTAL        ACCESS:    8990733 HIT:    8622835 MISS:     367898
cpu0_L2C LOAD         ACCESS:    8424519 HIT:    8126199 MISS:     298320
cpu0_L2C RFO          ACCESS:     114081 HIT:      57113 MISS:      56968
cpu0_L2C PREFETCH     ACCESS:          0 HIT:          0 MISS:          0
cpu0_L2C WRITE        ACCESS:     437810 HIT:     436501 MISS:       1309
cpu0_L2C TRANSLATION  ACCESS:      14323 HIT:       3022 MISS:      11301
cpu0_L2C PREFETCH REQUESTED:          0 ISSUED:          0 USEFUL:          0 USELESS:          0
cpu0_L2C AVERAGE MISS LATENCY: 40.99 cycles
cpu0_STLB TOTAL        ACCESS:    2198640 HIT:    2187445 MISS:      11195
cpu0_STLB LOAD         ACCESS:    2198640 HIT:    2187445 MISS:      11195
cpu0_STLB RFO          ACCESS:          0 HIT:          0 MISS:          0
cpu0_STLB PREFETCH     ACCESS:          0 HIT:          0 MISS:          0
cpu0_STLB WRITE        ACCESS:          0 HIT:          0 MISS:          0
cpu0_STLB TRANSLATION  ACCESS:          0 HIT:          0 MISS:          0
cpu0_STLB PREFETCH REQUESTED:          0 ISSUED:          0 USEFUL:          0 USELESS:          0
cpu0_STLB AVERAGE MISS LATENCY: 186.9 cycles

DRAM Statistics

Channel 0 RQ ROW_BUFFER_HIT:      13444
  ROW_BUFFER_MISS:      31598
 AVG DBUS CONGESTED CYCLE: 3.944
WQ ROW_BUFFER_HIT: Channel 0 
  ROW_BUFFER_MISS:       3560
  FULL:       9783
