WARNING: physical memory size is smaller than virtual memory size.

*** ChampSim Multicore Out-of-Order Simulator ***
Warmup Instructions: 25000000
Simulation Instructions: 100000000
Number of CPUs: 1
Page size: 4096

Off-chip DRAM Size: 4 GiB Channels: 1 Width: 64-bit Data Race: 3200 MT/s
Heartbeat CPU 0 instructions: 10000002 cycles: 2500123 heartbeat IPC: 4 cumulative IPC: 4 (Simulation time: 00 hr 00 min 21 sec)
Heartbeat CPU 0 instructions: 20000002 cycles: 5000123 heartbeat IPC: 4 cumulative IPC: 4 (Simulation time: 00 hr 00 min 42 sec)
Warmup finished CPU 0 instructions: 25000003 cycles: 6250129 cumulative IPC: 4 (Simulation time: 00 hr 00 min 53 sec)
Warmup complete CPU 0 instructions: 25000003 cycles: 6250129 cumulative IPC: 4 (Simulation time: 00 hr 00 min 53 sec)
Heartbeat CPU 0 instructions: 30000001 cycles: 11794204 heartbeat IPC: 1.472 cumulative IPC: 0.9019 (Simulation time: 00 hr 01 min 17 sec)
Heartbeat CPU 0 instructions: 40000002 cycles: 23563799 heartbeat IPC: 0.8496 cumulative IPC: 0.8664 (Simulation time: 00 hr 02 min 08 sec)
Heartbeat CPU 0 instructions: 50000000 cycles: 35454641 heartbeat IPC: 0.841 cumulative IPC: 0.856 (Simulation time: 00 hr 03 min 00 sec)
Heartbeat CPU 0 instructions: 60000004 cycles: 47518656 heartbeat IPC: 0.8289 cumulative IPC: 0.8481 (Simulation time: 00 hr 03 min 51 sec)
Heartbeat CPU 0 instructions: 70000001 cycles: 59084848 heartbeat IPC: 0.8646 cumulative IPC: 0.8517 (Simulation time: 00 hr 04 min 42 sec)
Heartbeat CPU 0 instructions: 80000001 cycles: 70967767 heartbeat IPC: 0.8415 cumulative IPC: 0.8498 (Simulation time: 00 hr 05 min 33 sec)
Heartbeat CPU 0 instructions: 90000000 cycles: 82376428 heartbeat IPC: 0.8765 cumulative IPC: 0.8538 (Simulation time: 00 hr 06 min 23 sec)
Heartbeat CPU 0 instructions: 100000002 cycles: 94213613 heartbeat IPC: 0.8448 cumulative IPC: 0.8526 (Simulation time: 00 hr 07 min 15 sec)
*** Reached end of trace: (0, "../traces/secret_traces/srv/srv390.champsimtrace.xz")
Heartbeat CPU 0 instructions: 110000001 cycles: 105914653 heartbeat IPC: 0.8546 cumulative IPC: 0.8529 (Simulation time: 00 hr 08 min 06 sec)
Heartbeat CPU 0 instructions: 120000001 cycles: 117224810 heartbeat IPC: 0.8842 cumulative IPC: 0.8561 (Simulation time: 00 hr 08 min 55 sec)
Simulation finished CPU 0 instructions: 100000000 cycles: 116820374 cumulative IPC: 0.856 (Simulation time: 00 hr 09 min 21 sec)
Simulation complete CPU 0 instructions: 100000000 cycles: 116820374 cumulative IPC: 0.856 (Simulation time: 00 hr 09 min 21 sec)

ChampSim completed all CPUs

=== Simulation ===
CPU 0 runs ../traces/secret_traces/srv/srv390.champsimtrace.xz
Region of Interest Statistics

CPU 0 cumulative IPC: 0.856 instructions: 100000000 cycles: 116820374
CPU 0 Branch Prediction Accuracy: 85.81% MPKI: 25.47 Average ROB Occupancy at Mispredict: 20.94
Branch type MPKI
BRANCH_DIRECT_JUMP: 0.38
BRANCH_INDIRECT: 14.3
BRANCH_CONDITIONAL: 9.05
BRANCH_DIRECT_CALL: 0.701
BRANCH_INDIRECT_CALL: 0.483
BRANCH_RETURN: 0.535

LLC TOTAL        ACCESS:    1866534 HIT:    1685722 MISS:     180812
LLC LOAD         ACCESS:    1373358 HIT:    1243978 MISS:     129380
LLC RFO          ACCESS:      86205 HIT:      62190 MISS:      24015
LLC PREFETCH     ACCESS:          0 HIT:          0 MISS:          0
LLC WRITE        ACCESS:     264481 HIT:     264153 MISS:        328
LLC TRANSLATION  ACCESS:     142490 HIT:     115401 MISS:      27089
LLC PREFETCH REQUESTED:          0 ISSUED:          0 USEFUL:          0 USELESS:          0
LLC AVERAGE MISS LATENCY: 162.7 cycles
cpu0_DTLB TOTAL        ACCESS:   21793544 HIT:   20169289 MISS:    1624255
cpu0_DTLB LOAD         ACCESS:   21793544 HIT:   20169289 MISS:    1624255
cpu0_DTLB RFO          ACCESS:          0 HIT:          0 MISS:          0
cpu0_DTLB PREFETCH     ACCESS:          0 HIT:          0 MISS:          0
cpu0_DTLB WRITE        ACCESS:          0 HIT:          0 MISS:          0
cpu0_DTLB TRANSLATION  ACCESS:          0 HIT:          0 MISS:          0
cpu0_DTLB PREFETCH REQUESTED:          0 ISSUED:          0 USEFUL:          0 USELESS:          0
cpu0_DTLB AVERAGE MISS LATENCY: 11.56 cycles
cpu0_ITLB TOTAL        ACCESS:    9322509 HIT:    8491958 MISS:     830551
cpu0_ITLB LOAD         ACCESS:    9322509 HIT:    8491958 MISS:     830551
cpu0_ITLB RFO          ACCESS:          0 HIT:          0 MISS:          0
cpu0_ITLB PREFETCH     ACCESS:          0 HIT:          0 MISS:          0
cpu0_ITLB WRITE        ACCESS:          0 HIT:          0 MISS:          0
cpu0_ITLB TRANSLATION  ACCESS:          0 HIT:          0 MISS:          0
cpu0_ITLB PREFETCH REQUESTED:          0 ISSUED:          0 USEFUL:          0 USELESS:          0
cpu0_ITLB AVERAGE MISS LATENCY: 6.058 cycles
cpu0_L1D TOTAL        ACCESS:   26850295 HIT:   24737264 MISS:    2113031
cpu0_L1D LOAD         ACCESS:   16569967 HIT:   15053443 MISS:    1516524
cpu0_L1D RFO          ACCESS:          0 HIT:          0 MISS:          0
cpu0_L1D PREFETCH     ACCESS:          0 HIT:          0 MISS:          0
cpu0_L1D WRITE        ACCESS:   10078069 HIT:    9661402 MISS:     416667
cpu0_L1D TRANSLATION  ACCESS:     202259 HIT:      22419 MISS:     179840
cpu0_L1D PREFETCH REQUESTED:          0 ISSUED:          0 USEFUL:          0 USELESS:          0
cpu0_L1D AVERAGE MISS LATENCY: 25.25 cycles
cpu0_L1I TOTAL        ACCESS:   10465673 HIT:    6963714 MISS:    3501959
cpu0_L1I LOAD         ACCESS:   10465673 HIT:    6963714 MISS:    3501959
cpu0_L1I RFO          ACCESS:          0 HIT:          0 MISS:          0
cpu0_L1I PREFETCH     ACCESS:          0 HIT:          0 MISS:          0
cpu0_L1I WRITE        ACCESS:          0 HIT:          0 MISS:          0
cpu0_L1I TRANSLATION  ACCESS:          0 HIT:          0 MISS:          0
cpu0_L1I PREFETCH REQUESTED:          0 ISSUED:          0 USEFUL:          0 USELESS:          0
cpu0_L1I AVERAGE MISS LATENCY: 12.65 cycles
cpu0_L2C TOTAL        ACCESS:    4536478 HIT:    2931953 MISS:    1604525
cpu0_L2C LOAD         ACCESS:    3659801 HIT:    2286439 MISS:    1373362
cpu0_L2C RFO          ACCESS:     174731 HIT:      88526 MISS:      86205
cpu0_L2C PREFETCH     ACCESS:          0 HIT:          0 MISS:          0
cpu0_L2C WRITE        ACCESS:     523022 HIT:     520554 MISS:       2468
cpu0_L2C TRANSLATION  ACCESS:     178924 HIT:      36434 MISS:     142490
cpu0_L2C PREFETCH REQUESTED:          0 ISSUED:          0 USEFUL:          0 USELESS:          0
cpu0_L2C AVERAGE MISS LATENCY: 38.41 cycles
cpu0_STLB TOTAL        ACCESS:    1636612 HIT:    1482732 MISS:     153880
cpu0_STLB LOAD         ACCESS:    1636612 HIT:    1482732 MISS:     153880
cpu0_STLB RFO          ACCESS:          0 HIT:          0 MISS:          0
cpu0_STLB PREFETCH     ACCESS:          0 HIT:          0 MISS:          0
cpu0_STLB WRITE        ACCESS:          0 HIT:          0 MISS:          0
cpu0_STLB TRANSLATION  ACCESS:          0 HIT:          0 MISS:          0
cpu0_STLB PREFETCH REQUESTED:          0 ISSUED:          0 USEFUL:          0 USELESS:          0
cpu0_STLB AVERAGE MISS LATENCY: 83.45 cycles

DRAM Statistics

Channel 0 RQ ROW_BUFFER_HIT:      41306
  ROW_BUFFER_MISS:     139176
 AVG DBUS CONGESTED CYCLE: 3.932
WQ ROW_BUFFER_HIT: Channel 0 
  ROW_BUFFER_MISS:      21344
  FULL:      87030
