WARNING: physical memory size is smaller than virtual memory size.

*** ChampSim Multicore Out-of-Order Simulator ***
Warmup Instructions: 25000000
Simulation Instructions: 100000000
Number of CPUs: 1
Page size: 4096

Off-chip DRAM Size: 4 GiB Channels: 1 Width: 64-bit Data Race: 3200 MT/s
Heartbeat CPU 0 instructions: 10000001 cycles: 2500087 heartbeat IPC: 4 cumulative IPC: 4 (Simulation time: 00 hr 00 min 20 sec)
Heartbeat CPU 0 instructions: 20000001 cycles: 5000087 heartbeat IPC: 4 cumulative IPC: 4 (Simulation time: 00 hr 00 min 41 sec)
Warmup finished CPU 0 instructions: 25000001 cycles: 6250088 cumulative IPC: 4 (Simulation time: 00 hr 00 min 51 sec)
Warmup complete CPU 0 instructions: 25000001 cycles: 6250088 cumulative IPC: 4 (Simulation time: 00 hr 00 min 51 sec)
Heartbeat CPU 0 instructions: 30000001 cycles: 7818538 heartbeat IPC: 3.548 cumulative IPC: 3.188 (Simulation time: 00 hr 01 min 04 sec)
Heartbeat CPU 0 instructions: 40000001 cycles: 13870607 heartbeat IPC: 1.652 cumulative IPC: 1.968 (Simulation time: 00 hr 01 min 38 sec)
Heartbeat CPU 0 instructions: 50000001 cycles: 17007477 heartbeat IPC: 3.188 cumulative IPC: 2.324 (Simulation time: 00 hr 02 min 03 sec)
Heartbeat CPU 0 instructions: 60000001 cycles: 20526063 heartbeat IPC: 2.842 cumulative IPC: 2.452 (Simulation time: 00 hr 02 min 30 sec)
*** Reached end of trace: (0, "../traces/secret_traces/srv/srv352.champsimtrace.xz")
Heartbeat CPU 0 instructions: 70000001 cycles: 23783047 heartbeat IPC: 3.07 cumulative IPC: 2.567 (Simulation time: 00 hr 02 min 56 sec)
Heartbeat CPU 0 instructions: 80000002 cycles: 26919930 heartbeat IPC: 3.188 cumulative IPC: 2.661 (Simulation time: 00 hr 03 min 22 sec)
Heartbeat CPU 0 instructions: 90000001 cycles: 30056800 heartbeat IPC: 3.188 cumulative IPC: 2.73 (Simulation time: 00 hr 03 min 47 sec)
Heartbeat CPU 0 instructions: 100000001 cycles: 36401989 heartbeat IPC: 1.576 cumulative IPC: 2.487 (Simulation time: 00 hr 04 min 23 sec)
Heartbeat CPU 0 instructions: 110000002 cycles: 39538878 heartbeat IPC: 3.188 cumulative IPC: 2.553 (Simulation time: 00 hr 04 min 48 sec)
Heartbeat CPU 0 instructions: 120000001 cycles: 42675731 heartbeat IPC: 3.188 cumulative IPC: 2.608 (Simulation time: 00 hr 05 min 14 sec)
*** Reached end of trace: (0, "../traces/secret_traces/srv/srv352.champsimtrace.xz")
Simulation finished CPU 0 instructions: 100000003 cycles: 38434212 cumulative IPC: 2.602 (Simulation time: 00 hr 05 min 28 sec)
Simulation complete CPU 0 instructions: 100000003 cycles: 38434212 cumulative IPC: 2.602 (Simulation time: 00 hr 05 min 28 sec)

ChampSim completed all CPUs

=== Simulation ===
CPU 0 runs ../traces/secret_traces/srv/srv352.champsimtrace.xz
Region of Interest Statistics

CPU 0 cumulative IPC: 2.602 instructions: 100000003 cycles: 38434212
CPU 0 Branch Prediction Accuracy: 97.37% MPKI: 3.376 Average ROB Occupancy at Mispredict: 59.41
Branch type MPKI
BRANCH_DIRECT_JUMP: 0.0175
BRANCH_INDIRECT: 2.15
BRANCH_CONDITIONAL: 1.11
BRANCH_DIRECT_CALL: 0.0451
BRANCH_INDIRECT_CALL: 0.0246
BRANCH_RETURN: 0.0263

LLC TOTAL        ACCESS:     180853 HIT:      89686 MISS:      91167
LLC LOAD         ACCESS:      59083 HIT:      13315 MISS:      45768
LLC RFO          ACCESS:      58191 HIT:      14370 MISS:      43821
LLC PREFETCH     ACCESS:          0 HIT:          0 MISS:          0
LLC WRITE        ACCESS:      61904 HIT:      61839 MISS:         65
LLC TRANSLATION  ACCESS:       1675 HIT:        162 MISS:       1513
LLC PREFETCH REQUESTED:          0 ISSUED:          0 USEFUL:          0 USELESS:          0
LLC AVERAGE MISS LATENCY: 394.2 cycles
cpu0_DTLB TOTAL        ACCESS:   23633700 HIT:   23051169 MISS:     582531
cpu0_DTLB LOAD         ACCESS:   23633700 HIT:   23051169 MISS:     582531
cpu0_DTLB RFO          ACCESS:          0 HIT:          0 MISS:          0
cpu0_DTLB PREFETCH     ACCESS:          0 HIT:          0 MISS:          0
cpu0_DTLB WRITE        ACCESS:          0 HIT:          0 MISS:          0
cpu0_DTLB TRANSLATION  ACCESS:          0 HIT:          0 MISS:          0
cpu0_DTLB PREFETCH REQUESTED:          0 ISSUED:          0 USEFUL:          0 USELESS:          0
cpu0_DTLB AVERAGE MISS LATENCY: 3.642 cycles
cpu0_ITLB TOTAL        ACCESS:    8851500 HIT:    8840661 MISS:      10839
cpu0_ITLB LOAD         ACCESS:    8851500 HIT:    8840661 MISS:      10839
cpu0_ITLB RFO          ACCESS:          0 HIT:          0 MISS:          0
cpu0_ITLB PREFETCH     ACCESS:          0 HIT:          0 MISS:          0
cpu0_ITLB WRITE        ACCESS:          0 HIT:          0 MISS:          0
cpu0_ITLB TRANSLATION  ACCESS:          0 HIT:          0 MISS:          0
cpu0_ITLB PREFETCH REQUESTED:          0 ISSUED:          0 USEFUL:          0 USELESS:          0
cpu0_ITLB AVERAGE MISS LATENCY: 20.1 cycles
cpu0_L1D TOTAL        ACCESS:   32552570 HIT:   32321439 MISS:     231131
cpu0_L1D LOAD         ACCESS:   14172008 HIT:   14097924 MISS:      74084
cpu0_L1D RFO          ACCESS:          0 HIT:          0 MISS:          0
cpu0_L1D PREFETCH     ACCESS:          0 HIT:          0 MISS:          0
cpu0_L1D WRITE        ACCESS:   18377567 HIT:   18222522 MISS:     155045
cpu0_L1D TRANSLATION  ACCESS:       2995 HIT:        993 MISS:       2002
cpu0_L1D PREFETCH REQUESTED:          0 ISSUED:          0 USEFUL:          0 USELESS:          0
cpu0_L1D AVERAGE MISS LATENCY: 157.3 cycles
cpu0_L1I TOTAL        ACCESS:   10178259 HIT:   10136965 MISS:      41294
cpu0_L1I LOAD         ACCESS:   10178259 HIT:   10136965 MISS:      41294
cpu0_L1I RFO          ACCESS:          0 HIT:          0 MISS:          0
cpu0_L1I PREFETCH     ACCESS:          0 HIT:          0 MISS:          0
cpu0_L1I WRITE        ACCESS:          0 HIT:          0 MISS:          0
cpu0_L1I TRANSLATION  ACCESS:          0 HIT:          0 MISS:          0
cpu0_L1I PREFETCH REQUESTED:          0 ISSUED:          0 USEFUL:          0 USELESS:          0
cpu0_L1I AVERAGE MISS LATENCY: 67.98 cycles
cpu0_L2C TOTAL        ACCESS:     215322 HIT:      96358 MISS:     118964
cpu0_L2C LOAD         ACCESS:      84193 HIT:      25110 MISS:      59083
cpu0_L2C RFO          ACCESS:      59909 HIT:       1718 MISS:      58191
cpu0_L2C PREFETCH     ACCESS:          0 HIT:          0 MISS:          0
cpu0_L2C WRITE        ACCESS:      69287 HIT:      69272 MISS:         15
cpu0_L2C TRANSLATION  ACCESS:       1933 HIT:        258 MISS:       1675
cpu0_L2C PREFETCH REQUESTED:          0 ISSUED:          0 USEFUL:          0 USELESS:          0
cpu0_L2C AVERAGE MISS LATENCY: 322.9 cycles
cpu0_STLB TOTAL        ACCESS:     239611 HIT:     236923 MISS:       2688
cpu0_STLB LOAD         ACCESS:     239611 HIT:     236923 MISS:       2688
cpu0_STLB RFO          ACCESS:          0 HIT:          0 MISS:          0
cpu0_STLB PREFETCH     ACCESS:          0 HIT:          0 MISS:          0
cpu0_STLB WRITE        ACCESS:          0 HIT:          0 MISS:          0
cpu0_STLB TRANSLATION  ACCESS:          0 HIT:          0 MISS:          0
cpu0_STLB PREFETCH REQUESTED:          0 ISSUED:          0 USEFUL:          0 USELESS:          0
cpu0_STLB AVERAGE MISS LATENCY: 329.9 cycles

DRAM Statistics

Channel 0 RQ ROW_BUFFER_HIT:      49095
  ROW_BUFFER_MISS:      41999
 AVG DBUS CONGESTED CYCLE: 3.982
WQ ROW_BUFFER_HIT: Channel 0 
  ROW_BUFFER_MISS:       4305
  FULL:      29701
