WARNING: physical memory size is smaller than virtual memory size.

*** ChampSim Multicore Out-of-Order Simulator ***
Warmup Instructions: 25000000
Simulation Instructions: 100000000
Number of CPUs: 1
Page size: 4096

Off-chip DRAM Size: 4 GiB Channels: 1 Width: 64-bit Data Race: 3200 MT/s
Heartbeat CPU 0 instructions: 10000001 cycles: 2500071 heartbeat IPC: 4 cumulative IPC: 4 (Simulation time: 00 hr 00 min 22 sec)
Heartbeat CPU 0 instructions: 20000001 cycles: 5000071 heartbeat IPC: 4 cumulative IPC: 4 (Simulation time: 00 hr 00 min 44 sec)
Warmup finished CPU 0 instructions: 25000001 cycles: 6250072 cumulative IPC: 4 (Simulation time: 00 hr 00 min 56 sec)
Warmup complete CPU 0 instructions: 25000001 cycles: 6250072 cumulative IPC: 4 (Simulation time: 00 hr 00 min 56 sec)
Heartbeat CPU 0 instructions: 30000003 cycles: 12502223 heartbeat IPC: 1.333 cumulative IPC: 0.7997 (Simulation time: 00 hr 01 min 22 sec)
Heartbeat CPU 0 instructions: 40000000 cycles: 24977045 heartbeat IPC: 0.8016 cumulative IPC: 0.801 (Simulation time: 00 hr 02 min 16 sec)
Heartbeat CPU 0 instructions: 50000001 cycles: 37490603 heartbeat IPC: 0.7991 cumulative IPC: 0.8002 (Simulation time: 00 hr 03 min 09 sec)
Heartbeat CPU 0 instructions: 60000001 cycles: 49941131 heartbeat IPC: 0.8032 cumulative IPC: 0.8011 (Simulation time: 00 hr 04 min 03 sec)
Heartbeat CPU 0 instructions: 70000000 cycles: 62403011 heartbeat IPC: 0.8024 cumulative IPC: 0.8014 (Simulation time: 00 hr 04 min 56 sec)
Heartbeat CPU 0 instructions: 80000002 cycles: 75439219 heartbeat IPC: 0.7671 cumulative IPC: 0.7949 (Simulation time: 00 hr 05 min 51 sec)
Heartbeat CPU 0 instructions: 90000000 cycles: 87785361 heartbeat IPC: 0.81 cumulative IPC: 0.7972 (Simulation time: 00 hr 06 min 44 sec)
Heartbeat CPU 0 instructions: 100000002 cycles: 100166428 heartbeat IPC: 0.8077 cumulative IPC: 0.7986 (Simulation time: 00 hr 07 min 38 sec)
*** Reached end of trace: (0, "../traces/secret_traces/srv/srv422.champsimtrace.xz")
Heartbeat CPU 0 instructions: 110000001 cycles: 112515806 heartbeat IPC: 0.8098 cumulative IPC: 0.7999 (Simulation time: 00 hr 08 min 31 sec)
Heartbeat CPU 0 instructions: 120000002 cycles: 124835397 heartbeat IPC: 0.8117 cumulative IPC: 0.8011 (Simulation time: 00 hr 09 min 24 sec)
Simulation finished CPU 0 instructions: 100000001 cycles: 125165980 cumulative IPC: 0.7989 (Simulation time: 00 hr 09 min 52 sec)
Simulation complete CPU 0 instructions: 100000001 cycles: 125165980 cumulative IPC: 0.7989 (Simulation time: 00 hr 09 min 52 sec)

ChampSim completed all CPUs

=== Simulation ===
CPU 0 runs ../traces/secret_traces/srv/srv422.champsimtrace.xz
Region of Interest Statistics

CPU 0 cumulative IPC: 0.7989 instructions: 100000001 cycles: 125165980
CPU 0 Branch Prediction Accuracy: 80.33% MPKI: 36.68 Average ROB Occupancy at Mispredict: 4.963
Branch type MPKI
BRANCH_DIRECT_JUMP: 0.0965
BRANCH_INDIRECT: 26
BRANCH_CONDITIONAL: 8.64
BRANCH_DIRECT_CALL: 0.0984
BRANCH_INDIRECT_CALL: 1.74
BRANCH_RETURN: 0.101

LLC TOTAL        ACCESS:     575348 HIT:     548475 MISS:      26873
LLC LOAD         ACCESS:     333121 HIT:     313806 MISS:      19315
LLC RFO          ACCESS:      47696 HIT:      41012 MISS:       6684
LLC PREFETCH     ACCESS:          0 HIT:          0 MISS:          0
LLC WRITE        ACCESS:     190495 HIT:     190282 MISS:        213
LLC TRANSLATION  ACCESS:       4036 HIT:       3375 MISS:        661
LLC PREFETCH REQUESTED:          0 ISSUED:          0 USEFUL:          0 USELESS:          0
LLC AVERAGE MISS LATENCY: 202.6 cycles
cpu0_DTLB TOTAL        ACCESS:   24274193 HIT:   23219606 MISS:    1054587
cpu0_DTLB LOAD         ACCESS:   24274193 HIT:   23219606 MISS:    1054587
cpu0_DTLB RFO          ACCESS:          0 HIT:          0 MISS:          0
cpu0_DTLB PREFETCH     ACCESS:          0 HIT:          0 MISS:          0
cpu0_DTLB WRITE        ACCESS:          0 HIT:          0 MISS:          0
cpu0_DTLB TRANSLATION  ACCESS:          0 HIT:          0 MISS:          0
cpu0_DTLB PREFETCH REQUESTED:          0 ISSUED:          0 USEFUL:          0 USELESS:          0
cpu0_DTLB AVERAGE MISS LATENCY: 6.25 cycles
cpu0_ITLB TOTAL        ACCESS:   11891458 HIT:    9640921 MISS:    2250537
cpu0_ITLB LOAD         ACCESS:   11891458 HIT:    9640921 MISS:    2250537
cpu0_ITLB RFO          ACCESS:          0 HIT:          0 MISS:          0
cpu0_ITLB PREFETCH     ACCESS:          0 HIT:          0 MISS:          0
cpu0_ITLB WRITE        ACCESS:          0 HIT:          0 MISS:          0
cpu0_ITLB TRANSLATION  ACCESS:          0 HIT:          0 MISS:          0
cpu0_ITLB PREFETCH REQUESTED:          0 ISSUED:          0 USEFUL:          0 USELESS:          0
cpu0_ITLB AVERAGE MISS LATENCY: 2.44 cycles
cpu0_L1D TOTAL        ACCESS:   30829823 HIT:   29105658 MISS:    1724165
cpu0_L1D LOAD         ACCESS:   18381714 HIT:   17076425 MISS:    1305289
cpu0_L1D RFO          ACCESS:          0 HIT:          0 MISS:          0
cpu0_L1D PREFETCH     ACCESS:          0 HIT:          0 MISS:          0
cpu0_L1D WRITE        ACCESS:   12442716 HIT:   12029116 MISS:     413600
cpu0_L1D TRANSLATION  ACCESS:       5393 HIT:        117 MISS:       5276
cpu0_L1D PREFETCH REQUESTED:          0 ISSUED:          0 USEFUL:          0 USELESS:          0
cpu0_L1D AVERAGE MISS LATENCY: 13.17 cycles
cpu0_L1I TOTAL        ACCESS:   13500384 HIT:    5049933 MISS:    8450451
cpu0_L1I LOAD         ACCESS:   13500384 HIT:    5049933 MISS:    8450451
cpu0_L1I RFO          ACCESS:          0 HIT:          0 MISS:          0
cpu0_L1I PREFETCH     ACCESS:          0 HIT:          0 MISS:          0
cpu0_L1I WRITE        ACCESS:          0 HIT:          0 MISS:          0
cpu0_L1I TRANSLATION  ACCESS:          0 HIT:          0 MISS:          0
cpu0_L1I PREFETCH REQUESTED:          0 ISSUED:          0 USEFUL:          0 USELESS:          0
cpu0_L1I AVERAGE MISS LATENCY: 7.165 cycles
cpu0_L2C TOTAL        ACCESS:    7987234 HIT:    7598423 MISS:     388811
cpu0_L2C LOAD         ACCESS:    7342436 HIT:    7009315 MISS:     333121
cpu0_L2C RFO          ACCESS:     180702 HIT:     133006 MISS:      47696
cpu0_L2C PREFETCH     ACCESS:          0 HIT:          0 MISS:          0
cpu0_L2C WRITE        ACCESS:     458820 HIT:     454862 MISS:       3958
cpu0_L2C TRANSLATION  ACCESS:       5276 HIT:       1240 MISS:       4036
cpu0_L2C PREFETCH REQUESTED:          0 ISSUED:          0 USEFUL:          0 USELESS:          0
cpu0_L2C AVERAGE MISS LATENCY: 33.91 cycles
cpu0_STLB TOTAL        ACCESS:    1806858 HIT:    1801632 MISS:       5226
cpu0_STLB LOAD         ACCESS:    1806858 HIT:    1801632 MISS:       5226
cpu0_STLB RFO          ACCESS:          0 HIT:          0 MISS:          0
cpu0_STLB PREFETCH     ACCESS:          0 HIT:          0 MISS:          0
cpu0_STLB WRITE        ACCESS:          0 HIT:          0 MISS:          0
cpu0_STLB TRANSLATION  ACCESS:          0 HIT:          0 MISS:          0
cpu0_STLB PREFETCH REQUESTED:          0 ISSUED:          0 USEFUL:          0 USELESS:          0
cpu0_STLB AVERAGE MISS LATENCY: 68.34 cycles

DRAM Statistics

Channel 0 RQ ROW_BUFFER_HIT:       4521
  ROW_BUFFER_MISS:      22113
 AVG DBUS CONGESTED CYCLE: 3.871
WQ ROW_BUFFER_HIT: Channel 0 
  ROW_BUFFER_MISS:       2806
  FULL:      12319
