WARNING: physical memory size is smaller than virtual memory size.

*** ChampSim Multicore Out-of-Order Simulator ***
Warmup Instructions: 25000000
Simulation Instructions: 100000000
Number of CPUs: 1
Page size: 4096

Off-chip DRAM Size: 4 GiB Channels: 1 Width: 64-bit Data Race: 3200 MT/s
Heartbeat CPU 0 instructions: 10000001 cycles: 2500084 heartbeat IPC: 4 cumulative IPC: 4 (Simulation time: 00 hr 00 min 22 sec)
Heartbeat CPU 0 instructions: 20000001 cycles: 5000084 heartbeat IPC: 4 cumulative IPC: 4 (Simulation time: 00 hr 00 min 45 sec)
Warmup finished CPU 0 instructions: 25000001 cycles: 6250127 cumulative IPC: 4 (Simulation time: 00 hr 00 min 56 sec)
Warmup complete CPU 0 instructions: 25000001 cycles: 6250127 cumulative IPC: 4 (Simulation time: 00 hr 00 min 56 sec)
Heartbeat CPU 0 instructions: 30000000 cycles: 14887432 heartbeat IPC: 1.011 cumulative IPC: 0.5789 (Simulation time: 00 hr 01 min 29 sec)
Heartbeat CPU 0 instructions: 40000003 cycles: 32013187 heartbeat IPC: 0.5839 cumulative IPC: 0.5822 (Simulation time: 00 hr 02 min 35 sec)
Heartbeat CPU 0 instructions: 50000003 cycles: 49124937 heartbeat IPC: 0.5844 cumulative IPC: 0.5831 (Simulation time: 00 hr 03 min 40 sec)
Heartbeat CPU 0 instructions: 60000000 cycles: 66161471 heartbeat IPC: 0.587 cumulative IPC: 0.5842 (Simulation time: 00 hr 04 min 46 sec)
*** Reached end of trace: (0, "../traces/secret_traces/srv/srv421.champsimtrace.xz")
Heartbeat CPU 0 instructions: 70000001 cycles: 83203954 heartbeat IPC: 0.5868 cumulative IPC: 0.5848 (Simulation time: 00 hr 05 min 51 sec)
Heartbeat CPU 0 instructions: 80000000 cycles: 100242066 heartbeat IPC: 0.5869 cumulative IPC: 0.5852 (Simulation time: 00 hr 06 min 57 sec)
Heartbeat CPU 0 instructions: 90000001 cycles: 117389318 heartbeat IPC: 0.5832 cumulative IPC: 0.5849 (Simulation time: 00 hr 08 min 03 sec)
Heartbeat CPU 0 instructions: 100000003 cycles: 134452813 heartbeat IPC: 0.586 cumulative IPC: 0.585 (Simulation time: 00 hr 09 min 08 sec)
Heartbeat CPU 0 instructions: 110000002 cycles: 151525385 heartbeat IPC: 0.5857 cumulative IPC: 0.5851 (Simulation time: 00 hr 10 min 14 sec)
Heartbeat CPU 0 instructions: 120000000 cycles: 168494932 heartbeat IPC: 0.5893 cumulative IPC: 0.5855 (Simulation time: 00 hr 11 min 19 sec)
Simulation finished CPU 0 instructions: 100000004 cycles: 170802544 cumulative IPC: 0.5855 (Simulation time: 00 hr 11 min 52 sec)
Simulation complete CPU 0 instructions: 100000004 cycles: 170802544 cumulative IPC: 0.5855 (Simulation time: 00 hr 11 min 52 sec)

ChampSim completed all CPUs

=== Simulation ===
CPU 0 runs ../traces/secret_traces/srv/srv421.champsimtrace.xz
Region of Interest Statistics

CPU 0 cumulative IPC: 0.5855 instructions: 100000004 cycles: 170802544
CPU 0 Branch Prediction Accuracy: 67.48% MPKI: 57.3 Average ROB Occupancy at Mispredict: 3.687
Branch type MPKI
BRANCH_DIRECT_JUMP: 1.08
BRANCH_INDIRECT: 38.4
BRANCH_CONDITIONAL: 10.8
BRANCH_DIRECT_CALL: 2.9
BRANCH_INDIRECT_CALL: 2.28
BRANCH_RETURN: 1.81

LLC TOTAL        ACCESS:    1279451 HIT:    1247990 MISS:      31461
LLC LOAD         ACCESS:     869358 HIT:     856010 MISS:      13348
LLC RFO          ACCESS:     156400 HIT:     138822 MISS:      17578
LLC PREFETCH     ACCESS:          0 HIT:          0 MISS:          0
LLC WRITE        ACCESS:     251122 HIT:     251033 MISS:         89
LLC TRANSLATION  ACCESS:       2571 HIT:       2125 MISS:        446
LLC PREFETCH REQUESTED:          0 ISSUED:          0 USEFUL:          0 USELESS:          0
LLC AVERAGE MISS LATENCY: 222.2 cycles
cpu0_DTLB TOTAL        ACCESS:   27560233 HIT:   26486400 MISS:    1073833
cpu0_DTLB LOAD         ACCESS:   27560233 HIT:   26486400 MISS:    1073833
cpu0_DTLB RFO          ACCESS:          0 HIT:          0 MISS:          0
cpu0_DTLB PREFETCH     ACCESS:          0 HIT:          0 MISS:          0
cpu0_DTLB WRITE        ACCESS:          0 HIT:          0 MISS:          0
cpu0_DTLB TRANSLATION  ACCESS:          0 HIT:          0 MISS:          0
cpu0_DTLB PREFETCH REQUESTED:          0 ISSUED:          0 USEFUL:          0 USELESS:          0
cpu0_DTLB AVERAGE MISS LATENCY: 6.773 cycles
cpu0_ITLB TOTAL        ACCESS:   10745217 HIT:    8829369 MISS:    1915848
cpu0_ITLB LOAD         ACCESS:   10745217 HIT:    8829369 MISS:    1915848
cpu0_ITLB RFO          ACCESS:          0 HIT:          0 MISS:          0
cpu0_ITLB PREFETCH     ACCESS:          0 HIT:          0 MISS:          0
cpu0_ITLB WRITE        ACCESS:          0 HIT:          0 MISS:          0
cpu0_ITLB TRANSLATION  ACCESS:          0 HIT:          0 MISS:          0
cpu0_ITLB PREFETCH REQUESTED:          0 ISSUED:          0 USEFUL:          0 USELESS:          0
cpu0_ITLB AVERAGE MISS LATENCY: 3.133 cycles
cpu0_L1D TOTAL        ACCESS:   34453624 HIT:   31089173 MISS:    3364451
cpu0_L1D LOAD         ACCESS:   21060159 HIT:   19299664 MISS:    1760495
cpu0_L1D RFO          ACCESS:          0 HIT:          0 MISS:          0
cpu0_L1D PREFETCH     ACCESS:          0 HIT:          0 MISS:          0
cpu0_L1D WRITE        ACCESS:   13389620 HIT:   11789341 MISS:    1600279
cpu0_L1D TRANSLATION  ACCESS:       3845 HIT:        168 MISS:       3677
cpu0_L1D PREFETCH REQUESTED:          0 ISSUED:          0 USEFUL:          0 USELESS:          0
cpu0_L1D AVERAGE MISS LATENCY: 10.35 cycles
cpu0_L1I TOTAL        ACCESS:   12057277 HIT:    5453237 MISS:    6604040
cpu0_L1I LOAD         ACCESS:   12057277 HIT:    5453237 MISS:    6604040
cpu0_L1I RFO          ACCESS:          0 HIT:          0 MISS:          0
cpu0_L1I PREFETCH     ACCESS:          0 HIT:          0 MISS:          0
cpu0_L1I WRITE        ACCESS:          0 HIT:          0 MISS:          0
cpu0_L1I TRANSLATION  ACCESS:          0 HIT:          0 MISS:          0
cpu0_L1I PREFETCH REQUESTED:          0 ISSUED:          0 USEFUL:          0 USELESS:          0
cpu0_L1I AVERAGE MISS LATENCY: 9.848 cycles
cpu0_L2C TOTAL        ACCESS:    8406163 HIT:    7352428 MISS:    1053735
cpu0_L2C LOAD         ACCESS:    6835111 HIT:    5965753 MISS:     869358
cpu0_L2C RFO          ACCESS:     566280 HIT:     409880 MISS:     156400
cpu0_L2C PREFETCH     ACCESS:          0 HIT:          0 MISS:          0
cpu0_L2C WRITE        ACCESS:    1001096 HIT:     975690 MISS:      25406
cpu0_L2C TRANSLATION  ACCESS:       3676 HIT:       1105 MISS:       2571
cpu0_L2C PREFETCH REQUESTED:          0 ISSUED:          0 USEFUL:          0 USELESS:          0
cpu0_L2C AVERAGE MISS LATENCY: 26.19 cycles
cpu0_STLB TOTAL        ACCESS:    1867842 HIT:    1864151 MISS:       3691
cpu0_STLB LOAD         ACCESS:    1867842 HIT:    1864151 MISS:       3691
cpu0_STLB RFO          ACCESS:          0 HIT:          0 MISS:          0
cpu0_STLB PREFETCH     ACCESS:          0 HIT:          0 MISS:          0
cpu0_STLB WRITE        ACCESS:          0 HIT:          0 MISS:          0
cpu0_STLB TRANSLATION  ACCESS:          0 HIT:          0 MISS:          0
cpu0_STLB PREFETCH REQUESTED:          0 ISSUED:          0 USEFUL:          0 USELESS:          0
cpu0_STLB AVERAGE MISS LATENCY: 76.98 cycles

DRAM Statistics

Channel 0 RQ ROW_BUFFER_HIT:      15754
  ROW_BUFFER_MISS:      15618
 AVG DBUS CONGESTED CYCLE: 3.952
WQ ROW_BUFFER_HIT: Channel 0 
  ROW_BUFFER_MISS:        980
  FULL:      10729
