WARNING: physical memory size is smaller than virtual memory size.

*** ChampSim Multicore Out-of-Order Simulator ***
Warmup Instructions: 25000000
Simulation Instructions: 100000000
Number of CPUs: 1
Page size: 4096

Off-chip DRAM Size: 4 GiB Channels: 1 Width: 64-bit Data Race: 3200 MT/s
Heartbeat CPU 0 instructions: 10000001 cycles: 2500096 heartbeat IPC: 4 cumulative IPC: 4 (Simulation time: 00 hr 00 min 23 sec)
Heartbeat CPU 0 instructions: 20000001 cycles: 5000096 heartbeat IPC: 4 cumulative IPC: 4 (Simulation time: 00 hr 00 min 46 sec)
Warmup finished CPU 0 instructions: 25000001 cycles: 6250097 cumulative IPC: 4 (Simulation time: 00 hr 00 min 57 sec)
Warmup complete CPU 0 instructions: 25000001 cycles: 6250097 cumulative IPC: 4 (Simulation time: 00 hr 00 min 57 sec)
Heartbeat CPU 0 instructions: 30000000 cycles: 14364678 heartbeat IPC: 1.068 cumulative IPC: 0.6162 (Simulation time: 00 hr 01 min 29 sec)
Heartbeat CPU 0 instructions: 40000003 cycles: 30591262 heartbeat IPC: 0.6163 cumulative IPC: 0.6162 (Simulation time: 00 hr 02 min 33 sec)
Heartbeat CPU 0 instructions: 50000000 cycles: 46763636 heartbeat IPC: 0.6183 cumulative IPC: 0.6171 (Simulation time: 00 hr 03 min 36 sec)
Heartbeat CPU 0 instructions: 60000002 cycles: 62970986 heartbeat IPC: 0.617 cumulative IPC: 0.6171 (Simulation time: 00 hr 04 min 40 sec)
Heartbeat CPU 0 instructions: 70000002 cycles: 79183334 heartbeat IPC: 0.6168 cumulative IPC: 0.617 (Simulation time: 00 hr 05 min 44 sec)
Heartbeat CPU 0 instructions: 80000003 cycles: 95433199 heartbeat IPC: 0.6154 cumulative IPC: 0.6167 (Simulation time: 00 hr 06 min 47 sec)
*** Reached end of trace: (0, "../traces/secret_traces/srv/srv411.champsimtrace.xz")
Heartbeat CPU 0 instructions: 90000000 cycles: 111589746 heartbeat IPC: 0.6189 cumulative IPC: 0.6171 (Simulation time: 00 hr 07 min 51 sec)
Heartbeat CPU 0 instructions: 100000003 cycles: 127732250 heartbeat IPC: 0.6195 cumulative IPC: 0.6174 (Simulation time: 00 hr 08 min 54 sec)
Heartbeat CPU 0 instructions: 110000000 cycles: 143856807 heartbeat IPC: 0.6202 cumulative IPC: 0.6177 (Simulation time: 00 hr 09 min 58 sec)
Heartbeat CPU 0 instructions: 120000001 cycles: 160001200 heartbeat IPC: 0.6194 cumulative IPC: 0.6179 (Simulation time: 00 hr 11 min 01 sec)
Simulation finished CPU 0 instructions: 100000002 cycles: 161812362 cumulative IPC: 0.618 (Simulation time: 00 hr 11 min 33 sec)
Simulation complete CPU 0 instructions: 100000002 cycles: 161812362 cumulative IPC: 0.618 (Simulation time: 00 hr 11 min 33 sec)

ChampSim completed all CPUs

=== Simulation ===
CPU 0 runs ../traces/secret_traces/srv/srv411.champsimtrace.xz
Region of Interest Statistics

CPU 0 cumulative IPC: 0.618 instructions: 100000002 cycles: 161812362
CPU 0 Branch Prediction Accuracy: 70.74% MPKI: 51.95 Average ROB Occupancy at Mispredict: 3.605
Branch type MPKI
BRANCH_DIRECT_JUMP: 0.536
BRANCH_INDIRECT: 36
BRANCH_CONDITIONAL: 10.1
BRANCH_DIRECT_CALL: 1.64
BRANCH_INDIRECT_CALL: 2.34
BRANCH_RETURN: 1.35

LLC TOTAL        ACCESS:     605888 HIT:     598113 MISS:       7775
LLC LOAD         ACCESS:     470245 HIT:     462534 MISS:       7711
LLC RFO          ACCESS:      51215 HIT:      51199 MISS:         16
LLC PREFETCH     ACCESS:          0 HIT:          0 MISS:          0
LLC WRITE        ACCESS:      83997 HIT:      83997 MISS:          0
LLC TRANSLATION  ACCESS:        431 HIT:        383 MISS:         48
LLC PREFETCH REQUESTED:          0 ISSUED:          0 USEFUL:          0 USELESS:          0
LLC AVERAGE MISS LATENCY: 196 cycles
cpu0_DTLB TOTAL        ACCESS:   27776888 HIT:   26651995 MISS:    1124893
cpu0_DTLB LOAD         ACCESS:   27776888 HIT:   26651995 MISS:    1124893
cpu0_DTLB RFO          ACCESS:          0 HIT:          0 MISS:          0
cpu0_DTLB PREFETCH     ACCESS:          0 HIT:          0 MISS:          0
cpu0_DTLB WRITE        ACCESS:          0 HIT:          0 MISS:          0
cpu0_DTLB TRANSLATION  ACCESS:          0 HIT:          0 MISS:          0
cpu0_DTLB PREFETCH REQUESTED:          0 ISSUED:          0 USEFUL:          0 USELESS:          0
cpu0_DTLB AVERAGE MISS LATENCY: 6.73 cycles
cpu0_ITLB TOTAL        ACCESS:   12010395 HIT:    9654820 MISS:    2355575
cpu0_ITLB LOAD         ACCESS:   12010395 HIT:    9654820 MISS:    2355575
cpu0_ITLB RFO          ACCESS:          0 HIT:          0 MISS:          0
cpu0_ITLB PREFETCH     ACCESS:          0 HIT:          0 MISS:          0
cpu0_ITLB WRITE        ACCESS:          0 HIT:          0 MISS:          0
cpu0_ITLB TRANSLATION  ACCESS:          0 HIT:          0 MISS:          0
cpu0_ITLB PREFETCH REQUESTED:          0 ISSUED:          0 USEFUL:          0 USELESS:          0
cpu0_ITLB AVERAGE MISS LATENCY: 2.958 cycles
cpu0_L1D TOTAL        ACCESS:   34779633 HIT:   31184010 MISS:    3595623
cpu0_L1D LOAD         ACCESS:   20804998 HIT:   18858882 MISS:    1946116
cpu0_L1D RFO          ACCESS:          0 HIT:          0 MISS:          0
cpu0_L1D PREFETCH     ACCESS:          0 HIT:          0 MISS:          0
cpu0_L1D WRITE        ACCESS:   13973887 HIT:   12325124 MISS:    1648763
cpu0_L1D TRANSLATION  ACCESS:        748 HIT:          4 MISS:        744
cpu0_L1D PREFETCH REQUESTED:          0 ISSUED:          0 USEFUL:          0 USELESS:          0
cpu0_L1D AVERAGE MISS LATENCY: 7.158 cycles
cpu0_L1I TOTAL        ACCESS:   13542520 HIT:    5841248 MISS:    7701272
cpu0_L1I LOAD         ACCESS:   13542520 HIT:    5841248 MISS:    7701272
cpu0_L1I RFO          ACCESS:          0 HIT:          0 MISS:          0
cpu0_L1I PREFETCH     ACCESS:          0 HIT:          0 MISS:          0
cpu0_L1I WRITE        ACCESS:          0 HIT:          0 MISS:          0
cpu0_L1I TRANSLATION  ACCESS:          0 HIT:          0 MISS:          0
cpu0_L1I PREFETCH REQUESTED:          0 ISSUED:          0 USEFUL:          0 USELESS:          0
cpu0_L1I AVERAGE MISS LATENCY: 8.62 cycles
cpu0_L2C TOTAL        ACCESS:    9442902 HIT:    8911168 MISS:     531734
cpu0_L2C LOAD         ACCESS:    7714625 HIT:    7244380 MISS:     470245
cpu0_L2C RFO          ACCESS:     581968 HIT:     530751 MISS:      51217
cpu0_L2C PREFETCH     ACCESS:          0 HIT:          0 MISS:          0
cpu0_L2C WRITE        ACCESS:    1145566 HIT:    1135725 MISS:       9841
cpu0_L2C TRANSLATION  ACCESS:        743 HIT:        312 MISS:        431
cpu0_L2C PREFETCH REQUESTED:          0 ISSUED:          0 USEFUL:          0 USELESS:          0
cpu0_L2C AVERAGE MISS LATENCY: 22.51 cycles
cpu0_STLB TOTAL        ACCESS:    2109063 HIT:    2108322 MISS:        741
cpu0_STLB LOAD         ACCESS:    2109063 HIT:    2108322 MISS:        741
cpu0_STLB RFO          ACCESS:          0 HIT:          0 MISS:          0
cpu0_STLB PREFETCH     ACCESS:          0 HIT:          0 MISS:          0
cpu0_STLB WRITE        ACCESS:          0 HIT:          0 MISS:          0
cpu0_STLB TRANSLATION  ACCESS:          0 HIT:          0 MISS:          0
cpu0_STLB PREFETCH REQUESTED:          0 ISSUED:          0 USEFUL:          0 USELESS:          0
cpu0_STLB AVERAGE MISS LATENCY: 52.93 cycles

DRAM Statistics

Channel 0 RQ ROW_BUFFER_HIT:       3519
  ROW_BUFFER_MISS:       4256
 AVG DBUS CONGESTED CYCLE: 3.95
WQ ROW_BUFFER_HIT: Channel 0 
  ROW_BUFFER_MISS:          0
  FULL:          0
