WARNING: physical memory size is smaller than virtual memory size.

*** ChampSim Multicore Out-of-Order Simulator ***
Warmup Instructions: 25000000
Simulation Instructions: 100000000
Number of CPUs: 1
Page size: 4096

Off-chip DRAM Size: 4 GiB Channels: 1 Width: 64-bit Data Race: 3200 MT/s
Heartbeat CPU 0 instructions: 10000000 cycles: 2500143 heartbeat IPC: 4 cumulative IPC: 4 (Simulation time: 00 hr 00 min 22 sec)
Heartbeat CPU 0 instructions: 20000000 cycles: 5000143 heartbeat IPC: 4 cumulative IPC: 4 (Simulation time: 00 hr 00 min 43 sec)
Warmup finished CPU 0 instructions: 25000000 cycles: 6250144 cumulative IPC: 4 (Simulation time: 00 hr 00 min 54 sec)
Warmup complete CPU 0 instructions: 25000000 cycles: 6250144 cumulative IPC: 4 (Simulation time: 00 hr 00 min 54 sec)
Heartbeat CPU 0 instructions: 30000001 cycles: 14073585 heartbeat IPC: 1.102 cumulative IPC: 0.6391 (Simulation time: 00 hr 01 min 25 sec)
Heartbeat CPU 0 instructions: 40000002 cycles: 29677751 heartbeat IPC: 0.6409 cumulative IPC: 0.6403 (Simulation time: 00 hr 02 min 27 sec)
Heartbeat CPU 0 instructions: 50000003 cycles: 45507025 heartbeat IPC: 0.6317 cumulative IPC: 0.6368 (Simulation time: 00 hr 03 min 29 sec)
Heartbeat CPU 0 instructions: 60000004 cycles: 60897299 heartbeat IPC: 0.6498 cumulative IPC: 0.6405 (Simulation time: 00 hr 04 min 29 sec)
Heartbeat CPU 0 instructions: 70000003 cycles: 76225528 heartbeat IPC: 0.6524 cumulative IPC: 0.6431 (Simulation time: 00 hr 05 min 30 sec)
Heartbeat CPU 0 instructions: 80000000 cycles: 91805490 heartbeat IPC: 0.6418 cumulative IPC: 0.6429 (Simulation time: 00 hr 06 min 31 sec)
Heartbeat CPU 0 instructions: 90000001 cycles: 107230289 heartbeat IPC: 0.6483 cumulative IPC: 0.6437 (Simulation time: 00 hr 07 min 31 sec)
Heartbeat CPU 0 instructions: 100000002 cycles: 122680103 heartbeat IPC: 0.6473 cumulative IPC: 0.6442 (Simulation time: 00 hr 08 min 32 sec)
*** Reached end of trace: (0, "../traces/secret_traces/srv/srv474.champsimtrace.xz")
Heartbeat CPU 0 instructions: 110000003 cycles: 138292591 heartbeat IPC: 0.6405 cumulative IPC: 0.6437 (Simulation time: 00 hr 09 min 34 sec)
Heartbeat CPU 0 instructions: 120000000 cycles: 154236446 heartbeat IPC: 0.6272 cumulative IPC: 0.642 (Simulation time: 00 hr 10 min 36 sec)
Simulation finished CPU 0 instructions: 100000000 cycles: 155914429 cumulative IPC: 0.6414 (Simulation time: 00 hr 11 min 07 sec)
Simulation complete CPU 0 instructions: 100000000 cycles: 155914429 cumulative IPC: 0.6414 (Simulation time: 00 hr 11 min 07 sec)

ChampSim completed all CPUs

=== Simulation ===
CPU 0 runs ../traces/secret_traces/srv/srv474.champsimtrace.xz
Region of Interest Statistics

CPU 0 cumulative IPC: 0.6414 instructions: 100000000 cycles: 155914429
CPU 0 Branch Prediction Accuracy: 70.72% MPKI: 51.66 Average ROB Occupancy at Mispredict: 4.393
Branch type MPKI
BRANCH_DIRECT_JUMP: 0.809
BRANCH_INDIRECT: 35
BRANCH_CONDITIONAL: 10.1
BRANCH_DIRECT_CALL: 2.22
BRANCH_INDIRECT_CALL: 2.13
BRANCH_RETURN: 1.38

LLC TOTAL        ACCESS:    1053823 HIT:     992132 MISS:      61691
LLC LOAD         ACCESS:     709919 HIT:     687267 MISS:      22652
LLC RFO          ACCESS:     142366 HIT:     104693 MISS:      37673
LLC PREFETCH     ACCESS:          0 HIT:          0 MISS:          0
LLC WRITE        ACCESS:     197851 HIT:     197617 MISS:        234
LLC TRANSLATION  ACCESS:       3687 HIT:       2555 MISS:       1132
LLC PREFETCH REQUESTED:          0 ISSUED:          0 USEFUL:          0 USELESS:          0
LLC AVERAGE MISS LATENCY: 287.2 cycles
cpu0_DTLB TOTAL        ACCESS:   27089927 HIT:   25999114 MISS:    1090813
cpu0_DTLB LOAD         ACCESS:   27089927 HIT:   25999114 MISS:    1090813
cpu0_DTLB RFO          ACCESS:          0 HIT:          0 MISS:          0
cpu0_DTLB PREFETCH     ACCESS:          0 HIT:          0 MISS:          0
cpu0_DTLB WRITE        ACCESS:          0 HIT:          0 MISS:          0
cpu0_DTLB TRANSLATION  ACCESS:          0 HIT:          0 MISS:          0
cpu0_DTLB PREFETCH REQUESTED:          0 ISSUED:          0 USEFUL:          0 USELESS:          0
cpu0_DTLB AVERAGE MISS LATENCY: 6.569 cycles
cpu0_ITLB TOTAL        ACCESS:   10004377 HIT:    8263996 MISS:    1740381
cpu0_ITLB LOAD         ACCESS:   10004377 HIT:    8263996 MISS:    1740381
cpu0_ITLB RFO          ACCESS:          0 HIT:          0 MISS:          0
cpu0_ITLB PREFETCH     ACCESS:          0 HIT:          0 MISS:          0
cpu0_ITLB WRITE        ACCESS:          0 HIT:          0 MISS:          0
cpu0_ITLB TRANSLATION  ACCESS:          0 HIT:          0 MISS:          0
cpu0_ITLB PREFETCH REQUESTED:          0 ISSUED:          0 USEFUL:          0 USELESS:          0
cpu0_ITLB AVERAGE MISS LATENCY: 3.135 cycles
cpu0_L1D TOTAL        ACCESS:   33959925 HIT:   30782584 MISS:    3177341
cpu0_L1D LOAD         ACCESS:   20815324 HIT:   19157716 MISS:    1657608
cpu0_L1D RFO          ACCESS:          0 HIT:          0 MISS:          0
cpu0_L1D PREFETCH     ACCESS:          0 HIT:          0 MISS:          0
cpu0_L1D WRITE        ACCESS:   13139540 HIT:   11624572 MISS:    1514968
cpu0_L1D TRANSLATION  ACCESS:       5061 HIT:        296 MISS:       4765
cpu0_L1D PREFETCH REQUESTED:          0 ISSUED:          0 USEFUL:          0 USELESS:          0
cpu0_L1D AVERAGE MISS LATENCY: 13.67 cycles
cpu0_L1I TOTAL        ACCESS:   11225186 HIT:    5170131 MISS:    6055055
cpu0_L1I LOAD         ACCESS:   11225186 HIT:    5170131 MISS:    6055055
cpu0_L1I RFO          ACCESS:          0 HIT:          0 MISS:          0
cpu0_L1I PREFETCH     ACCESS:          0 HIT:          0 MISS:          0
cpu0_L1I WRITE        ACCESS:          0 HIT:          0 MISS:          0
cpu0_L1I TRANSLATION  ACCESS:          0 HIT:          0 MISS:          0
cpu0_L1I PREFETCH REQUESTED:          0 ISSUED:          0 USEFUL:          0 USELESS:          0
cpu0_L1I AVERAGE MISS LATENCY: 9.468 cycles
cpu0_L2C TOTAL        ACCESS:    7693855 HIT:    6828022 MISS:     865833
cpu0_L2C LOAD         ACCESS:    6235179 HIT:    5525260 MISS:     709919
cpu0_L2C RFO          ACCESS:     542344 HIT:     399978 MISS:     142366
cpu0_L2C PREFETCH     ACCESS:          0 HIT:          0 MISS:          0
cpu0_L2C WRITE        ACCESS:     911571 HIT:     901710 MISS:       9861
cpu0_L2C TRANSLATION  ACCESS:       4761 HIT:       1074 MISS:       3687
cpu0_L2C PREFETCH REQUESTED:          0 ISSUED:          0 USEFUL:          0 USELESS:          0
cpu0_L2C AVERAGE MISS LATENCY: 40.32 cycles
cpu0_STLB TOTAL        ACCESS:    1755512 HIT:    1750809 MISS:       4703
cpu0_STLB LOAD         ACCESS:    1755512 HIT:    1750809 MISS:       4703
cpu0_STLB RFO          ACCESS:          0 HIT:          0 MISS:          0
cpu0_STLB PREFETCH     ACCESS:          0 HIT:          0 MISS:          0
cpu0_STLB WRITE        ACCESS:          0 HIT:          0 MISS:          0
cpu0_STLB TRANSLATION  ACCESS:          0 HIT:          0 MISS:          0
cpu0_STLB PREFETCH REQUESTED:          0 ISSUED:          0 USEFUL:          0 USELESS:          0
cpu0_STLB AVERAGE MISS LATENCY: 117 cycles

DRAM Statistics

Channel 0 RQ ROW_BUFFER_HIT:      29548
  ROW_BUFFER_MISS:      31908
 AVG DBUS CONGESTED CYCLE: 3.975
WQ ROW_BUFFER_HIT: Channel 0 
  ROW_BUFFER_MISS:       2702
  FULL:      30787
