WARNING: physical memory size is smaller than virtual memory size.

*** ChampSim Multicore Out-of-Order Simulator ***
Warmup Instructions: 25000000
Simulation Instructions: 100000000
Number of CPUs: 1
Page size: 4096

Off-chip DRAM Size: 4 GiB Channels: 1 Width: 64-bit Data Race: 3200 MT/s
Heartbeat CPU 0 instructions: 10000000 cycles: 2500127 heartbeat IPC: 4 cumulative IPC: 4 (Simulation time: 00 hr 00 min 22 sec)
Heartbeat CPU 0 instructions: 20000000 cycles: 5000127 heartbeat IPC: 4 cumulative IPC: 4 (Simulation time: 00 hr 00 min 44 sec)
Warmup finished CPU 0 instructions: 25000000 cycles: 6250128 cumulative IPC: 4 (Simulation time: 00 hr 00 min 55 sec)
Warmup complete CPU 0 instructions: 25000000 cycles: 6250128 cumulative IPC: 4 (Simulation time: 00 hr 00 min 55 sec)
Heartbeat CPU 0 instructions: 30000003 cycles: 14197165 heartbeat IPC: 1.087 cumulative IPC: 0.6292 (Simulation time: 00 hr 01 min 27 sec)
Heartbeat CPU 0 instructions: 40000000 cycles: 30295371 heartbeat IPC: 0.6212 cumulative IPC: 0.6238 (Simulation time: 00 hr 02 min 30 sec)
Heartbeat CPU 0 instructions: 50000001 cycles: 46277023 heartbeat IPC: 0.6257 cumulative IPC: 0.6246 (Simulation time: 00 hr 03 min 32 sec)
Heartbeat CPU 0 instructions: 60000004 cycles: 62193351 heartbeat IPC: 0.6283 cumulative IPC: 0.6256 (Simulation time: 00 hr 04 min 35 sec)
Heartbeat CPU 0 instructions: 70000000 cycles: 78351530 heartbeat IPC: 0.6189 cumulative IPC: 0.6241 (Simulation time: 00 hr 05 min 38 sec)
Heartbeat CPU 0 instructions: 80000004 cycles: 94233225 heartbeat IPC: 0.6297 cumulative IPC: 0.6251 (Simulation time: 00 hr 06 min 40 sec)
*** Reached end of trace: (0, "../traces/secret_traces/srv/srv409.champsimtrace.xz")
Heartbeat CPU 0 instructions: 90000000 cycles: 110234350 heartbeat IPC: 0.625 cumulative IPC: 0.6251 (Simulation time: 00 hr 07 min 43 sec)
Heartbeat CPU 0 instructions: 100000000 cycles: 126218463 heartbeat IPC: 0.6256 cumulative IPC: 0.6252 (Simulation time: 00 hr 08 min 46 sec)
Heartbeat CPU 0 instructions: 110000000 cycles: 142394142 heartbeat IPC: 0.6182 cumulative IPC: 0.6243 (Simulation time: 00 hr 09 min 49 sec)
Heartbeat CPU 0 instructions: 120000002 cycles: 158280647 heartbeat IPC: 0.6295 cumulative IPC: 0.6249 (Simulation time: 00 hr 10 min 51 sec)
Simulation finished CPU 0 instructions: 100000000 cycles: 160147897 cumulative IPC: 0.6244 (Simulation time: 00 hr 11 min 23 sec)
Simulation complete CPU 0 instructions: 100000000 cycles: 160147897 cumulative IPC: 0.6244 (Simulation time: 00 hr 11 min 23 sec)

ChampSim completed all CPUs

=== Simulation ===
CPU 0 runs ../traces/secret_traces/srv/srv409.champsimtrace.xz
Region of Interest Statistics

CPU 0 cumulative IPC: 0.6244 instructions: 100000000 cycles: 160147897
CPU 0 Branch Prediction Accuracy: 72.03% MPKI: 50.27 Average ROB Occupancy at Mispredict: 3.865
Branch type MPKI
BRANCH_DIRECT_JUMP: 0.599
BRANCH_INDIRECT: 34.8
BRANCH_CONDITIONAL: 9.6
BRANCH_DIRECT_CALL: 1.76
BRANCH_INDIRECT_CALL: 2.17
BRANCH_RETURN: 1.33

LLC TOTAL        ACCESS:     865109 HIT:     844222 MISS:      20887
LLC LOAD         ACCESS:     668128 HIT:     652237 MISS:      15891
LLC RFO          ACCESS:      68367 HIT:      64208 MISS:       4159
LLC PREFETCH     ACCESS:          0 HIT:          0 MISS:          0
LLC WRITE        ACCESS:     122924 HIT:     122755 MISS:        169
LLC TRANSLATION  ACCESS:       5690 HIT:       5022 MISS:        668
LLC PREFETCH REQUESTED:          0 ISSUED:          0 USEFUL:          0 USELESS:          0
LLC AVERAGE MISS LATENCY: 198.3 cycles
cpu0_DTLB TOTAL        ACCESS:   26863996 HIT:   25679160 MISS:    1184836
cpu0_DTLB LOAD         ACCESS:   26863996 HIT:   25679160 MISS:    1184836
cpu0_DTLB RFO          ACCESS:          0 HIT:          0 MISS:          0
cpu0_DTLB PREFETCH     ACCESS:          0 HIT:          0 MISS:          0
cpu0_DTLB WRITE        ACCESS:          0 HIT:          0 MISS:          0
cpu0_DTLB TRANSLATION  ACCESS:          0 HIT:          0 MISS:          0
cpu0_DTLB PREFETCH REQUESTED:          0 ISSUED:          0 USEFUL:          0 USELESS:          0
cpu0_DTLB AVERAGE MISS LATENCY: 6.639 cycles
cpu0_ITLB TOTAL        ACCESS:   11312431 HIT:    9105040 MISS:    2207391
cpu0_ITLB LOAD         ACCESS:   11312431 HIT:    9105040 MISS:    2207391
cpu0_ITLB RFO          ACCESS:          0 HIT:          0 MISS:          0
cpu0_ITLB PREFETCH     ACCESS:          0 HIT:          0 MISS:          0
cpu0_ITLB WRITE        ACCESS:          0 HIT:          0 MISS:          0
cpu0_ITLB TRANSLATION  ACCESS:          0 HIT:          0 MISS:          0
cpu0_ITLB PREFETCH REQUESTED:          0 ISSUED:          0 USEFUL:          0 USELESS:          0
cpu0_ITLB AVERAGE MISS LATENCY: 3.012 cycles
cpu0_L1D TOTAL        ACCESS:   33727518 HIT:   29483786 MISS:    4243732
cpu0_L1D LOAD         ACCESS:   20424218 HIT:   17897984 MISS:    2526234
cpu0_L1D RFO          ACCESS:          0 HIT:          0 MISS:          0
cpu0_L1D PREFETCH     ACCESS:          0 HIT:          0 MISS:          0
cpu0_L1D WRITE        ACCESS:   13288496 HIT:   11585705 MISS:    1702791
cpu0_L1D TRANSLATION  ACCESS:      14804 HIT:         97 MISS:      14707
cpu0_L1D PREFETCH REQUESTED:          0 ISSUED:          0 USEFUL:          0 USELESS:          0
cpu0_L1D AVERAGE MISS LATENCY: 8.756 cycles
cpu0_L1I TOTAL        ACCESS:   12752520 HIT:    5521484 MISS:    7231036
cpu0_L1I LOAD         ACCESS:   12752520 HIT:    5521484 MISS:    7231036
cpu0_L1I RFO          ACCESS:          0 HIT:          0 MISS:          0
cpu0_L1I PREFETCH     ACCESS:          0 HIT:          0 MISS:          0
cpu0_L1I WRITE        ACCESS:          0 HIT:          0 MISS:          0
cpu0_L1I TRANSLATION  ACCESS:          0 HIT:          0 MISS:          0
cpu0_L1I PREFETCH REQUESTED:          0 ISSUED:          0 USEFUL:          0 USELESS:          0
cpu0_L1I AVERAGE MISS LATENCY: 9.008 cycles
cpu0_L2C TOTAL        ACCESS:    9687397 HIT:    8932591 MISS:     754806
cpu0_L2C LOAD         ACCESS:    7903005 HIT:    7234878 MISS:     668127
cpu0_L2C RFO          ACCESS:     604570 HIT:     536202 MISS:      68368
cpu0_L2C PREFETCH     ACCESS:          0 HIT:          0 MISS:          0
cpu0_L2C WRITE        ACCESS:    1165115 HIT:    1152494 MISS:      12621
cpu0_L2C TRANSLATION  ACCESS:      14707 HIT:       9017 MISS:       5690
cpu0_L2C PREFETCH REQUESTED:          0 ISSUED:          0 USEFUL:          0 USELESS:          0
cpu0_L2C AVERAGE MISS LATENCY: 25.18 cycles
cpu0_STLB TOTAL        ACCESS:    2040872 HIT:    2026336 MISS:      14536
cpu0_STLB LOAD         ACCESS:    2040872 HIT:    2026336 MISS:      14536
cpu0_STLB RFO          ACCESS:          0 HIT:          0 MISS:          0
cpu0_STLB PREFETCH     ACCESS:          0 HIT:          0 MISS:          0
cpu0_STLB WRITE        ACCESS:          0 HIT:          0 MISS:          0
cpu0_STLB TRANSLATION  ACCESS:          0 HIT:          0 MISS:          0
cpu0_STLB PREFETCH REQUESTED:          0 ISSUED:          0 USEFUL:          0 USELESS:          0
cpu0_STLB AVERAGE MISS LATENCY: 38.82 cycles

DRAM Statistics

Channel 0 RQ ROW_BUFFER_HIT:       9847
  ROW_BUFFER_MISS:      10868
 AVG DBUS CONGESTED CYCLE: 3.938
WQ ROW_BUFFER_HIT: Channel 0 
  ROW_BUFFER_MISS:        402
  FULL:       2417
