WARNING: physical memory size is smaller than virtual memory size.

*** ChampSim Multicore Out-of-Order Simulator ***
Warmup Instructions: 25000000
Simulation Instructions: 100000000
Number of CPUs: 1
Page size: 4096

Off-chip DRAM Size: 4 GiB Channels: 1 Width: 64-bit Data Race: 3200 MT/s
Heartbeat CPU 0 instructions: 10000003 cycles: 2500089 heartbeat IPC: 4 cumulative IPC: 4 (Simulation time: 00 hr 00 min 22 sec)
Heartbeat CPU 0 instructions: 20000000 cycles: 5000117 heartbeat IPC: 4 cumulative IPC: 4 (Simulation time: 00 hr 00 min 44 sec)
Warmup finished CPU 0 instructions: 25000000 cycles: 6250118 cumulative IPC: 4 (Simulation time: 00 hr 00 min 56 sec)
Warmup complete CPU 0 instructions: 25000000 cycles: 6250118 cumulative IPC: 4 (Simulation time: 00 hr 00 min 56 sec)
Heartbeat CPU 0 instructions: 30000002 cycles: 14820511 heartbeat IPC: 1.018 cumulative IPC: 0.5834 (Simulation time: 00 hr 01 min 28 sec)
Heartbeat CPU 0 instructions: 40000001 cycles: 31921369 heartbeat IPC: 0.5848 cumulative IPC: 0.5843 (Simulation time: 00 hr 02 min 34 sec)
Heartbeat CPU 0 instructions: 50000000 cycles: 49029180 heartbeat IPC: 0.5845 cumulative IPC: 0.5844 (Simulation time: 00 hr 03 min 40 sec)
Heartbeat CPU 0 instructions: 60000000 cycles: 66242644 heartbeat IPC: 0.5809 cumulative IPC: 0.5834 (Simulation time: 00 hr 04 min 46 sec)
Heartbeat CPU 0 instructions: 70000000 cycles: 83612202 heartbeat IPC: 0.5757 cumulative IPC: 0.5817 (Simulation time: 00 hr 05 min 52 sec)
Heartbeat CPU 0 instructions: 80000000 cycles: 100724816 heartbeat IPC: 0.5844 cumulative IPC: 0.5822 (Simulation time: 00 hr 06 min 58 sec)
Heartbeat CPU 0 instructions: 90000000 cycles: 117996955 heartbeat IPC: 0.579 cumulative IPC: 0.5817 (Simulation time: 00 hr 08 min 04 sec)
Heartbeat CPU 0 instructions: 100000000 cycles: 135016230 heartbeat IPC: 0.5876 cumulative IPC: 0.5825 (Simulation time: 00 hr 09 min 09 sec)
*** Reached end of trace: (0, "../traces/secret_traces/srv/srv559.champsimtrace.xz")
Heartbeat CPU 0 instructions: 110000000 cycles: 152085351 heartbeat IPC: 0.5859 cumulative IPC: 0.5828 (Simulation time: 00 hr 10 min 15 sec)
Heartbeat CPU 0 instructions: 120000001 cycles: 169343772 heartbeat IPC: 0.5794 cumulative IPC: 0.5825 (Simulation time: 00 hr 11 min 21 sec)
Simulation finished CPU 0 instructions: 100000004 cycles: 171726830 cumulative IPC: 0.5823 (Simulation time: 00 hr 11 min 54 sec)
Simulation complete CPU 0 instructions: 100000004 cycles: 171726830 cumulative IPC: 0.5823 (Simulation time: 00 hr 11 min 54 sec)

ChampSim completed all CPUs

=== Simulation ===
CPU 0 runs ../traces/secret_traces/srv/srv559.champsimtrace.xz
Region of Interest Statistics

CPU 0 cumulative IPC: 0.5823 instructions: 100000004 cycles: 171726830
CPU 0 Branch Prediction Accuracy: 67.22% MPKI: 57.64 Average ROB Occupancy at Mispredict: 3.692
Branch type MPKI
BRANCH_DIRECT_JUMP: 1.11
BRANCH_INDIRECT: 38.6
BRANCH_CONDITIONAL: 10.9
BRANCH_DIRECT_CALL: 2.94
BRANCH_INDIRECT_CALL: 2.28
BRANCH_RETURN: 1.84

LLC TOTAL        ACCESS:    1236733 HIT:    1190436 MISS:      46297
LLC LOAD         ACCESS:     847098 HIT:     828800 MISS:      18298
LLC RFO          ACCESS:     152341 HIT:     125247 MISS:      27094
LLC PREFETCH     ACCESS:          0 HIT:          0 MISS:          0
LLC WRITE        ACCESS:     234017 HIT:     233865 MISS:        152
LLC TRANSLATION  ACCESS:       3277 HIT:       2524 MISS:        753
LLC PREFETCH REQUESTED:          0 ISSUED:          0 USEFUL:          0 USELESS:          0
LLC AVERAGE MISS LATENCY: 260 cycles
cpu0_DTLB TOTAL        ACCESS:   27651158 HIT:   26581264 MISS:    1069894
cpu0_DTLB LOAD         ACCESS:   27651158 HIT:   26581264 MISS:    1069894
cpu0_DTLB RFO          ACCESS:          0 HIT:          0 MISS:          0
cpu0_DTLB PREFETCH     ACCESS:          0 HIT:          0 MISS:          0
cpu0_DTLB WRITE        ACCESS:          0 HIT:          0 MISS:          0
cpu0_DTLB TRANSLATION  ACCESS:          0 HIT:          0 MISS:          0
cpu0_DTLB PREFETCH REQUESTED:          0 ISSUED:          0 USEFUL:          0 USELESS:          0
cpu0_DTLB AVERAGE MISS LATENCY: 6.87 cycles
cpu0_ITLB TOTAL        ACCESS:   10747531 HIT:    8829301 MISS:    1918230
cpu0_ITLB LOAD         ACCESS:   10747531 HIT:    8829301 MISS:    1918230
cpu0_ITLB RFO          ACCESS:          0 HIT:          0 MISS:          0
cpu0_ITLB PREFETCH     ACCESS:          0 HIT:          0 MISS:          0
cpu0_ITLB WRITE        ACCESS:          0 HIT:          0 MISS:          0
cpu0_ITLB TRANSLATION  ACCESS:          0 HIT:          0 MISS:          0
cpu0_ITLB PREFETCH REQUESTED:          0 ISSUED:          0 USEFUL:          0 USELESS:          0
cpu0_ITLB AVERAGE MISS LATENCY: 3.153 cycles
cpu0_L1D TOTAL        ACCESS:   34560272 HIT:   31293639 MISS:    3266633
cpu0_L1D LOAD         ACCESS:   21099215 HIT:   19427832 MISS:    1671383
cpu0_L1D RFO          ACCESS:          0 HIT:          0 MISS:          0
cpu0_L1D PREFETCH     ACCESS:          0 HIT:          0 MISS:          0
cpu0_L1D WRITE        ACCESS:   13456435 HIT:   11865548 MISS:    1590887
cpu0_L1D TRANSLATION  ACCESS:       4622 HIT:        259 MISS:       4363
cpu0_L1D PREFETCH REQUESTED:          0 ISSUED:          0 USEFUL:          0 USELESS:          0
cpu0_L1D AVERAGE MISS LATENCY: 11.77 cycles
cpu0_L1I TOTAL        ACCESS:   12057137 HIT:    5459744 MISS:    6597393
cpu0_L1I LOAD         ACCESS:   12057137 HIT:    5459744 MISS:    6597393
cpu0_L1I RFO          ACCESS:          0 HIT:          0 MISS:          0
cpu0_L1I PREFETCH     ACCESS:          0 HIT:          0 MISS:          0
cpu0_L1I WRITE        ACCESS:          0 HIT:          0 MISS:          0
cpu0_L1I TRANSLATION  ACCESS:          0 HIT:          0 MISS:          0
cpu0_L1I PREFETCH REQUESTED:          0 ISSUED:          0 USEFUL:          0 USELESS:          0
cpu0_L1I AVERAGE MISS LATENCY: 9.814 cycles
cpu0_L2C TOTAL        ACCESS:    8297484 HIT:    7273546 MISS:    1023938
cpu0_L2C LOAD         ACCESS:    6745682 HIT:    5898584 MISS:     847098
cpu0_L2C RFO          ACCESS:     560683 HIT:     408341 MISS:     152342
cpu0_L2C PREFETCH     ACCESS:          0 HIT:          0 MISS:          0
cpu0_L2C WRITE        ACCESS:     986761 HIT:     965540 MISS:      21221
cpu0_L2C TRANSLATION  ACCESS:       4358 HIT:       1081 MISS:       3277
cpu0_L2C PREFETCH REQUESTED:          0 ISSUED:          0 USEFUL:          0 USELESS:          0
cpu0_L2C AVERAGE MISS LATENCY: 31.39 cycles
cpu0_STLB TOTAL        ACCESS:    1862283 HIT:    1857843 MISS:       4440
cpu0_STLB LOAD         ACCESS:    1862283 HIT:    1857843 MISS:       4440
cpu0_STLB RFO          ACCESS:          0 HIT:          0 MISS:          0
cpu0_STLB PREFETCH     ACCESS:          0 HIT:          0 MISS:          0
cpu0_STLB WRITE        ACCESS:          0 HIT:          0 MISS:          0
cpu0_STLB TRANSLATION  ACCESS:          0 HIT:          0 MISS:          0
cpu0_STLB PREFETCH REQUESTED:          0 ISSUED:          0 USEFUL:          0 USELESS:          0
cpu0_STLB AVERAGE MISS LATENCY: 103.1 cycles

DRAM Statistics

Channel 0 RQ ROW_BUFFER_HIT:      23375
  ROW_BUFFER_MISS:      22770
 AVG DBUS CONGESTED CYCLE: 3.97
WQ ROW_BUFFER_HIT: Channel 0 
  ROW_BUFFER_MISS:       1798
  FULL:      18779
