WARNING: physical memory size is smaller than virtual memory size.

*** ChampSim Multicore Out-of-Order Simulator ***
Warmup Instructions: 25000000
Simulation Instructions: 100000000
Number of CPUs: 1
Page size: 4096

Off-chip DRAM Size: 4 GiB Channels: 1 Width: 64-bit Data Race: 3200 MT/s
Heartbeat CPU 0 instructions: 10000001 cycles: 2500174 heartbeat IPC: 4 cumulative IPC: 4 (Simulation time: 00 hr 00 min 22 sec)
Heartbeat CPU 0 instructions: 20000001 cycles: 5000174 heartbeat IPC: 4 cumulative IPC: 4 (Simulation time: 00 hr 00 min 44 sec)
Warmup finished CPU 0 instructions: 25000001 cycles: 6250188 cumulative IPC: 4 (Simulation time: 00 hr 00 min 55 sec)
Warmup complete CPU 0 instructions: 25000001 cycles: 6250188 cumulative IPC: 4 (Simulation time: 00 hr 00 min 55 sec)
Heartbeat CPU 0 instructions: 30000004 cycles: 14768992 heartbeat IPC: 1.024 cumulative IPC: 0.5869 (Simulation time: 00 hr 01 min 28 sec)
Heartbeat CPU 0 instructions: 40000003 cycles: 31775032 heartbeat IPC: 0.588 cumulative IPC: 0.5877 (Simulation time: 00 hr 02 min 33 sec)
Heartbeat CPU 0 instructions: 50000001 cycles: 48873613 heartbeat IPC: 0.5848 cumulative IPC: 0.5865 (Simulation time: 00 hr 03 min 39 sec)
Heartbeat CPU 0 instructions: 60000003 cycles: 65811537 heartbeat IPC: 0.5904 cumulative IPC: 0.5876 (Simulation time: 00 hr 04 min 44 sec)
Heartbeat CPU 0 instructions: 70000000 cycles: 82866188 heartbeat IPC: 0.5864 cumulative IPC: 0.5873 (Simulation time: 00 hr 05 min 49 sec)
Heartbeat CPU 0 instructions: 80000000 cycles: 99833835 heartbeat IPC: 0.5894 cumulative IPC: 0.5877 (Simulation time: 00 hr 06 min 54 sec)
Heartbeat CPU 0 instructions: 90000000 cycles: 116866139 heartbeat IPC: 0.5871 cumulative IPC: 0.5876 (Simulation time: 00 hr 08 min 00 sec)
Heartbeat CPU 0 instructions: 100000001 cycles: 133972145 heartbeat IPC: 0.5846 cumulative IPC: 0.5872 (Simulation time: 00 hr 09 min 05 sec)
*** Reached end of trace: (0, "../traces/secret_traces/srv/srv595.champsimtrace.xz")
Heartbeat CPU 0 instructions: 110000001 cycles: 150156157 heartbeat IPC: 0.6179 cumulative IPC: 0.5907 (Simulation time: 00 hr 10 min 08 sec)
Heartbeat CPU 0 instructions: 120000000 cycles: 167139988 heartbeat IPC: 0.5888 cumulative IPC: 0.5905 (Simulation time: 00 hr 11 min 13 sec)
Simulation finished CPU 0 instructions: 100000000 cycles: 169395536 cumulative IPC: 0.5903 (Simulation time: 00 hr 11 min 46 sec)
Simulation complete CPU 0 instructions: 100000000 cycles: 169395536 cumulative IPC: 0.5903 (Simulation time: 00 hr 11 min 46 sec)

ChampSim completed all CPUs

=== Simulation ===
CPU 0 runs ../traces/secret_traces/srv/srv595.champsimtrace.xz
Region of Interest Statistics

CPU 0 cumulative IPC: 0.5903 instructions: 100000000 cycles: 169395536
CPU 0 Branch Prediction Accuracy: 67.56% MPKI: 57.12 Average ROB Occupancy at Mispredict: 3.734
Branch type MPKI
BRANCH_DIRECT_JUMP: 1.08
BRANCH_INDIRECT: 38.3
BRANCH_CONDITIONAL: 10.8
BRANCH_DIRECT_CALL: 2.91
BRANCH_INDIRECT_CALL: 2.26
BRANCH_RETURN: 1.81

LLC TOTAL        ACCESS:    1124379 HIT:    1079020 MISS:      45359
LLC LOAD         ACCESS:     767026 HIT:     748261 MISS:      18765
LLC RFO          ACCESS:     142841 HIT:     117030 MISS:      25811
LLC PREFETCH     ACCESS:          0 HIT:          0 MISS:          0
LLC WRITE        ACCESS:     211203 HIT:     211007 MISS:        196
LLC TRANSLATION  ACCESS:       3309 HIT:       2722 MISS:        587
LLC PREFETCH REQUESTED:          0 ISSUED:          0 USEFUL:          0 USELESS:          0
LLC AVERAGE MISS LATENCY: 291.4 cycles
cpu0_DTLB TOTAL        ACCESS:   27578999 HIT:   26524894 MISS:    1054105
cpu0_DTLB LOAD         ACCESS:   27578999 HIT:   26524894 MISS:    1054105
cpu0_DTLB RFO          ACCESS:          0 HIT:          0 MISS:          0
cpu0_DTLB PREFETCH     ACCESS:          0 HIT:          0 MISS:          0
cpu0_DTLB WRITE        ACCESS:          0 HIT:          0 MISS:          0
cpu0_DTLB TRANSLATION  ACCESS:          0 HIT:          0 MISS:          0
cpu0_DTLB PREFETCH REQUESTED:          0 ISSUED:          0 USEFUL:          0 USELESS:          0
cpu0_DTLB AVERAGE MISS LATENCY: 6.842 cycles
cpu0_ITLB TOTAL        ACCESS:   10663219 HIT:    8759927 MISS:    1903292
cpu0_ITLB LOAD         ACCESS:   10663219 HIT:    8759927 MISS:    1903292
cpu0_ITLB RFO          ACCESS:          0 HIT:          0 MISS:          0
cpu0_ITLB PREFETCH     ACCESS:          0 HIT:          0 MISS:          0
cpu0_ITLB WRITE        ACCESS:          0 HIT:          0 MISS:          0
cpu0_ITLB TRANSLATION  ACCESS:          0 HIT:          0 MISS:          0
cpu0_ITLB PREFETCH REQUESTED:          0 ISSUED:          0 USEFUL:          0 USELESS:          0
cpu0_ITLB AVERAGE MISS LATENCY: 3.145 cycles
cpu0_L1D TOTAL        ACCESS:   34491142 HIT:   31229882 MISS:    3261260
cpu0_L1D LOAD         ACCESS:   21052050 HIT:   19368687 MISS:    1683363
cpu0_L1D RFO          ACCESS:          0 HIT:          0 MISS:          0
cpu0_L1D PREFETCH     ACCESS:          0 HIT:          0 MISS:          0
cpu0_L1D WRITE        ACCESS:   13434848 HIT:   11860968 MISS:    1573880
cpu0_L1D TRANSLATION  ACCESS:       4244 HIT:        227 MISS:       4017
cpu0_L1D PREFETCH REQUESTED:          0 ISSUED:          0 USEFUL:          0 USELESS:          0
cpu0_L1D AVERAGE MISS LATENCY: 12.04 cycles
cpu0_L1I TOTAL        ACCESS:   11965082 HIT:    5417778 MISS:    6547304
cpu0_L1I LOAD         ACCESS:   11965082 HIT:    5417778 MISS:    6547304
cpu0_L1I RFO          ACCESS:          0 HIT:          0 MISS:          0
cpu0_L1I PREFETCH     ACCESS:          0 HIT:          0 MISS:          0
cpu0_L1I WRITE        ACCESS:          0 HIT:          0 MISS:          0
cpu0_L1I TRANSLATION  ACCESS:          0 HIT:          0 MISS:          0
cpu0_L1I PREFETCH REQUESTED:          0 ISSUED:          0 USEFUL:          0 USELESS:          0
cpu0_L1I AVERAGE MISS LATENCY: 9.623 cycles
cpu0_L2C TOTAL        ACCESS:    8258576 HIT:    7334133 MISS:     924443
cpu0_L2C LOAD         ACCESS:    6719770 HIT:    5952744 MISS:     767026
cpu0_L2C RFO          ACCESS:     554475 HIT:     411634 MISS:     142841
cpu0_L2C PREFETCH     ACCESS:          0 HIT:          0 MISS:          0
cpu0_L2C WRITE        ACCESS:     980315 HIT:     969048 MISS:      11267
cpu0_L2C TRANSLATION  ACCESS:       4016 HIT:        707 MISS:       3309
cpu0_L2C PREFETCH REQUESTED:          0 ISSUED:          0 USEFUL:          0 USELESS:          0
cpu0_L2C AVERAGE MISS LATENCY: 34.11 cycles
cpu0_STLB TOTAL        ACCESS:    1842168 HIT:    1838100 MISS:       4068
cpu0_STLB LOAD         ACCESS:    1842168 HIT:    1838100 MISS:       4068
cpu0_STLB RFO          ACCESS:          0 HIT:          0 MISS:          0
cpu0_STLB PREFETCH     ACCESS:          0 HIT:          0 MISS:          0
cpu0_STLB WRITE        ACCESS:          0 HIT:          0 MISS:          0
cpu0_STLB TRANSLATION  ACCESS:          0 HIT:          0 MISS:          0
cpu0_STLB PREFETCH REQUESTED:          0 ISSUED:          0 USEFUL:          0 USELESS:          0
cpu0_STLB AVERAGE MISS LATENCY: 99.95 cycles

DRAM Statistics

Channel 0 RQ ROW_BUFFER_HIT:      22181
  ROW_BUFFER_MISS:      22982
 AVG DBUS CONGESTED CYCLE: 3.972
WQ ROW_BUFFER_HIT: Channel 0 
  ROW_BUFFER_MISS:       1797
  FULL:      19896
