WARNING: physical memory size is smaller than virtual memory size.

*** ChampSim Multicore Out-of-Order Simulator ***
Warmup Instructions: 25000000
Simulation Instructions: 100000000
Number of CPUs: 1
Page size: 4096

Off-chip DRAM Size: 4 GiB Channels: 1 Width: 64-bit Data Race: 3200 MT/s
Heartbeat CPU 0 instructions: 10000002 cycles: 2500117 heartbeat IPC: 4 cumulative IPC: 4 (Simulation time: 00 hr 00 min 22 sec)
Heartbeat CPU 0 instructions: 20000000 cycles: 5000166 heartbeat IPC: 4 cumulative IPC: 4 (Simulation time: 00 hr 00 min 44 sec)
Warmup finished CPU 0 instructions: 25000000 cycles: 6250167 cumulative IPC: 4 (Simulation time: 00 hr 00 min 56 sec)
Warmup complete CPU 0 instructions: 25000000 cycles: 6250167 cumulative IPC: 4 (Simulation time: 00 hr 00 min 56 sec)
Heartbeat CPU 0 instructions: 30000004 cycles: 14690231 heartbeat IPC: 1.032 cumulative IPC: 0.5924 (Simulation time: 00 hr 01 min 28 sec)
Heartbeat CPU 0 instructions: 40000001 cycles: 31403731 heartbeat IPC: 0.5983 cumulative IPC: 0.5963 (Simulation time: 00 hr 02 min 33 sec)
Heartbeat CPU 0 instructions: 50000001 cycles: 48239537 heartbeat IPC: 0.594 cumulative IPC: 0.5954 (Simulation time: 00 hr 03 min 39 sec)
Heartbeat CPU 0 instructions: 60000000 cycles: 64828762 heartbeat IPC: 0.6028 cumulative IPC: 0.5975 (Simulation time: 00 hr 04 min 44 sec)
Heartbeat CPU 0 instructions: 70000000 cycles: 81626587 heartbeat IPC: 0.5953 cumulative IPC: 0.597 (Simulation time: 00 hr 05 min 49 sec)
Heartbeat CPU 0 instructions: 80000000 cycles: 98279788 heartbeat IPC: 0.6005 cumulative IPC: 0.5976 (Simulation time: 00 hr 06 min 54 sec)
*** Reached end of trace: (0, "../traces/secret_traces/srv/srv541.champsimtrace.xz")
Heartbeat CPU 0 instructions: 90000001 cycles: 114823322 heartbeat IPC: 0.6045 cumulative IPC: 0.5987 (Simulation time: 00 hr 07 min 58 sec)
Heartbeat CPU 0 instructions: 100000000 cycles: 131612471 heartbeat IPC: 0.5956 cumulative IPC: 0.5983 (Simulation time: 00 hr 09 min 04 sec)
Heartbeat CPU 0 instructions: 110000004 cycles: 148198640 heartbeat IPC: 0.6029 cumulative IPC: 0.5988 (Simulation time: 00 hr 10 min 09 sec)
Heartbeat CPU 0 instructions: 120000001 cycles: 164883268 heartbeat IPC: 0.5994 cumulative IPC: 0.5989 (Simulation time: 00 hr 11 min 14 sec)
Simulation finished CPU 0 instructions: 100000000 cycles: 166862086 cumulative IPC: 0.5993 (Simulation time: 00 hr 11 min 46 sec)
Simulation complete CPU 0 instructions: 100000000 cycles: 166862086 cumulative IPC: 0.5993 (Simulation time: 00 hr 11 min 46 sec)

ChampSim completed all CPUs

=== Simulation ===
CPU 0 runs ../traces/secret_traces/srv/srv541.champsimtrace.xz
Region of Interest Statistics

CPU 0 cumulative IPC: 0.5993 instructions: 100000000 cycles: 166862086
CPU 0 Branch Prediction Accuracy: 72.44% MPKI: 49.76 Average ROB Occupancy at Mispredict: 4.226
Branch type MPKI
BRANCH_DIRECT_JUMP: 0.447
BRANCH_INDIRECT: 34.6
BRANCH_CONDITIONAL: 9.81
BRANCH_DIRECT_CALL: 1.56
BRANCH_INDIRECT_CALL: 2.1
BRANCH_RETURN: 1.2

LLC TOTAL        ACCESS:     981954 HIT:     898227 MISS:      83727
LLC LOAD         ACCESS:     740496 HIT:     677915 MISS:      62581
LLC RFO          ACCESS:      78837 HIT:      71576 MISS:       7261
LLC PREFETCH     ACCESS:          0 HIT:          0 MISS:          0
LLC WRITE        ACCESS:     133077 HIT:     132518 MISS:        559
LLC TRANSLATION  ACCESS:      29544 HIT:      16218 MISS:      13326
LLC PREFETCH REQUESTED:          0 ISSUED:          0 USEFUL:          0 USELESS:          0
LLC AVERAGE MISS LATENCY: 175.5 cycles
cpu0_DTLB TOTAL        ACCESS:   26846571 HIT:   25575044 MISS:    1271527
cpu0_DTLB LOAD         ACCESS:   26846571 HIT:   25575044 MISS:    1271527
cpu0_DTLB RFO          ACCESS:          0 HIT:          0 MISS:          0
cpu0_DTLB PREFETCH     ACCESS:          0 HIT:          0 MISS:          0
cpu0_DTLB WRITE        ACCESS:          0 HIT:          0 MISS:          0
cpu0_DTLB TRANSLATION  ACCESS:          0 HIT:          0 MISS:          0
cpu0_DTLB PREFETCH REQUESTED:          0 ISSUED:          0 USEFUL:          0 USELESS:          0
cpu0_DTLB AVERAGE MISS LATENCY: 9.258 cycles
cpu0_ITLB TOTAL        ACCESS:   11237872 HIT:    9070413 MISS:    2167459
cpu0_ITLB LOAD         ACCESS:   11237872 HIT:    9070413 MISS:    2167459
cpu0_ITLB RFO          ACCESS:          0 HIT:          0 MISS:          0
cpu0_ITLB PREFETCH     ACCESS:          0 HIT:          0 MISS:          0
cpu0_ITLB WRITE        ACCESS:          0 HIT:          0 MISS:          0
cpu0_ITLB TRANSLATION  ACCESS:          0 HIT:          0 MISS:          0
cpu0_ITLB PREFETCH REQUESTED:          0 ISSUED:          0 USEFUL:          0 USELESS:          0
cpu0_ITLB AVERAGE MISS LATENCY: 3.064 cycles
cpu0_L1D TOTAL        ACCESS:   33629985 HIT:   29324945 MISS:    4305040
cpu0_L1D LOAD         ACCESS:   20391667 HIT:   17835737 MISS:    2555930
cpu0_L1D RFO          ACCESS:          0 HIT:          0 MISS:          0
cpu0_L1D PREFETCH     ACCESS:          0 HIT:          0 MISS:          0
cpu0_L1D WRITE        ACCESS:   13190361 HIT:   11487635 MISS:    1702726
cpu0_L1D TRANSLATION  ACCESS:      47957 HIT:       1573 MISS:      46384
cpu0_L1D PREFETCH REQUESTED:          0 ISSUED:          0 USEFUL:          0 USELESS:          0
cpu0_L1D AVERAGE MISS LATENCY: 11.47 cycles
cpu0_L1I TOTAL        ACCESS:   12684004 HIT:    5503591 MISS:    7180413
cpu0_L1I LOAD         ACCESS:   12684004 HIT:    5503591 MISS:    7180413
cpu0_L1I RFO          ACCESS:          0 HIT:          0 MISS:          0
cpu0_L1I PREFETCH     ACCESS:          0 HIT:          0 MISS:          0
cpu0_L1I WRITE        ACCESS:          0 HIT:          0 MISS:          0
cpu0_L1I TRANSLATION  ACCESS:          0 HIT:          0 MISS:          0
cpu0_L1I PREFETCH REQUESTED:          0 ISSUED:          0 USEFUL:          0 USELESS:          0
cpu0_L1I AVERAGE MISS LATENCY: 8.996 cycles
cpu0_L2C TOTAL        ACCESS:    9619691 HIT:    8765356 MISS:     854335
cpu0_L2C LOAD         ACCESS:    7817995 HIT:    7077499 MISS:     740496
cpu0_L2C RFO          ACCESS:     604876 HIT:     526039 MISS:      78837
cpu0_L2C PREFETCH     ACCESS:          0 HIT:          0 MISS:          0
cpu0_L2C WRITE        ACCESS:    1150460 HIT:    1145002 MISS:       5458
cpu0_L2C TRANSLATION  ACCESS:      46360 HIT:      16816 MISS:      29544
cpu0_L2C PREFETCH REQUESTED:          0 ISSUED:          0 USEFUL:          0 USELESS:          0
cpu0_L2C AVERAGE MISS LATENCY: 37.18 cycles
cpu0_STLB TOTAL        ACCESS:    2091297 HIT:    2058791 MISS:      32506
cpu0_STLB LOAD         ACCESS:    2091297 HIT:    2058791 MISS:      32506
cpu0_STLB RFO          ACCESS:          0 HIT:          0 MISS:          0
cpu0_STLB PREFETCH     ACCESS:          0 HIT:          0 MISS:          0
cpu0_STLB WRITE        ACCESS:          0 HIT:          0 MISS:          0
cpu0_STLB TRANSLATION  ACCESS:          0 HIT:          0 MISS:          0
cpu0_STLB PREFETCH REQUESTED:          0 ISSUED:          0 USEFUL:          0 USELESS:          0
cpu0_STLB AVERAGE MISS LATENCY: 131.6 cycles

DRAM Statistics

Channel 0 RQ ROW_BUFFER_HIT:      29613
  ROW_BUFFER_MISS:      53555
 AVG DBUS CONGESTED CYCLE: 3.917
WQ ROW_BUFFER_HIT: Channel 0 
  ROW_BUFFER_MISS:       2342
  FULL:       6765
