WARNING: physical memory size is smaller than virtual memory size.

*** ChampSim Multicore Out-of-Order Simulator ***
Warmup Instructions: 25000000
Simulation Instructions: 100000000
Number of CPUs: 1
Page size: 4096

Off-chip DRAM Size: 4 GiB Channels: 1 Width: 64-bit Data Race: 3200 MT/s
Heartbeat CPU 0 instructions: 10000000 cycles: 2502802 heartbeat IPC: 3.996 cumulative IPC: 3.996 (Simulation time: 00 hr 00 min 21 sec)
Heartbeat CPU 0 instructions: 20000000 cycles: 5032354 heartbeat IPC: 3.953 cumulative IPC: 3.974 (Simulation time: 00 hr 00 min 42 sec)
Warmup finished CPU 0 instructions: 25000000 cycles: 6282355 cumulative IPC: 3.979 (Simulation time: 00 hr 00 min 53 sec)
Warmup complete CPU 0 instructions: 25000000 cycles: 6282355 cumulative IPC: 3.979 (Simulation time: 00 hr 00 min 53 sec)
Heartbeat CPU 0 instructions: 30000004 cycles: 8415551 heartbeat IPC: 2.956 cumulative IPC: 2.344 (Simulation time: 00 hr 01 min 08 sec)
Heartbeat CPU 0 instructions: 40000000 cycles: 13053517 heartbeat IPC: 2.156 cumulative IPC: 2.215 (Simulation time: 00 hr 01 min 39 sec)
Heartbeat CPU 0 instructions: 50000002 cycles: 17320063 heartbeat IPC: 2.344 cumulative IPC: 2.265 (Simulation time: 00 hr 02 min 09 sec)
Heartbeat CPU 0 instructions: 60000000 cycles: 21602136 heartbeat IPC: 2.335 cumulative IPC: 2.285 (Simulation time: 00 hr 02 min 39 sec)
*** Reached end of trace: (0, "../traces/secret_traces/srv/srv593.champsimtrace.xz")
Heartbeat CPU 0 instructions: 70000002 cycles: 27135019 heartbeat IPC: 1.807 cumulative IPC: 2.158 (Simulation time: 00 hr 03 min 12 sec)
Heartbeat CPU 0 instructions: 80000003 cycles: 34521510 heartbeat IPC: 1.354 cumulative IPC: 1.948 (Simulation time: 00 hr 03 min 52 sec)
Heartbeat CPU 0 instructions: 90000004 cycles: 38791009 heartbeat IPC: 2.342 cumulative IPC: 1.999 (Simulation time: 00 hr 04 min 22 sec)
Heartbeat CPU 0 instructions: 100000003 cycles: 43424563 heartbeat IPC: 2.158 cumulative IPC: 2.019 (Simulation time: 00 hr 04 min 53 sec)
Heartbeat CPU 0 instructions: 110000001 cycles: 47690234 heartbeat IPC: 2.344 cumulative IPC: 2.053 (Simulation time: 00 hr 05 min 23 sec)
Heartbeat CPU 0 instructions: 120000002 cycles: 51972328 heartbeat IPC: 2.335 cumulative IPC: 2.079 (Simulation time: 00 hr 05 min 52 sec)
*** Reached end of trace: (0, "../traces/secret_traces/srv/srv593.champsimtrace.xz")
Simulation finished CPU 0 instructions: 100000003 cycles: 48524393 cumulative IPC: 2.061 (Simulation time: 00 hr 06 min 10 sec)
Simulation complete CPU 0 instructions: 100000003 cycles: 48524393 cumulative IPC: 2.061 (Simulation time: 00 hr 06 min 10 sec)

ChampSim completed all CPUs

=== Simulation ===
CPU 0 runs ../traces/secret_traces/srv/srv593.champsimtrace.xz
Region of Interest Statistics

CPU 0 cumulative IPC: 2.061 instructions: 100000003 cycles: 48524393
CPU 0 Branch Prediction Accuracy: 95.55% MPKI: 6.936 Average ROB Occupancy at Mispredict: 29.95
Branch type MPKI
BRANCH_DIRECT_JUMP: 0.0101
BRANCH_INDIRECT: 4.7
BRANCH_CONDITIONAL: 1.86
BRANCH_DIRECT_CALL: 0.027
BRANCH_INDIRECT_CALL: 0.103
BRANCH_RETURN: 0.232

LLC TOTAL        ACCESS:     114099 HIT:      57353 MISS:      56746
LLC LOAD         ACCESS:      40526 HIT:      10165 MISS:      30361
LLC RFO          ACCESS:      33612 HIT:       8247 MISS:      25365
LLC PREFETCH     ACCESS:          0 HIT:          0 MISS:          0
LLC WRITE        ACCESS:      38885 HIT:      38834 MISS:         51
LLC TRANSLATION  ACCESS:       1076 HIT:        107 MISS:        969
LLC PREFETCH REQUESTED:          0 ISSUED:          0 USEFUL:          0 USELESS:          0
LLC AVERAGE MISS LATENCY: 565.8 cycles
cpu0_DTLB TOTAL        ACCESS:   23956886 HIT:   23226218 MISS:     730668
cpu0_DTLB LOAD         ACCESS:   23956886 HIT:   23226218 MISS:     730668
cpu0_DTLB RFO          ACCESS:          0 HIT:          0 MISS:          0
cpu0_DTLB PREFETCH     ACCESS:          0 HIT:          0 MISS:          0
cpu0_DTLB WRITE        ACCESS:          0 HIT:          0 MISS:          0
cpu0_DTLB TRANSLATION  ACCESS:          0 HIT:          0 MISS:          0
cpu0_DTLB PREFETCH REQUESTED:          0 ISSUED:          0 USEFUL:          0 USELESS:          0
cpu0_DTLB AVERAGE MISS LATENCY: 4.387 cycles
cpu0_ITLB TOTAL        ACCESS:   12617606 HIT:   11459589 MISS:    1158017
cpu0_ITLB LOAD         ACCESS:   12617606 HIT:   11459589 MISS:    1158017
cpu0_ITLB RFO          ACCESS:          0 HIT:          0 MISS:          0
cpu0_ITLB PREFETCH     ACCESS:          0 HIT:          0 MISS:          0
cpu0_ITLB WRITE        ACCESS:          0 HIT:          0 MISS:          0
cpu0_ITLB TRANSLATION  ACCESS:          0 HIT:          0 MISS:          0
cpu0_ITLB PREFETCH REQUESTED:          0 ISSUED:          0 USEFUL:          0 USELESS:          0
cpu0_ITLB AVERAGE MISS LATENCY: 1.382 cycles
cpu0_L1D TOTAL        ACCESS:   32127914 HIT:   31976842 MISS:     151072
cpu0_L1D LOAD         ACCESS:   16154408 HIT:   16102083 MISS:      52325
cpu0_L1D RFO          ACCESS:          0 HIT:          0 MISS:          0
cpu0_L1D PREFETCH     ACCESS:          0 HIT:          0 MISS:          0
cpu0_L1D WRITE        ACCESS:   15971697 HIT:   15874208 MISS:      97489
cpu0_L1D TRANSLATION  ACCESS:       1809 HIT:        551 MISS:       1258
cpu0_L1D PREFETCH REQUESTED:          0 ISSUED:          0 USEFUL:          0 USELESS:          0
cpu0_L1D AVERAGE MISS LATENCY: 210.7 cycles
cpu0_L1I TOTAL        ACCESS:   14617558 HIT:   12456140 MISS:    2161418
cpu0_L1I LOAD         ACCESS:   14617558 HIT:   12456140 MISS:    2161418
cpu0_L1I RFO          ACCESS:          0 HIT:          0 MISS:          0
cpu0_L1I PREFETCH     ACCESS:          0 HIT:          0 MISS:          0
cpu0_L1I WRITE        ACCESS:          0 HIT:          0 MISS:          0
cpu0_L1I TRANSLATION  ACCESS:          0 HIT:          0 MISS:          0
cpu0_L1I PREFETCH REQUESTED:          0 ISSUED:          0 USEFUL:          0 USELESS:          0
cpu0_L1I AVERAGE MISS LATENCY: 6.533 cycles
cpu0_L2C TOTAL        ACCESS:    1551269 HIT:    1476041 MISS:      75228
cpu0_L2C LOAD         ACCESS:    1472384 HIT:    1431858 MISS:      40526
cpu0_L2C RFO          ACCESS:      35182 HIT:       1570 MISS:      33612
cpu0_L2C PREFETCH     ACCESS:          0 HIT:          0 MISS:          0
cpu0_L2C WRITE        ACCESS:      42501 HIT:      42487 MISS:         14
cpu0_L2C TRANSLATION  ACCESS:       1202 HIT:        126 MISS:       1076
cpu0_L2C PREFETCH REQUESTED:          0 ISSUED:          0 USEFUL:          0 USELESS:          0
cpu0_L2C AVERAGE MISS LATENCY: 447.6 cycles
cpu0_STLB TOTAL        ACCESS:     787126 HIT:     785547 MISS:       1579
cpu0_STLB LOAD         ACCESS:     787126 HIT:     785547 MISS:       1579
cpu0_STLB RFO          ACCESS:          0 HIT:          0 MISS:          0
cpu0_STLB PREFETCH     ACCESS:          0 HIT:          0 MISS:          0
cpu0_STLB WRITE        ACCESS:          0 HIT:          0 MISS:          0
cpu0_STLB TRANSLATION  ACCESS:          0 HIT:          0 MISS:          0
cpu0_STLB PREFETCH REQUESTED:          0 ISSUED:          0 USEFUL:          0 USELESS:          0
cpu0_STLB AVERAGE MISS LATENCY: 296.8 cycles

DRAM Statistics

Channel 0 RQ ROW_BUFFER_HIT:      23049
  ROW_BUFFER_MISS:      33634
 AVG DBUS CONGESTED CYCLE: 3.983
WQ ROW_BUFFER_HIT: Channel 0 
  ROW_BUFFER_MISS:       3336
  FULL:      30291
