WARNING: physical memory size is smaller than virtual memory size.

*** ChampSim Multicore Out-of-Order Simulator ***
Warmup Instructions: 25000000
Simulation Instructions: 100000000
Number of CPUs: 1
Page size: 4096

Off-chip DRAM Size: 4 GiB Channels: 1 Width: 64-bit Data Race: 3200 MT/s
Heartbeat CPU 0 instructions: 10000000 cycles: 2500197 heartbeat IPC: 4 cumulative IPC: 4 (Simulation time: 00 hr 00 min 21 sec)
Heartbeat CPU 0 instructions: 20000000 cycles: 5000197 heartbeat IPC: 4 cumulative IPC: 4 (Simulation time: 00 hr 00 min 43 sec)
Warmup finished CPU 0 instructions: 25000000 cycles: 6250198 cumulative IPC: 4 (Simulation time: 00 hr 00 min 53 sec)
Warmup complete CPU 0 instructions: 25000000 cycles: 6250198 cumulative IPC: 4 (Simulation time: 00 hr 00 min 53 sec)
Heartbeat CPU 0 instructions: 30000001 cycles: 14488630 heartbeat IPC: 1.054 cumulative IPC: 0.6069 (Simulation time: 00 hr 01 min 25 sec)
Heartbeat CPU 0 instructions: 40000003 cycles: 29058008 heartbeat IPC: 0.6864 cumulative IPC: 0.6577 (Simulation time: 00 hr 02 min 24 sec)
Heartbeat CPU 0 instructions: 50000000 cycles: 43388698 heartbeat IPC: 0.6978 cumulative IPC: 0.6732 (Simulation time: 00 hr 03 min 21 sec)
Heartbeat CPU 0 instructions: 60000001 cycles: 57638807 heartbeat IPC: 0.7017 cumulative IPC: 0.6811 (Simulation time: 00 hr 04 min 19 sec)
Heartbeat CPU 0 instructions: 70000004 cycles: 71563360 heartbeat IPC: 0.7182 cumulative IPC: 0.689 (Simulation time: 00 hr 05 min 16 sec)
Heartbeat CPU 0 instructions: 80000000 cycles: 86330633 heartbeat IPC: 0.6772 cumulative IPC: 0.6868 (Simulation time: 00 hr 06 min 15 sec)
Heartbeat CPU 0 instructions: 90000004 cycles: 100135752 heartbeat IPC: 0.7244 cumulative IPC: 0.6923 (Simulation time: 00 hr 07 min 11 sec)
Heartbeat CPU 0 instructions: 100000001 cycles: 114344531 heartbeat IPC: 0.7038 cumulative IPC: 0.6938 (Simulation time: 00 hr 08 min 08 sec)
*** Reached end of trace: (0, "../traces/secret_traces/srv/srv537.champsimtrace.xz")
Heartbeat CPU 0 instructions: 110000002 cycles: 128468823 heartbeat IPC: 0.708 cumulative IPC: 0.6955 (Simulation time: 00 hr 09 min 06 sec)
Heartbeat CPU 0 instructions: 120000003 cycles: 142385514 heartbeat IPC: 0.7186 cumulative IPC: 0.6978 (Simulation time: 00 hr 10 min 02 sec)
Simulation finished CPU 0 instructions: 100000003 cycles: 142785378 cumulative IPC: 0.7004 (Simulation time: 00 hr 10 min 29 sec)
Simulation complete CPU 0 instructions: 100000003 cycles: 142785378 cumulative IPC: 0.7004 (Simulation time: 00 hr 10 min 29 sec)

ChampSim completed all CPUs

=== Simulation ===
CPU 0 runs ../traces/secret_traces/srv/srv537.champsimtrace.xz
Region of Interest Statistics

CPU 0 cumulative IPC: 0.7004 instructions: 100000003 cycles: 142785378
CPU 0 Branch Prediction Accuracy: 82.01% MPKI: 32.47 Average ROB Occupancy at Mispredict: 15.94
Branch type MPKI
BRANCH_DIRECT_JUMP: 0.835
BRANCH_INDIRECT: 17.5
BRANCH_CONDITIONAL: 10.9
BRANCH_DIRECT_CALL: 1.51
BRANCH_INDIRECT_CALL: 0.648
BRANCH_RETURN: 1.06

LLC TOTAL        ACCESS:    2508614 HIT:    2304211 MISS:     204403
LLC LOAD         ACCESS:    1876133 HIT:    1741722 MISS:     134411
LLC RFO          ACCESS:     106681 HIT:      83404 MISS:      23277
LLC PREFETCH     ACCESS:          0 HIT:          0 MISS:          0
LLC WRITE        ACCESS:     312194 HIT:     312061 MISS:        133
LLC TRANSLATION  ACCESS:     213606 HIT:     167024 MISS:      46582
LLC PREFETCH REQUESTED:          0 ISSUED:          0 USEFUL:          0 USELESS:          0
LLC AVERAGE MISS LATENCY: 164.6 cycles
cpu0_DTLB TOTAL        ACCESS:   22218920 HIT:   20818654 MISS:    1400266
cpu0_DTLB LOAD         ACCESS:   22218920 HIT:   20818654 MISS:    1400266
cpu0_DTLB RFO          ACCESS:          0 HIT:          0 MISS:          0
cpu0_DTLB PREFETCH     ACCESS:          0 HIT:          0 MISS:          0
cpu0_DTLB WRITE        ACCESS:          0 HIT:          0 MISS:          0
cpu0_DTLB TRANSLATION  ACCESS:          0 HIT:          0 MISS:          0
cpu0_DTLB PREFETCH REQUESTED:          0 ISSUED:          0 USEFUL:          0 USELESS:          0
cpu0_DTLB AVERAGE MISS LATENCY: 14.55 cycles
cpu0_ITLB TOTAL        ACCESS:    9581966 HIT:    8807367 MISS:     774599
cpu0_ITLB LOAD         ACCESS:    9581966 HIT:    8807367 MISS:     774599
cpu0_ITLB RFO          ACCESS:          0 HIT:          0 MISS:          0
cpu0_ITLB PREFETCH     ACCESS:          0 HIT:          0 MISS:          0
cpu0_ITLB WRITE        ACCESS:          0 HIT:          0 MISS:          0
cpu0_ITLB TRANSLATION  ACCESS:          0 HIT:          0 MISS:          0
cpu0_ITLB PREFETCH REQUESTED:          0 ISSUED:          0 USEFUL:          0 USELESS:          0
cpu0_ITLB AVERAGE MISS LATENCY: 10.03 cycles
cpu0_L1D TOTAL        ACCESS:   27355318 HIT:   25114009 MISS:    2241309
cpu0_L1D LOAD         ACCESS:   16964918 HIT:   15431221 MISS:    1533697
cpu0_L1D RFO          ACCESS:          0 HIT:          0 MISS:          0
cpu0_L1D PREFETCH     ACCESS:          0 HIT:          0 MISS:          0
cpu0_L1D WRITE        ACCESS:   10097792 HIT:    9652120 MISS:     445672
cpu0_L1D TRANSLATION  ACCESS:     292608 HIT:      30668 MISS:     261940
cpu0_L1D PREFETCH REQUESTED:          0 ISSUED:          0 USEFUL:          0 USELESS:          0
cpu0_L1D AVERAGE MISS LATENCY: 28.28 cycles
cpu0_L1I TOTAL        ACCESS:   10848670 HIT:    7478427 MISS:    3370243
cpu0_L1I LOAD         ACCESS:   10848670 HIT:    7478427 MISS:    3370243
cpu0_L1I RFO          ACCESS:          0 HIT:          0 MISS:          0
cpu0_L1I PREFETCH     ACCESS:          0 HIT:          0 MISS:          0
cpu0_L1I WRITE        ACCESS:          0 HIT:          0 MISS:          0
cpu0_L1I TRANSLATION  ACCESS:          0 HIT:          0 MISS:          0
cpu0_L1I PREFETCH REQUESTED:          0 ISSUED:          0 USEFUL:          0 USELESS:          0
cpu0_L1I AVERAGE MISS LATENCY: 15.84 cycles
cpu0_L2C TOTAL        ACCESS:    4709940 HIT:    2511272 MISS:    2198668
cpu0_L2C LOAD         ACCESS:    3737170 HIT:    1861037 MISS:    1876133
cpu0_L2C RFO          ACCESS:     185785 HIT:      79104 MISS:     106681
cpu0_L2C PREFETCH     ACCESS:          0 HIT:          0 MISS:          0
cpu0_L2C WRITE        ACCESS:     526083 HIT:     523835 MISS:       2248
cpu0_L2C TRANSLATION  ACCESS:     260902 HIT:      47296 MISS:     213606
cpu0_L2C PREFETCH REQUESTED:          0 ISSUED:          0 USEFUL:          0 USELESS:          0
cpu0_L2C AVERAGE MISS LATENCY: 35.38 cycles
cpu0_STLB TOTAL        ACCESS:    1492100 HIT:    1256391 MISS:     235709
cpu0_STLB LOAD         ACCESS:    1492100 HIT:    1256391 MISS:     235709
cpu0_STLB RFO          ACCESS:          0 HIT:          0 MISS:          0
cpu0_STLB PREFETCH     ACCESS:          0 HIT:          0 MISS:          0
cpu0_STLB WRITE        ACCESS:          0 HIT:          0 MISS:          0
cpu0_STLB TRANSLATION  ACCESS:          0 HIT:          0 MISS:          0
cpu0_STLB PREFETCH REQUESTED:          0 ISSUED:          0 USEFUL:          0 USELESS:          0
cpu0_STLB AVERAGE MISS LATENCY: 76.04 cycles

DRAM Statistics

Channel 0 RQ ROW_BUFFER_HIT:      35752
  ROW_BUFFER_MISS:     168513
 AVG DBUS CONGESTED CYCLE: 3.893
WQ ROW_BUFFER_HIT: Channel 0 
  ROW_BUFFER_MISS:      20167
  FULL:      87843
