WARNING: physical memory size is smaller than virtual memory size.

*** ChampSim Multicore Out-of-Order Simulator ***
Warmup Instructions: 25000000
Simulation Instructions: 100000000
Number of CPUs: 1
Page size: 4096

Off-chip DRAM Size: 4 GiB Channels: 1 Width: 64-bit Data Race: 3200 MT/s
Heartbeat CPU 0 instructions: 10000000 cycles: 2500975 heartbeat IPC: 3.998 cumulative IPC: 3.998 (Simulation time: 00 hr 00 min 22 sec)
Heartbeat CPU 0 instructions: 20000000 cycles: 5001820 heartbeat IPC: 3.999 cumulative IPC: 3.999 (Simulation time: 00 hr 00 min 44 sec)
Warmup finished CPU 0 instructions: 25000001 cycles: 6252660 cumulative IPC: 3.998 (Simulation time: 00 hr 00 min 55 sec)
Warmup complete CPU 0 instructions: 25000001 cycles: 6252660 cumulative IPC: 3.998 (Simulation time: 00 hr 00 min 55 sec)
Heartbeat CPU 0 instructions: 30000003 cycles: 14112671 heartbeat IPC: 1.098 cumulative IPC: 0.6361 (Simulation time: 00 hr 01 min 25 sec)
Heartbeat CPU 0 instructions: 40000001 cycles: 29705055 heartbeat IPC: 0.6413 cumulative IPC: 0.6396 (Simulation time: 00 hr 02 min 27 sec)
Heartbeat CPU 0 instructions: 50000000 cycles: 45644565 heartbeat IPC: 0.6274 cumulative IPC: 0.6346 (Simulation time: 00 hr 03 min 29 sec)
Heartbeat CPU 0 instructions: 60000000 cycles: 61520188 heartbeat IPC: 0.6299 cumulative IPC: 0.6333 (Simulation time: 00 hr 04 min 31 sec)
*** Reached end of trace: (0, "../traces/secret_traces/srv/srv519.champsimtrace.xz")
Heartbeat CPU 0 instructions: 70000004 cycles: 77146992 heartbeat IPC: 0.6399 cumulative IPC: 0.6347 (Simulation time: 00 hr 05 min 32 sec)
Heartbeat CPU 0 instructions: 80000001 cycles: 93366045 heartbeat IPC: 0.6166 cumulative IPC: 0.6314 (Simulation time: 00 hr 06 min 35 sec)
Heartbeat CPU 0 instructions: 90000000 cycles: 109164603 heartbeat IPC: 0.633 cumulative IPC: 0.6316 (Simulation time: 00 hr 07 min 37 sec)
Heartbeat CPU 0 instructions: 100000000 cycles: 124780723 heartbeat IPC: 0.6404 cumulative IPC: 0.6328 (Simulation time: 00 hr 08 min 38 sec)
Heartbeat CPU 0 instructions: 110000000 cycles: 140654239 heartbeat IPC: 0.63 cumulative IPC: 0.6324 (Simulation time: 00 hr 09 min 40 sec)
Heartbeat CPU 0 instructions: 120000000 cycles: 156449379 heartbeat IPC: 0.6331 cumulative IPC: 0.6325 (Simulation time: 00 hr 10 min 42 sec)
Simulation finished CPU 0 instructions: 100000003 cycles: 158234569 cumulative IPC: 0.632 (Simulation time: 00 hr 11 min 14 sec)
Simulation complete CPU 0 instructions: 100000003 cycles: 158234569 cumulative IPC: 0.632 (Simulation time: 00 hr 11 min 14 sec)

ChampSim completed all CPUs

=== Simulation ===
CPU 0 runs ../traces/secret_traces/srv/srv519.champsimtrace.xz
Region of Interest Statistics

CPU 0 cumulative IPC: 0.632 instructions: 100000003 cycles: 158234569
CPU 0 Branch Prediction Accuracy: 70.64% MPKI: 51.88 Average ROB Occupancy at Mispredict: 4.428
Branch type MPKI
BRANCH_DIRECT_JUMP: 0.838
BRANCH_INDIRECT: 35.1
BRANCH_CONDITIONAL: 10.1
BRANCH_DIRECT_CALL: 2.27
BRANCH_INDIRECT_CALL: 2.14
BRANCH_RETURN: 1.42

LLC TOTAL        ACCESS:    1157441 HIT:    1079775 MISS:      77666
LLC LOAD         ACCESS:     765656 HIT:     738697 MISS:      26959
LLC RFO          ACCESS:     157384 HIT:     108300 MISS:      49084
LLC PREFETCH     ACCESS:          0 HIT:          0 MISS:          0
LLC WRITE        ACCESS:     230262 HIT:     229942 MISS:        320
LLC TRANSLATION  ACCESS:       4139 HIT:       2836 MISS:       1303
LLC PREFETCH REQUESTED:          0 ISSUED:          0 USEFUL:          0 USELESS:          0
LLC AVERAGE MISS LATENCY: 387.5 cycles
cpu0_DTLB TOTAL        ACCESS:   27063983 HIT:   25962870 MISS:    1101113
cpu0_DTLB LOAD         ACCESS:   27063983 HIT:   25962870 MISS:    1101113
cpu0_DTLB RFO          ACCESS:          0 HIT:          0 MISS:          0
cpu0_DTLB PREFETCH     ACCESS:          0 HIT:          0 MISS:          0
cpu0_DTLB WRITE        ACCESS:          0 HIT:          0 MISS:          0
cpu0_DTLB TRANSLATION  ACCESS:          0 HIT:          0 MISS:          0
cpu0_DTLB PREFETCH REQUESTED:          0 ISSUED:          0 USEFUL:          0 USELESS:          0
cpu0_DTLB AVERAGE MISS LATENCY: 6.576 cycles
cpu0_ITLB TOTAL        ACCESS:   10000959 HIT:    8260761 MISS:    1740198
cpu0_ITLB LOAD         ACCESS:   10000959 HIT:    8260761 MISS:    1740198
cpu0_ITLB RFO          ACCESS:          0 HIT:          0 MISS:          0
cpu0_ITLB PREFETCH     ACCESS:          0 HIT:          0 MISS:          0
cpu0_ITLB WRITE        ACCESS:          0 HIT:          0 MISS:          0
cpu0_ITLB TRANSLATION  ACCESS:          0 HIT:          0 MISS:          0
cpu0_ITLB PREFETCH REQUESTED:          0 ISSUED:          0 USEFUL:          0 USELESS:          0
cpu0_ITLB AVERAGE MISS LATENCY: 3.141 cycles
cpu0_L1D TOTAL        ACCESS:   33894704 HIT:   30625314 MISS:    3269390
cpu0_L1D LOAD         ACCESS:   20779037 HIT:   19043506 MISS:    1735531
cpu0_L1D RFO          ACCESS:          0 HIT:          0 MISS:          0
cpu0_L1D PREFETCH     ACCESS:          0 HIT:          0 MISS:          0
cpu0_L1D WRITE        ACCESS:   13110187 HIT:   11581327 MISS:    1528860
cpu0_L1D TRANSLATION  ACCESS:       5480 HIT:        481 MISS:       4999
cpu0_L1D PREFETCH REQUESTED:          0 ISSUED:          0 USEFUL:          0 USELESS:          0
cpu0_L1D AVERAGE MISS LATENCY: 17.58 cycles
cpu0_L1I TOTAL        ACCESS:   11219489 HIT:    5154620 MISS:    6064869
cpu0_L1I LOAD         ACCESS:   11219489 HIT:    5154620 MISS:    6064869
cpu0_L1I RFO          ACCESS:          0 HIT:          0 MISS:          0
cpu0_L1I PREFETCH     ACCESS:          0 HIT:          0 MISS:          0
cpu0_L1I WRITE        ACCESS:          0 HIT:          0 MISS:          0
cpu0_L1I TRANSLATION  ACCESS:          0 HIT:          0 MISS:          0
cpu0_L1I PREFETCH REQUESTED:          0 ISSUED:          0 USEFUL:          0 USELESS:          0
cpu0_L1I AVERAGE MISS LATENCY: 9.589 cycles
cpu0_L2C TOTAL        ACCESS:    7817710 HIT:    6880713 MISS:     936997
cpu0_L2C LOAD         ACCESS:    6316259 HIT:    5550603 MISS:     765656
cpu0_L2C RFO          ACCESS:     556819 HIT:     399435 MISS:     157384
cpu0_L2C PREFETCH     ACCESS:          0 HIT:          0 MISS:          0
cpu0_L2C WRITE        ACCESS:     939636 HIT:     929818 MISS:       9818
cpu0_L2C TRANSLATION  ACCESS:       4996 HIT:        857 MISS:       4139
cpu0_L2C PREFETCH REQUESTED:          0 ISSUED:          0 USEFUL:          0 USELESS:          0
cpu0_L2C AVERAGE MISS LATENCY: 52 cycles
cpu0_STLB TOTAL        ACCESS:    1760936 HIT:    1755999 MISS:       4937
cpu0_STLB LOAD         ACCESS:    1760936 HIT:    1755999 MISS:       4937
cpu0_STLB RFO          ACCESS:          0 HIT:          0 MISS:          0
cpu0_STLB PREFETCH     ACCESS:          0 HIT:          0 MISS:          0
cpu0_STLB WRITE        ACCESS:          0 HIT:          0 MISS:          0
cpu0_STLB TRANSLATION  ACCESS:          0 HIT:          0 MISS:          0
cpu0_STLB PREFETCH REQUESTED:          0 ISSUED:          0 USEFUL:          0 USELESS:          0
cpu0_STLB AVERAGE MISS LATENCY: 124.6 cycles

DRAM Statistics

Channel 0 RQ ROW_BUFFER_HIT:      34722
  ROW_BUFFER_MISS:      42624
 AVG DBUS CONGESTED CYCLE: 3.981
WQ ROW_BUFFER_HIT: Channel 0 
  ROW_BUFFER_MISS:       3815
  FULL:      45050
