WARNING: physical memory size is smaller than virtual memory size.

*** ChampSim Multicore Out-of-Order Simulator ***
Warmup Instructions: 25000000
Simulation Instructions: 100000000
Number of CPUs: 1
Page size: 4096

Off-chip DRAM Size: 4 GiB Channels: 1 Width: 64-bit Data Race: 3200 MT/s
Heartbeat CPU 0 instructions: 10000001 cycles: 2500150 heartbeat IPC: 4 cumulative IPC: 4 (Simulation time: 00 hr 00 min 22 sec)
Heartbeat CPU 0 instructions: 20000000 cycles: 5000166 heartbeat IPC: 4 cumulative IPC: 4 (Simulation time: 00 hr 00 min 43 sec)
Warmup finished CPU 0 instructions: 25000000 cycles: 6250167 cumulative IPC: 4 (Simulation time: 00 hr 00 min 54 sec)
Warmup complete CPU 0 instructions: 25000000 cycles: 6250167 cumulative IPC: 4 (Simulation time: 00 hr 00 min 54 sec)
Heartbeat CPU 0 instructions: 30000000 cycles: 13945925 heartbeat IPC: 1.118 cumulative IPC: 0.6497 (Simulation time: 00 hr 01 min 24 sec)
Heartbeat CPU 0 instructions: 40000002 cycles: 29779092 heartbeat IPC: 0.6316 cumulative IPC: 0.6375 (Simulation time: 00 hr 02 min 26 sec)
Heartbeat CPU 0 instructions: 50000001 cycles: 45408875 heartbeat IPC: 0.6398 cumulative IPC: 0.6384 (Simulation time: 00 hr 03 min 27 sec)
Heartbeat CPU 0 instructions: 60000003 cycles: 61245847 heartbeat IPC: 0.6314 cumulative IPC: 0.6364 (Simulation time: 00 hr 04 min 29 sec)
Heartbeat CPU 0 instructions: 70000001 cycles: 77038287 heartbeat IPC: 0.6332 cumulative IPC: 0.6357 (Simulation time: 00 hr 05 min 30 sec)
Heartbeat CPU 0 instructions: 80000000 cycles: 92700626 heartbeat IPC: 0.6385 cumulative IPC: 0.6362 (Simulation time: 00 hr 06 min 31 sec)
Heartbeat CPU 0 instructions: 90000000 cycles: 108258846 heartbeat IPC: 0.6427 cumulative IPC: 0.6372 (Simulation time: 00 hr 07 min 32 sec)
Heartbeat CPU 0 instructions: 100000003 cycles: 124423784 heartbeat IPC: 0.6186 cumulative IPC: 0.6347 (Simulation time: 00 hr 08 min 35 sec)
*** Reached end of trace: (0, "../traces/secret_traces/srv/srv601.champsimtrace.xz")
Heartbeat CPU 0 instructions: 110000001 cycles: 140429588 heartbeat IPC: 0.6248 cumulative IPC: 0.6335 (Simulation time: 00 hr 09 min 37 sec)
Heartbeat CPU 0 instructions: 120000001 cycles: 155943459 heartbeat IPC: 0.6446 cumulative IPC: 0.6346 (Simulation time: 00 hr 10 min 38 sec)
Simulation finished CPU 0 instructions: 100000002 cycles: 157722350 cumulative IPC: 0.634 (Simulation time: 00 hr 11 min 09 sec)
Simulation complete CPU 0 instructions: 100000002 cycles: 157722350 cumulative IPC: 0.634 (Simulation time: 00 hr 11 min 09 sec)

ChampSim completed all CPUs

=== Simulation ===
CPU 0 runs ../traces/secret_traces/srv/srv601.champsimtrace.xz
Region of Interest Statistics

CPU 0 cumulative IPC: 0.634 instructions: 100000002 cycles: 157722350
CPU 0 Branch Prediction Accuracy: 70.45% MPKI: 52.14 Average ROB Occupancy at Mispredict: 4.366
Branch type MPKI
BRANCH_DIRECT_JUMP: 0.834
BRANCH_INDIRECT: 35.3
BRANCH_CONDITIONAL: 10.2
BRANCH_DIRECT_CALL: 2.29
BRANCH_INDIRECT_CALL: 2.14
BRANCH_RETURN: 1.42

LLC TOTAL        ACCESS:    1100714 HIT:    1036405 MISS:      64309
LLC LOAD         ACCESS:     757701 HIT:     733708 MISS:      23993
LLC RFO          ACCESS:     135693 HIT:      96717 MISS:      38976
LLC PREFETCH     ACCESS:          0 HIT:          0 MISS:          0
LLC WRITE        ACCESS:     203120 HIT:     202880 MISS:        240
LLC TRANSLATION  ACCESS:       4200 HIT:       3100 MISS:       1100
LLC PREFETCH REQUESTED:          0 ISSUED:          0 USEFUL:          0 USELESS:          0
LLC AVERAGE MISS LATENCY: 324.4 cycles
cpu0_DTLB TOTAL        ACCESS:   27136024 HIT:   26040819 MISS:    1095205
cpu0_DTLB LOAD         ACCESS:   27136024 HIT:   26040819 MISS:    1095205
cpu0_DTLB RFO          ACCESS:          0 HIT:          0 MISS:          0
cpu0_DTLB PREFETCH     ACCESS:          0 HIT:          0 MISS:          0
cpu0_DTLB WRITE        ACCESS:          0 HIT:          0 MISS:          0
cpu0_DTLB TRANSLATION  ACCESS:          0 HIT:          0 MISS:          0
cpu0_DTLB PREFETCH REQUESTED:          0 ISSUED:          0 USEFUL:          0 USELESS:          0
cpu0_DTLB AVERAGE MISS LATENCY: 6.549 cycles
cpu0_ITLB TOTAL        ACCESS:   10023119 HIT:    8277310 MISS:    1745809
cpu0_ITLB LOAD         ACCESS:   10023119 HIT:    8277310 MISS:    1745809
cpu0_ITLB RFO          ACCESS:          0 HIT:          0 MISS:          0
cpu0_ITLB PREFETCH     ACCESS:          0 HIT:          0 MISS:          0
cpu0_ITLB WRITE        ACCESS:          0 HIT:          0 MISS:          0
cpu0_ITLB TRANSLATION  ACCESS:          0 HIT:          0 MISS:          0
cpu0_ITLB PREFETCH REQUESTED:          0 ISSUED:          0 USEFUL:          0 USELESS:          0
cpu0_ITLB AVERAGE MISS LATENCY: 3.134 cycles
cpu0_L1D TOTAL        ACCESS:   33978463 HIT:   30780856 MISS:    3197607
cpu0_L1D LOAD         ACCESS:   20822781 HIT:   19141884 MISS:    1680897
cpu0_L1D RFO          ACCESS:          0 HIT:          0 MISS:          0
cpu0_L1D PREFETCH     ACCESS:          0 HIT:          0 MISS:          0
cpu0_L1D WRITE        ACCESS:   13150292 HIT:   11638620 MISS:    1511672
cpu0_L1D TRANSLATION  ACCESS:       5390 HIT:        352 MISS:       5038
cpu0_L1D PREFETCH REQUESTED:          0 ISSUED:          0 USEFUL:          0 USELESS:          0
cpu0_L1D AVERAGE MISS LATENCY: 14.62 cycles
cpu0_L1I TOTAL        ACCESS:   11243573 HIT:    5171180 MISS:    6072393
cpu0_L1I LOAD         ACCESS:   11243573 HIT:    5171180 MISS:    6072393
cpu0_L1I RFO          ACCESS:          0 HIT:          0 MISS:          0
cpu0_L1I PREFETCH     ACCESS:          0 HIT:          0 MISS:          0
cpu0_L1I WRITE        ACCESS:          0 HIT:          0 MISS:          0
cpu0_L1I TRANSLATION  ACCESS:          0 HIT:          0 MISS:          0
cpu0_L1I PREFETCH REQUESTED:          0 ISSUED:          0 USEFUL:          0 USELESS:          0
cpu0_L1I AVERAGE MISS LATENCY: 9.584 cycles
cpu0_L2C TOTAL        ACCESS:    7722288 HIT:    6811922 MISS:     910366
cpu0_L2C LOAD         ACCESS:    6264695 HIT:    5506994 MISS:     757701
cpu0_L2C RFO          ACCESS:     540299 HIT:     404606 MISS:     135693
cpu0_L2C PREFETCH     ACCESS:          0 HIT:          0 MISS:          0
cpu0_L2C WRITE        ACCESS:     912262 HIT:     899490 MISS:      12772
cpu0_L2C TRANSLATION  ACCESS:       5032 HIT:        832 MISS:       4200
cpu0_L2C PREFETCH REQUESTED:          0 ISSUED:          0 USEFUL:          0 USELESS:          0
cpu0_L2C AVERAGE MISS LATENCY: 42.71 cycles
cpu0_STLB TOTAL        ACCESS:    1760566 HIT:    1755552 MISS:       5014
cpu0_STLB LOAD         ACCESS:    1760566 HIT:    1755552 MISS:       5014
cpu0_STLB RFO          ACCESS:          0 HIT:          0 MISS:          0
cpu0_STLB PREFETCH     ACCESS:          0 HIT:          0 MISS:          0
cpu0_STLB WRITE        ACCESS:          0 HIT:          0 MISS:          0
cpu0_STLB TRANSLATION  ACCESS:          0 HIT:          0 MISS:          0
cpu0_STLB PREFETCH REQUESTED:          0 ISSUED:          0 USEFUL:          0 USELESS:          0
cpu0_STLB AVERAGE MISS LATENCY: 109.3 cycles

DRAM Statistics

Channel 0 RQ ROW_BUFFER_HIT:      29942
  ROW_BUFFER_MISS:      34127
 AVG DBUS CONGESTED CYCLE: 3.977
WQ ROW_BUFFER_HIT: Channel 0 
  ROW_BUFFER_MISS:       2762
  FULL:      34419
