WARNING: physical memory size is smaller than virtual memory size.

*** ChampSim Multicore Out-of-Order Simulator ***
Warmup Instructions: 25000000
Simulation Instructions: 100000000
Number of CPUs: 1
Page size: 4096

Off-chip DRAM Size: 4 GiB Channels: 1 Width: 64-bit Data Race: 3200 MT/s
Heartbeat CPU 0 instructions: 10000001 cycles: 2500101 heartbeat IPC: 4 cumulative IPC: 4 (Simulation time: 00 hr 00 min 21 sec)
Heartbeat CPU 0 instructions: 20000003 cycles: 5000124 heartbeat IPC: 4 cumulative IPC: 4 (Simulation time: 00 hr 00 min 42 sec)
Warmup finished CPU 0 instructions: 25000002 cycles: 6250163 cumulative IPC: 4 (Simulation time: 00 hr 00 min 53 sec)
Warmup complete CPU 0 instructions: 25000002 cycles: 6250163 cumulative IPC: 4 (Simulation time: 00 hr 00 min 53 sec)
Heartbeat CPU 0 instructions: 30000000 cycles: 12443156 heartbeat IPC: 1.344 cumulative IPC: 0.8074 (Simulation time: 00 hr 01 min 19 sec)
Heartbeat CPU 0 instructions: 40000000 cycles: 23920859 heartbeat IPC: 0.8713 cumulative IPC: 0.8489 (Simulation time: 00 hr 02 min 10 sec)
Heartbeat CPU 0 instructions: 50000001 cycles: 36015129 heartbeat IPC: 0.8268 cumulative IPC: 0.8399 (Simulation time: 00 hr 03 min 02 sec)
Heartbeat CPU 0 instructions: 60000002 cycles: 47963239 heartbeat IPC: 0.837 cumulative IPC: 0.8391 (Simulation time: 00 hr 03 min 54 sec)
Heartbeat CPU 0 instructions: 70000000 cycles: 59364204 heartbeat IPC: 0.8771 cumulative IPC: 0.8472 (Simulation time: 00 hr 04 min 45 sec)
Heartbeat CPU 0 instructions: 80000000 cycles: 71541420 heartbeat IPC: 0.8212 cumulative IPC: 0.8424 (Simulation time: 00 hr 05 min 37 sec)
Heartbeat CPU 0 instructions: 90000002 cycles: 83146515 heartbeat IPC: 0.8617 cumulative IPC: 0.8453 (Simulation time: 00 hr 06 min 29 sec)
Heartbeat CPU 0 instructions: 100000000 cycles: 95074825 heartbeat IPC: 0.8383 cumulative IPC: 0.8444 (Simulation time: 00 hr 07 min 21 sec)
*** Reached end of trace: (0, "../traces/secret_traces/srv/srv697.champsimtrace.xz")
Heartbeat CPU 0 instructions: 110000002 cycles: 106741591 heartbeat IPC: 0.8571 cumulative IPC: 0.8458 (Simulation time: 00 hr 08 min 12 sec)
Heartbeat CPU 0 instructions: 120000000 cycles: 118511138 heartbeat IPC: 0.8497 cumulative IPC: 0.8462 (Simulation time: 00 hr 09 min 04 sec)
Simulation finished CPU 0 instructions: 100000000 cycles: 118297898 cumulative IPC: 0.8453 (Simulation time: 00 hr 09 min 30 sec)
Simulation complete CPU 0 instructions: 100000000 cycles: 118297898 cumulative IPC: 0.8453 (Simulation time: 00 hr 09 min 30 sec)

ChampSim completed all CPUs

=== Simulation ===
CPU 0 runs ../traces/secret_traces/srv/srv697.champsimtrace.xz
Region of Interest Statistics

CPU 0 cumulative IPC: 0.8453 instructions: 100000000 cycles: 118297898
CPU 0 Branch Prediction Accuracy: 85.72% MPKI: 25.64 Average ROB Occupancy at Mispredict: 20.75
Branch type MPKI
BRANCH_DIRECT_JUMP: 0.394
BRANCH_INDIRECT: 14.4
BRANCH_CONDITIONAL: 9.08
BRANCH_DIRECT_CALL: 0.727
BRANCH_INDIRECT_CALL: 0.484
BRANCH_RETURN: 0.55

LLC TOTAL        ACCESS:    1923296 HIT:    1736266 MISS:     187030
LLC LOAD         ACCESS:    1408318 HIT:    1276943 MISS:     131375
LLC RFO          ACCESS:      90935 HIT:      66410 MISS:      24525
LLC PREFETCH     ACCESS:          0 HIT:          0 MISS:          0
LLC WRITE        ACCESS:     278631 HIT:     278348 MISS:        283
LLC TRANSLATION  ACCESS:     145412 HIT:     114565 MISS:      30847
LLC PREFETCH REQUESTED:          0 ISSUED:          0 USEFUL:          0 USELESS:          0
LLC AVERAGE MISS LATENCY: 160.9 cycles
cpu0_DTLB TOTAL        ACCESS:   21799261 HIT:   20225142 MISS:    1574119
cpu0_DTLB LOAD         ACCESS:   21799261 HIT:   20225142 MISS:    1574119
cpu0_DTLB RFO          ACCESS:          0 HIT:          0 MISS:          0
cpu0_DTLB PREFETCH     ACCESS:          0 HIT:          0 MISS:          0
cpu0_DTLB WRITE        ACCESS:          0 HIT:          0 MISS:          0
cpu0_DTLB TRANSLATION  ACCESS:          0 HIT:          0 MISS:          0
cpu0_DTLB PREFETCH REQUESTED:          0 ISSUED:          0 USEFUL:          0 USELESS:          0
cpu0_DTLB AVERAGE MISS LATENCY: 12.13 cycles
cpu0_ITLB TOTAL        ACCESS:    9328707 HIT:    8501672 MISS:     827035
cpu0_ITLB LOAD         ACCESS:    9328707 HIT:    8501672 MISS:     827035
cpu0_ITLB RFO          ACCESS:          0 HIT:          0 MISS:          0
cpu0_ITLB PREFETCH     ACCESS:          0 HIT:          0 MISS:          0
cpu0_ITLB WRITE        ACCESS:          0 HIT:          0 MISS:          0
cpu0_ITLB TRANSLATION  ACCESS:          0 HIT:          0 MISS:          0
cpu0_ITLB PREFETCH REQUESTED:          0 ISSUED:          0 USEFUL:          0 USELESS:          0
cpu0_ITLB AVERAGE MISS LATENCY: 6.505 cycles
cpu0_L1D TOTAL        ACCESS:   26889936 HIT:   24766590 MISS:    2123346
cpu0_L1D LOAD         ACCESS:   16595945 HIT:   15078291 MISS:    1517654
cpu0_L1D RFO          ACCESS:          0 HIT:          0 MISS:          0
cpu0_L1D PREFETCH     ACCESS:          0 HIT:          0 MISS:          0
cpu0_L1D WRITE        ACCESS:   10083744 HIT:    9664794 MISS:     418950
cpu0_L1D TRANSLATION  ACCESS:     210247 HIT:      23505 MISS:     186742
cpu0_L1D PREFETCH REQUESTED:          0 ISSUED:          0 USEFUL:          0 USELESS:          0
cpu0_L1D AVERAGE MISS LATENCY: 25.65 cycles
cpu0_L1I TOTAL        ACCESS:   10470295 HIT:    6982948 MISS:    3487347
cpu0_L1I LOAD         ACCESS:   10470295 HIT:    6982948 MISS:    3487347
cpu0_L1I RFO          ACCESS:          0 HIT:          0 MISS:          0
cpu0_L1I PREFETCH     ACCESS:          0 HIT:          0 MISS:          0
cpu0_L1I WRITE        ACCESS:          0 HIT:          0 MISS:          0
cpu0_L1I TRANSLATION  ACCESS:          0 HIT:          0 MISS:          0
cpu0_L1I PREFETCH REQUESTED:          0 ISSUED:          0 USEFUL:          0 USELESS:          0
cpu0_L1I AVERAGE MISS LATENCY: 12.84 cycles
cpu0_L2C TOTAL        ACCESS:    4537049 HIT:    2889179 MISS:    1647870
cpu0_L2C LOAD         ACCESS:    3653607 HIT:    2245289 MISS:    1408318
cpu0_L2C RFO          ACCESS:     174942 HIT:      84007 MISS:      90935
cpu0_L2C PREFETCH     ACCESS:          0 HIT:          0 MISS:          0
cpu0_L2C WRITE        ACCESS:     522762 HIT:     519557 MISS:       3205
cpu0_L2C TRANSLATION  ACCESS:     185738 HIT:      40326 MISS:     145412
cpu0_L2C PREFETCH REQUESTED:          0 ISSUED:          0 USEFUL:          0 USELESS:          0
cpu0_L2C AVERAGE MISS LATENCY: 38.34 cycles
cpu0_STLB TOTAL        ACCESS:    1618694 HIT:    1458810 MISS:     159884
cpu0_STLB LOAD         ACCESS:    1618694 HIT:    1458810 MISS:     159884
cpu0_STLB RFO          ACCESS:          0 HIT:          0 MISS:          0
cpu0_STLB PREFETCH     ACCESS:          0 HIT:          0 MISS:          0
cpu0_STLB WRITE        ACCESS:          0 HIT:          0 MISS:          0
cpu0_STLB TRANSLATION  ACCESS:          0 HIT:          0 MISS:          0
cpu0_STLB PREFETCH REQUESTED:          0 ISSUED:          0 USEFUL:          0 USELESS:          0
cpu0_STLB AVERAGE MISS LATENCY: 84.79 cycles

DRAM Statistics

Channel 0 RQ ROW_BUFFER_HIT:      41304
  ROW_BUFFER_MISS:     145443
 AVG DBUS CONGESTED CYCLE: 3.931
WQ ROW_BUFFER_HIT: Channel 0 
  ROW_BUFFER_MISS:      21782
  FULL:      87186
