WARNING: physical memory size is smaller than virtual memory size.

*** ChampSim Multicore Out-of-Order Simulator ***
Warmup Instructions: 25000000
Simulation Instructions: 100000000
Number of CPUs: 1
Page size: 4096

Off-chip DRAM Size: 4 GiB Channels: 1 Width: 64-bit Data Race: 3200 MT/s
Heartbeat CPU 0 instructions: 10000003 cycles: 2500136 heartbeat IPC: 4 cumulative IPC: 4 (Simulation time: 00 hr 00 min 21 sec)
Heartbeat CPU 0 instructions: 20000003 cycles: 5000136 heartbeat IPC: 4 cumulative IPC: 4 (Simulation time: 00 hr 00 min 43 sec)
Warmup finished CPU 0 instructions: 25000003 cycles: 6250137 cumulative IPC: 4 (Simulation time: 00 hr 00 min 53 sec)
Warmup complete CPU 0 instructions: 25000003 cycles: 6250137 cumulative IPC: 4 (Simulation time: 00 hr 00 min 53 sec)
Heartbeat CPU 0 instructions: 30000002 cycles: 15623439 heartbeat IPC: 0.9413 cumulative IPC: 0.5334 (Simulation time: 00 hr 01 min 28 sec)
Heartbeat CPU 0 instructions: 40000001 cycles: 30176768 heartbeat IPC: 0.6871 cumulative IPC: 0.6269 (Simulation time: 00 hr 02 min 26 sec)
Heartbeat CPU 0 instructions: 50000000 cycles: 44698028 heartbeat IPC: 0.6886 cumulative IPC: 0.6502 (Simulation time: 00 hr 03 min 24 sec)
Heartbeat CPU 0 instructions: 60000001 cycles: 59161822 heartbeat IPC: 0.6914 cumulative IPC: 0.6615 (Simulation time: 00 hr 04 min 22 sec)
Heartbeat CPU 0 instructions: 70000000 cycles: 73390711 heartbeat IPC: 0.7028 cumulative IPC: 0.6702 (Simulation time: 00 hr 05 min 20 sec)
Heartbeat CPU 0 instructions: 80000001 cycles: 85424305 heartbeat IPC: 0.831 cumulative IPC: 0.6947 (Simulation time: 00 hr 06 min 09 sec)
Heartbeat CPU 0 instructions: 90000003 cycles: 101438934 heartbeat IPC: 0.6244 cumulative IPC: 0.6829 (Simulation time: 00 hr 07 min 12 sec)
Heartbeat CPU 0 instructions: 100000001 cycles: 114842389 heartbeat IPC: 0.7461 cumulative IPC: 0.6907 (Simulation time: 00 hr 08 min 07 sec)
*** Reached end of trace: (0, "../traces/secret_traces/srv/srv617.champsimtrace.xz")
Heartbeat CPU 0 instructions: 110000003 cycles: 129036386 heartbeat IPC: 0.7045 cumulative IPC: 0.6923 (Simulation time: 00 hr 09 min 05 sec)
Heartbeat CPU 0 instructions: 120000003 cycles: 143675667 heartbeat IPC: 0.6831 cumulative IPC: 0.6913 (Simulation time: 00 hr 10 min 03 sec)
Simulation finished CPU 0 instructions: 100000001 cycles: 144789479 cumulative IPC: 0.6907 (Simulation time: 00 hr 10 min 33 sec)
Simulation complete CPU 0 instructions: 100000001 cycles: 144789479 cumulative IPC: 0.6907 (Simulation time: 00 hr 10 min 33 sec)

ChampSim completed all CPUs

=== Simulation ===
CPU 0 runs ../traces/secret_traces/srv/srv617.champsimtrace.xz
Region of Interest Statistics

CPU 0 cumulative IPC: 0.6907 instructions: 100000001 cycles: 144789479
CPU 0 Branch Prediction Accuracy: 81.57% MPKI: 33.52 Average ROB Occupancy at Mispredict: 15.56
Branch type MPKI
BRANCH_DIRECT_JUMP: 0.791
BRANCH_INDIRECT: 17.9
BRANCH_CONDITIONAL: 11.4
BRANCH_DIRECT_CALL: 1.43
BRANCH_INDIRECT_CALL: 0.983
BRANCH_RETURN: 1

LLC TOTAL        ACCESS:    2326872 HIT:    2090768 MISS:     236104
LLC LOAD         ACCESS:    1731790 HIT:    1574082 MISS:     157708
LLC RFO          ACCESS:     107423 HIT:      75363 MISS:      32060
LLC PREFETCH     ACCESS:          0 HIT:          0 MISS:          0
LLC WRITE        ACCESS:     295283 HIT:     295041 MISS:        242
LLC TRANSLATION  ACCESS:     192376 HIT:     146282 MISS:      46094
LLC PREFETCH REQUESTED:          0 ISSUED:          0 USEFUL:          0 USELESS:          0
LLC AVERAGE MISS LATENCY: 160.2 cycles
cpu0_DTLB TOTAL        ACCESS:   22671375 HIT:   21238993 MISS:    1432382
cpu0_DTLB LOAD         ACCESS:   22671375 HIT:   21238993 MISS:    1432382
cpu0_DTLB RFO          ACCESS:          0 HIT:          0 MISS:          0
cpu0_DTLB PREFETCH     ACCESS:          0 HIT:          0 MISS:          0
cpu0_DTLB WRITE        ACCESS:          0 HIT:          0 MISS:          0
cpu0_DTLB TRANSLATION  ACCESS:          0 HIT:          0 MISS:          0
cpu0_DTLB PREFETCH REQUESTED:          0 ISSUED:          0 USEFUL:          0 USELESS:          0
cpu0_DTLB AVERAGE MISS LATENCY: 13.87 cycles
cpu0_ITLB TOTAL        ACCESS:    9109761 HIT:    8387660 MISS:     722101
cpu0_ITLB LOAD         ACCESS:    9109761 HIT:    8387660 MISS:     722101
cpu0_ITLB RFO          ACCESS:          0 HIT:          0 MISS:          0
cpu0_ITLB PREFETCH     ACCESS:          0 HIT:          0 MISS:          0
cpu0_ITLB WRITE        ACCESS:          0 HIT:          0 MISS:          0
cpu0_ITLB TRANSLATION  ACCESS:          0 HIT:          0 MISS:          0
cpu0_ITLB PREFETCH REQUESTED:          0 ISSUED:          0 USEFUL:          0 USELESS:          0
cpu0_ITLB AVERAGE MISS LATENCY: 10.27 cycles
cpu0_L1D TOTAL        ACCESS:   27949913 HIT:   25749531 MISS:    2200382
cpu0_L1D LOAD         ACCESS:   17719818 HIT:   16220067 MISS:    1499751
cpu0_L1D RFO          ACCESS:          0 HIT:          0 MISS:          0
cpu0_L1D PREFETCH     ACCESS:          0 HIT:          0 MISS:          0
cpu0_L1D WRITE        ACCESS:    9966317 HIT:    9501975 MISS:     464342
cpu0_L1D TRANSLATION  ACCESS:     263778 HIT:      27489 MISS:     236289
cpu0_L1D PREFETCH REQUESTED:          0 ISSUED:          0 USEFUL:          0 USELESS:          0
cpu0_L1D AVERAGE MISS LATENCY: 27.74 cycles
cpu0_L1I TOTAL        ACCESS:   10317393 HIT:    7145999 MISS:    3171394
cpu0_L1I LOAD         ACCESS:   10317393 HIT:    7145999 MISS:    3171394
cpu0_L1I RFO          ACCESS:          0 HIT:          0 MISS:          0
cpu0_L1I PREFETCH     ACCESS:          0 HIT:          0 MISS:          0
cpu0_L1I WRITE        ACCESS:          0 HIT:          0 MISS:          0
cpu0_L1I TRANSLATION  ACCESS:          0 HIT:          0 MISS:          0
cpu0_L1I PREFETCH REQUESTED:          0 ISSUED:          0 USEFUL:          0 USELESS:          0
cpu0_L1I AVERAGE MISS LATENCY: 17.13 cycles
cpu0_L2C TOTAL        ACCESS:    4489180 HIT:    2454750 MISS:    2034430
cpu0_L2C LOAD         ACCESS:    3550915 HIT:    1819125 MISS:    1731790
cpu0_L2C RFO          ACCESS:     188788 HIT:      81365 MISS:     107423
cpu0_L2C PREFETCH     ACCESS:          0 HIT:          0 MISS:          0
cpu0_L2C WRITE        ACCESS:     514184 HIT:     511343 MISS:       2841
cpu0_L2C TRANSLATION  ACCESS:     235293 HIT:      42917 MISS:     192376
cpu0_L2C PREFETCH REQUESTED:          0 ISSUED:          0 USEFUL:          0 USELESS:          0
cpu0_L2C AVERAGE MISS LATENCY: 38.68 cycles
cpu0_STLB TOTAL        ACCESS:    1503105 HIT:    1290242 MISS:     212863
cpu0_STLB LOAD         ACCESS:    1503105 HIT:    1290242 MISS:     212863
cpu0_STLB RFO          ACCESS:          0 HIT:          0 MISS:          0
cpu0_STLB PREFETCH     ACCESS:          0 HIT:          0 MISS:          0
cpu0_STLB WRITE        ACCESS:          0 HIT:          0 MISS:          0
cpu0_STLB TRANSLATION  ACCESS:          0 HIT:          0 MISS:          0
cpu0_STLB PREFETCH REQUESTED:          0 ISSUED:          0 USEFUL:          0 USELESS:          0
cpu0_STLB AVERAGE MISS LATENCY: 79.2 cycles

DRAM Statistics

Channel 0 RQ ROW_BUFFER_HIT:      42544
  ROW_BUFFER_MISS:     193315
 AVG DBUS CONGESTED CYCLE: 3.891
WQ ROW_BUFFER_HIT: Channel 0 
  ROW_BUFFER_MISS:      24718
  FULL:      85593
