WARNING: physical memory size is smaller than virtual memory size.

*** ChampSim Multicore Out-of-Order Simulator ***
Warmup Instructions: 25000000
Simulation Instructions: 100000000
Number of CPUs: 1
Page size: 4096

Off-chip DRAM Size: 4 GiB Channels: 1 Width: 64-bit Data Race: 3200 MT/s
Heartbeat CPU 0 instructions: 10000003 cycles: 2500111 heartbeat IPC: 4 cumulative IPC: 4 (Simulation time: 00 hr 00 min 22 sec)
Heartbeat CPU 0 instructions: 20000003 cycles: 5000111 heartbeat IPC: 4 cumulative IPC: 4 (Simulation time: 00 hr 00 min 45 sec)
Warmup finished CPU 0 instructions: 25000003 cycles: 6250112 cumulative IPC: 4 (Simulation time: 00 hr 00 min 56 sec)
Warmup complete CPU 0 instructions: 25000003 cycles: 6250112 cumulative IPC: 4 (Simulation time: 00 hr 00 min 56 sec)
Heartbeat CPU 0 instructions: 30000000 cycles: 14352637 heartbeat IPC: 1.069 cumulative IPC: 0.6171 (Simulation time: 00 hr 01 min 28 sec)
Heartbeat CPU 0 instructions: 40000000 cycles: 30526490 heartbeat IPC: 0.6183 cumulative IPC: 0.6179 (Simulation time: 00 hr 02 min 31 sec)
Heartbeat CPU 0 instructions: 50000001 cycles: 46690018 heartbeat IPC: 0.6187 cumulative IPC: 0.6182 (Simulation time: 00 hr 03 min 35 sec)
Heartbeat CPU 0 instructions: 60000001 cycles: 62696804 heartbeat IPC: 0.6247 cumulative IPC: 0.6201 (Simulation time: 00 hr 04 min 38 sec)
Heartbeat CPU 0 instructions: 70000000 cycles: 78717215 heartbeat IPC: 0.6242 cumulative IPC: 0.621 (Simulation time: 00 hr 05 min 41 sec)
Heartbeat CPU 0 instructions: 80000001 cycles: 94668193 heartbeat IPC: 0.6269 cumulative IPC: 0.622 (Simulation time: 00 hr 06 min 44 sec)
*** Reached end of trace: (0, "../traces/secret_traces/srv/srv694.champsimtrace.xz")
Heartbeat CPU 0 instructions: 90000004 cycles: 110694311 heartbeat IPC: 0.624 cumulative IPC: 0.6223 (Simulation time: 00 hr 07 min 46 sec)
Heartbeat CPU 0 instructions: 100000002 cycles: 126758972 heartbeat IPC: 0.6225 cumulative IPC: 0.6224 (Simulation time: 00 hr 08 min 49 sec)
Heartbeat CPU 0 instructions: 110000000 cycles: 142831182 heartbeat IPC: 0.6222 cumulative IPC: 0.6223 (Simulation time: 00 hr 09 min 51 sec)
Heartbeat CPU 0 instructions: 120000001 cycles: 158928646 heartbeat IPC: 0.6212 cumulative IPC: 0.6222 (Simulation time: 00 hr 10 min 54 sec)
Simulation finished CPU 0 instructions: 100000003 cycles: 160721735 cumulative IPC: 0.6222 (Simulation time: 00 hr 11 min 25 sec)
Simulation complete CPU 0 instructions: 100000003 cycles: 160721735 cumulative IPC: 0.6222 (Simulation time: 00 hr 11 min 25 sec)

ChampSim completed all CPUs

=== Simulation ===
CPU 0 runs ../traces/secret_traces/srv/srv694.champsimtrace.xz
Region of Interest Statistics

CPU 0 cumulative IPC: 0.6222 instructions: 100000003 cycles: 160721735
CPU 0 Branch Prediction Accuracy: 70.72% MPKI: 51.97 Average ROB Occupancy at Mispredict: 3.675
Branch type MPKI
BRANCH_DIRECT_JUMP: 0.533
BRANCH_INDIRECT: 36.1
BRANCH_CONDITIONAL: 10.1
BRANCH_DIRECT_CALL: 1.63
BRANCH_INDIRECT_CALL: 2.29
BRANCH_RETURN: 1.34

LLC TOTAL        ACCESS:     574488 HIT:     565967 MISS:       8521
LLC LOAD         ACCESS:     377062 HIT:     368647 MISS:       8415
LLC RFO          ACCESS:      72930 HIT:      72897 MISS:         33
LLC PREFETCH     ACCESS:          0 HIT:          0 MISS:          0
LLC WRITE        ACCESS:     124018 HIT:     124017 MISS:          1
LLC TRANSLATION  ACCESS:        478 HIT:        406 MISS:         72
LLC PREFETCH REQUESTED:          0 ISSUED:          0 USEFUL:          0 USELESS:          0
LLC AVERAGE MISS LATENCY: 196.3 cycles
cpu0_DTLB TOTAL        ACCESS:   27811858 HIT:   26682457 MISS:    1129401
cpu0_DTLB LOAD         ACCESS:   27811858 HIT:   26682457 MISS:    1129401
cpu0_DTLB RFO          ACCESS:          0 HIT:          0 MISS:          0
cpu0_DTLB PREFETCH     ACCESS:          0 HIT:          0 MISS:          0
cpu0_DTLB WRITE        ACCESS:          0 HIT:          0 MISS:          0
cpu0_DTLB TRANSLATION  ACCESS:          0 HIT:          0 MISS:          0
cpu0_DTLB PREFETCH REQUESTED:          0 ISSUED:          0 USEFUL:          0 USELESS:          0
cpu0_DTLB AVERAGE MISS LATENCY: 6.758 cycles
cpu0_ITLB TOTAL        ACCESS:   12065595 HIT:    9696357 MISS:    2369238
cpu0_ITLB LOAD         ACCESS:   12065595 HIT:    9696357 MISS:    2369238
cpu0_ITLB RFO          ACCESS:          0 HIT:          0 MISS:          0
cpu0_ITLB PREFETCH     ACCESS:          0 HIT:          0 MISS:          0
cpu0_ITLB WRITE        ACCESS:          0 HIT:          0 MISS:          0
cpu0_ITLB TRANSLATION  ACCESS:          0 HIT:          0 MISS:          0
cpu0_ITLB PREFETCH REQUESTED:          0 ISSUED:          0 USEFUL:          0 USELESS:          0
cpu0_ITLB AVERAGE MISS LATENCY: 2.949 cycles
cpu0_L1D TOTAL        ACCESS:   34842233 HIT:   31219455 MISS:    3622778
cpu0_L1D LOAD         ACCESS:   20839234 HIT:   18881941 MISS:    1957293
cpu0_L1D RFO          ACCESS:          0 HIT:          0 MISS:          0
cpu0_L1D PREFETCH     ACCESS:          0 HIT:          0 MISS:          0
cpu0_L1D WRITE        ACCESS:   14002288 HIT:   12337509 MISS:    1664779
cpu0_L1D TRANSLATION  ACCESS:        711 HIT:          5 MISS:        706
cpu0_L1D PREFETCH REQUESTED:          0 ISSUED:          0 USEFUL:          0 USELESS:          0
cpu0_L1D AVERAGE MISS LATENCY: 7.357 cycles
cpu0_L1I TOTAL        ACCESS:   13604628 HIT:    5863930 MISS:    7740698
cpu0_L1I LOAD         ACCESS:   13604628 HIT:    5863930 MISS:    7740698
cpu0_L1I RFO          ACCESS:          0 HIT:          0 MISS:          0
cpu0_L1I PREFETCH     ACCESS:          0 HIT:          0 MISS:          0
cpu0_L1I WRITE        ACCESS:          0 HIT:          0 MISS:          0
cpu0_L1I TRANSLATION  ACCESS:          0 HIT:          0 MISS:          0
cpu0_L1I PREFETCH REQUESTED:          0 ISSUED:          0 USEFUL:          0 USELESS:          0
cpu0_L1I AVERAGE MISS LATENCY: 8.312 cycles
cpu0_L2C TOTAL        ACCESS:    9489317 HIT:    9028792 MISS:     460525
cpu0_L2C LOAD         ACCESS:    7751300 HIT:    7374238 MISS:     377062
cpu0_L2C RFO          ACCESS:     585426 HIT:     512495 MISS:      72931
cpu0_L2C PREFETCH     ACCESS:          0 HIT:          0 MISS:          0
cpu0_L2C WRITE        ACCESS:    1151885 HIT:    1141831 MISS:      10054
cpu0_L2C TRANSLATION  ACCESS:        706 HIT:        228 MISS:        478
cpu0_L2C PREFETCH REQUESTED:          0 ISSUED:          0 USEFUL:          0 USELESS:          0
cpu0_L2C AVERAGE MISS LATENCY: 23.22 cycles
cpu0_STLB TOTAL        ACCESS:    2119989 HIT:    2119298 MISS:        691
cpu0_STLB LOAD         ACCESS:    2119989 HIT:    2119298 MISS:        691
cpu0_STLB RFO          ACCESS:          0 HIT:          0 MISS:          0
cpu0_STLB PREFETCH     ACCESS:          0 HIT:          0 MISS:          0
cpu0_STLB WRITE        ACCESS:          0 HIT:          0 MISS:          0
cpu0_STLB TRANSLATION  ACCESS:          0 HIT:          0 MISS:          0
cpu0_STLB PREFETCH REQUESTED:          0 ISSUED:          0 USEFUL:          0 USELESS:          0
cpu0_STLB AVERAGE MISS LATENCY: 77.66 cycles

DRAM Statistics

Channel 0 RQ ROW_BUFFER_HIT:       3858
  ROW_BUFFER_MISS:       4662
 AVG DBUS CONGESTED CYCLE: 3.953
WQ ROW_BUFFER_HIT: Channel 0 
  ROW_BUFFER_MISS:          0
  FULL:          8
