WARNING: physical memory size is smaller than virtual memory size.

*** ChampSim Multicore Out-of-Order Simulator ***
Warmup Instructions: 25000000
Simulation Instructions: 100000000
Number of CPUs: 1
Page size: 4096

Off-chip DRAM Size: 4 GiB Channels: 1 Width: 64-bit Data Race: 3200 MT/s
Heartbeat CPU 0 instructions: 10000002 cycles: 2500070 heartbeat IPC: 4 cumulative IPC: 4 (Simulation time: 00 hr 00 min 22 sec)
Heartbeat CPU 0 instructions: 20000002 cycles: 5000070 heartbeat IPC: 4 cumulative IPC: 4 (Simulation time: 00 hr 00 min 44 sec)
Warmup finished CPU 0 instructions: 25000002 cycles: 6250071 cumulative IPC: 4 (Simulation time: 00 hr 00 min 56 sec)
Warmup complete CPU 0 instructions: 25000002 cycles: 6250071 cumulative IPC: 4 (Simulation time: 00 hr 00 min 56 sec)
Heartbeat CPU 0 instructions: 30000001 cycles: 12571005 heartbeat IPC: 1.321 cumulative IPC: 0.791 (Simulation time: 00 hr 01 min 23 sec)
Heartbeat CPU 0 instructions: 40000001 cycles: 25676664 heartbeat IPC: 0.763 cumulative IPC: 0.7721 (Simulation time: 00 hr 02 min 19 sec)
Heartbeat CPU 0 instructions: 50000004 cycles: 37956433 heartbeat IPC: 0.8143 cumulative IPC: 0.7885 (Simulation time: 00 hr 03 min 12 sec)
Heartbeat CPU 0 instructions: 60000004 cycles: 50421863 heartbeat IPC: 0.8022 cumulative IPC: 0.7924 (Simulation time: 00 hr 04 min 06 sec)
Heartbeat CPU 0 instructions: 70000004 cycles: 63878821 heartbeat IPC: 0.7431 cumulative IPC: 0.7809 (Simulation time: 00 hr 05 min 03 sec)
Heartbeat CPU 0 instructions: 80000000 cycles: 76524501 heartbeat IPC: 0.7908 cumulative IPC: 0.7826 (Simulation time: 00 hr 05 min 58 sec)
Heartbeat CPU 0 instructions: 90000000 cycles: 89777047 heartbeat IPC: 0.7546 cumulative IPC: 0.7782 (Simulation time: 00 hr 06 min 54 sec)
Heartbeat CPU 0 instructions: 100000000 cycles: 102206207 heartbeat IPC: 0.8046 cumulative IPC: 0.7816 (Simulation time: 00 hr 07 min 48 sec)
*** Reached end of trace: (0, "../traces/secret_traces/srv/srv783.champsimtrace.xz")
Heartbeat CPU 0 instructions: 110000002 cycles: 114652868 heartbeat IPC: 0.8034 cumulative IPC: 0.7841 (Simulation time: 00 hr 08 min 42 sec)
Heartbeat CPU 0 instructions: 120000001 cycles: 128003400 heartbeat IPC: 0.749 cumulative IPC: 0.7803 (Simulation time: 00 hr 09 min 39 sec)
Simulation finished CPU 0 instructions: 100000000 cycles: 128092722 cumulative IPC: 0.7807 (Simulation time: 00 hr 10 min 06 sec)
Simulation complete CPU 0 instructions: 100000000 cycles: 128092722 cumulative IPC: 0.7807 (Simulation time: 00 hr 10 min 06 sec)

ChampSim completed all CPUs

=== Simulation ===
CPU 0 runs ../traces/secret_traces/srv/srv783.champsimtrace.xz
Region of Interest Statistics

CPU 0 cumulative IPC: 0.7807 instructions: 100000000 cycles: 128092722
CPU 0 Branch Prediction Accuracy: 80.39% MPKI: 36.43 Average ROB Occupancy at Mispredict: 5.496
Branch type MPKI
BRANCH_DIRECT_JUMP: 0.0831
BRANCH_INDIRECT: 25.9
BRANCH_CONDITIONAL: 8.6
BRANCH_DIRECT_CALL: 0.0845
BRANCH_INDIRECT_CALL: 1.72
BRANCH_RETURN: 0.0855

LLC TOTAL        ACCESS:     581033 HIT:     509838 MISS:      71195
LLC LOAD         ACCESS:     338217 HIT:     280308 MISS:      57909
LLC RFO          ACCESS:      49193 HIT:      37671 MISS:      11522
LLC PREFETCH     ACCESS:          0 HIT:          0 MISS:          0
LLC WRITE        ACCESS:     189319 HIT:     189036 MISS:        283
LLC TRANSLATION  ACCESS:       4304 HIT:       2823 MISS:       1481
LLC PREFETCH REQUESTED:          0 ISSUED:          0 USEFUL:          0 USELESS:          0
LLC AVERAGE MISS LATENCY: 178.5 cycles
cpu0_DTLB TOTAL        ACCESS:   24274082 HIT:   23240684 MISS:    1033398
cpu0_DTLB LOAD         ACCESS:   24274082 HIT:   23240684 MISS:    1033398
cpu0_DTLB RFO          ACCESS:          0 HIT:          0 MISS:          0
cpu0_DTLB PREFETCH     ACCESS:          0 HIT:          0 MISS:          0
cpu0_DTLB WRITE        ACCESS:          0 HIT:          0 MISS:          0
cpu0_DTLB TRANSLATION  ACCESS:          0 HIT:          0 MISS:          0
cpu0_DTLB PREFETCH REQUESTED:          0 ISSUED:          0 USEFUL:          0 USELESS:          0
cpu0_DTLB AVERAGE MISS LATENCY: 6.53 cycles
cpu0_ITLB TOTAL        ACCESS:   11885560 HIT:    9626911 MISS:    2258649
cpu0_ITLB LOAD         ACCESS:   11885560 HIT:    9626911 MISS:    2258649
cpu0_ITLB RFO          ACCESS:          0 HIT:          0 MISS:          0
cpu0_ITLB PREFETCH     ACCESS:          0 HIT:          0 MISS:          0
cpu0_ITLB WRITE        ACCESS:          0 HIT:          0 MISS:          0
cpu0_ITLB TRANSLATION  ACCESS:          0 HIT:          0 MISS:          0
cpu0_ITLB PREFETCH REQUESTED:          0 ISSUED:          0 USEFUL:          0 USELESS:          0
cpu0_ITLB AVERAGE MISS LATENCY: 2.441 cycles
cpu0_L1D TOTAL        ACCESS:   30872110 HIT:   29141705 MISS:    1730405
cpu0_L1D LOAD         ACCESS:   18409097 HIT:   17113189 MISS:    1295908
cpu0_L1D RFO          ACCESS:          0 HIT:          0 MISS:          0
cpu0_L1D PREFETCH     ACCESS:          0 HIT:          0 MISS:          0
cpu0_L1D WRITE        ACCESS:   12456893 HIT:   12028282 MISS:     428611
cpu0_L1D TRANSLATION  ACCESS:       6120 HIT:        234 MISS:       5886
cpu0_L1D PREFETCH REQUESTED:          0 ISSUED:          0 USEFUL:          0 USELESS:          0
cpu0_L1D AVERAGE MISS LATENCY: 16.72 cycles
cpu0_L1I TOTAL        ACCESS:   13497325 HIT:    5034388 MISS:    8462937
cpu0_L1I LOAD         ACCESS:   13497325 HIT:    5034388 MISS:    8462937
cpu0_L1I RFO          ACCESS:          0 HIT:          0 MISS:          0
cpu0_L1I PREFETCH     ACCESS:          0 HIT:          0 MISS:          0
cpu0_L1I WRITE        ACCESS:          0 HIT:          0 MISS:          0
cpu0_L1I TRANSLATION  ACCESS:          0 HIT:          0 MISS:          0
cpu0_L1I PREFETCH REQUESTED:          0 ISSUED:          0 USEFUL:          0 USELESS:          0
cpu0_L1I AVERAGE MISS LATENCY: 7.228 cycles
cpu0_L2C TOTAL        ACCESS:    7978437 HIT:    7583359 MISS:     395078
cpu0_L2C LOAD         ACCESS:    7347670 HIT:    7009453 MISS:     338217
cpu0_L2C RFO          ACCESS:     176826 HIT:     127633 MISS:      49193
cpu0_L2C PREFETCH     ACCESS:          0 HIT:          0 MISS:          0
cpu0_L2C WRITE        ACCESS:     448055 HIT:     444691 MISS:       3364
cpu0_L2C TRANSLATION  ACCESS:       5886 HIT:       1582 MISS:       4304
cpu0_L2C PREFETCH REQUESTED:          0 ISSUED:          0 USEFUL:          0 USELESS:          0
cpu0_L2C AVERAGE MISS LATENCY: 52.23 cycles
cpu0_STLB TOTAL        ACCESS:    1802743 HIT:    1796886 MISS:       5857
cpu0_STLB LOAD         ACCESS:    1802743 HIT:    1796886 MISS:       5857
cpu0_STLB RFO          ACCESS:          0 HIT:          0 MISS:          0
cpu0_STLB PREFETCH     ACCESS:          0 HIT:          0 MISS:          0
cpu0_STLB WRITE        ACCESS:          0 HIT:          0 MISS:          0
cpu0_STLB TRANSLATION  ACCESS:          0 HIT:          0 MISS:          0
cpu0_STLB PREFETCH REQUESTED:          0 ISSUED:          0 USEFUL:          0 USELESS:          0
cpu0_STLB AVERAGE MISS LATENCY: 97.14 cycles

DRAM Statistics

Channel 0 RQ ROW_BUFFER_HIT:      12142
  ROW_BUFFER_MISS:      58761
 AVG DBUS CONGESTED CYCLE: 3.883
WQ ROW_BUFFER_HIT: Channel 0 
  ROW_BUFFER_MISS:       9369
  FULL:      29548
