WARNING: physical memory size is smaller than virtual memory size.

*** ChampSim Multicore Out-of-Order Simulator ***
Warmup Instructions: 30000000
Simulation Instructions: 100000000
Number of CPUs: 1
Page size: 4096

BTB:
Basic BTB sets: 1024 ways: 8
Indirect:
history lengths: 0 0 10 16 27 44 60 96 109 219 449 487 714 1313 2146 3881 
ITTAGE tables: 64768 bytes;Region table: 240 bytes;IUM: 384 bytes;Total Storage= 65392 bytes;
RAS:
RAS size: 64
[LLC] Demand IPV: 1 2 2 1 4 Prefetch IPV: 1 2 1 1 4
Berti Prefetcher
CPU 0 Entangling prefetcher
Off-chip DRAM Size: 8 GiB Channels: 2 Width: 64-bit Data Race: 6400 MT/s
Heartbeat CPU 0 instructions: 10000002 cycles: 3184879 heartbeat IPC: 3.14 cumulative IPC: 3.14 (Simulation time: 00 hr 00 min 54 sec)
Heartbeat CPU 0 instructions: 20000006 cycles: 6530378 heartbeat IPC: 2.989 cumulative IPC: 3.063 (Simulation time: 00 hr 01 min 49 sec)
Heartbeat CPU 0 instructions: 30000009 cycles: 9920837 heartbeat IPC: 2.949 cumulative IPC: 3.024 (Simulation time: 00 hr 02 min 44 sec)
Warmup finished CPU 0 instructions: 30000009 cycles: 9920838 cumulative IPC: 3.024 (Simulation time: 00 hr 02 min 44 sec)
Warmup complete CPU 0 instructions: 30000009 cycles: 9920838 cumulative IPC: 3.024 (Simulation time: 00 hr 02 min 44 sec)
Heartbeat CPU 0 instructions: 40000000 cycles: 14974677 heartbeat IPC: 1.979 cumulative IPC: 1.979 (Simulation time: 00 hr 04 min 01 sec)
Heartbeat CPU 0 instructions: 50000004 cycles: 19946295 heartbeat IPC: 2.011 cumulative IPC: 1.995 (Simulation time: 00 hr 05 min 15 sec)
Heartbeat CPU 0 instructions: 60000010 cycles: 24598166 heartbeat IPC: 2.15 cumulative IPC: 2.044 (Simulation time: 00 hr 06 min 27 sec)
Heartbeat CPU 0 instructions: 70000001 cycles: 29360228 heartbeat IPC: 2.1 cumulative IPC: 2.058 (Simulation time: 00 hr 07 min 40 sec)
Heartbeat CPU 0 instructions: 80000000 cycles: 34432015 heartbeat IPC: 1.972 cumulative IPC: 2.04 (Simulation time: 00 hr 08 min 54 sec)
Heartbeat CPU 0 instructions: 90000002 cycles: 39474438 heartbeat IPC: 1.983 cumulative IPC: 2.03 (Simulation time: 00 hr 10 min 09 sec)
Heartbeat CPU 0 instructions: 100000001 cycles: 44726239 heartbeat IPC: 1.904 cumulative IPC: 2.011 (Simulation time: 00 hr 11 min 25 sec)
*** Reached end of trace: (0, "../traces/secret_traces/compute_int/compute_int_123.champsimtrace.xz")
Heartbeat CPU 0 instructions: 110000000 cycles: 50164960 heartbeat IPC: 1.839 cumulative IPC: 1.988 (Simulation time: 00 hr 12 min 44 sec)
Heartbeat CPU 0 instructions: 120000000 cycles: 55628409 heartbeat IPC: 1.83 cumulative IPC: 1.969 (Simulation time: 00 hr 14 min 08 sec)
Heartbeat CPU 0 instructions: 130000007 cycles: 61324940 heartbeat IPC: 1.755 cumulative IPC: 1.945 (Simulation time: 00 hr 15 min 29 sec)
Simulation finished CPU 0 instructions: 100000000 cycles: 51404109 cumulative IPC: 1.945 (Simulation time: 00 hr 15 min 29 sec)
Simulation complete CPU 0 instructions: 100000000 cycles: 51404109 cumulative IPC: 1.945 (Simulation time: 00 hr 15 min 29 sec)

ChampSim completed all CPUs

=== Simulation ===
CPU 0 runs ../traces/secret_traces/compute_int/compute_int_123.champsimtrace.xz
Region of Interest Statistics

CPU 0 cumulative IPC: 1.945 instructions: 100000000 cycles: 51404109
CPU 0 Branch Prediction Accuracy: 99.82% MPKI: 0.3901 Average ROB Occupancy at Mispredict: 112.8
Branch type MPKI
BRANCH_DIRECT_JUMP: 0.00786
BRANCH_INDIRECT: 0.231
BRANCH_CONDITIONAL: 0.12
BRANCH_DIRECT_CALL: 0.019
BRANCH_INDIRECT_CALL: 0.00249
BRANCH_RETURN: 0.00999

LLC TOTAL        ACCESS:   22213914 HIT:   20670570 MISS:    1543344
LLC LOAD         ACCESS:     741301 HIT:     697970 MISS:      43331
LLC RFO          ACCESS:   10291978 HIT:    9563468 MISS:     728510
LLC PREFETCH     ACCESS:     777984 HIT:     712492 MISS:      65492
LLC WRITE        ACCESS:   10400606 HIT:    9696461 MISS:     704145
LLC TRANSLATION  ACCESS:       2045 HIT:        179 MISS:       1866
LLC PREFETCH REQUESTED:          0 ISSUED:          0 USEFUL:          0 USELESS:          0
LLC AVERAGE MISS LATENCY: 138.8 cycles
cpu0_DTLB TOTAL        ACCESS:   20911104 HIT:   19728084 MISS:    1183020
cpu0_DTLB LOAD         ACCESS:   20911104 HIT:   19728084 MISS:    1183020
cpu0_DTLB RFO          ACCESS:          0 HIT:          0 MISS:          0
cpu0_DTLB PREFETCH     ACCESS:          0 HIT:          0 MISS:          0
cpu0_DTLB WRITE        ACCESS:          0 HIT:          0 MISS:          0
cpu0_DTLB TRANSLATION  ACCESS:          0 HIT:          0 MISS:          0
cpu0_DTLB PREFETCH REQUESTED:          0 ISSUED:          0 USEFUL:          0 USELESS:          0
cpu0_DTLB AVERAGE MISS LATENCY: 2.279 cycles
cpu0_ITLB TOTAL        ACCESS:    7892909 HIT:    7880950 MISS:      11959
cpu0_ITLB LOAD         ACCESS:    7892909 HIT:    7880950 MISS:      11959
cpu0_ITLB RFO          ACCESS:          0 HIT:          0 MISS:          0
cpu0_ITLB PREFETCH     ACCESS:          0 HIT:          0 MISS:          0
cpu0_ITLB WRITE        ACCESS:          0 HIT:          0 MISS:          0
cpu0_ITLB TRANSLATION  ACCESS:          0 HIT:          0 MISS:          0
cpu0_ITLB PREFETCH REQUESTED:          0 ISSUED:          0 USEFUL:          0 USELESS:          0
cpu0_ITLB AVERAGE MISS LATENCY: 10 cycles
cpu0_L1D TOTAL        ACCESS:   27990995 HIT:   13558983 MISS:   14432012
cpu0_L1D LOAD         ACCESS:    8823751 HIT:    7355516 MISS:    1468235
cpu0_L1D RFO          ACCESS:          0 HIT:          0 MISS:          0
cpu0_L1D PREFETCH     ACCESS:     217717 HIT:     101948 MISS:     115769
cpu0_L1D WRITE        ACCESS:   18947438 HIT:    6101499 MISS:   12845939
cpu0_L1D TRANSLATION  ACCESS:       2089 HIT:         20 MISS:       2069
cpu0_L1D PREFETCH REQUESTED:   18241071 ISSUED:     217717 USEFUL:       7195 USELESS:       1228
cpu0_L1D AVERAGE MISS LATENCY: 40.19 cycles
cpu0_L1I TOTAL        ACCESS:   11595510 HIT:    8988031 MISS:    2607479
cpu0_L1I LOAD         ACCESS:    4779316 HIT:    3531502 MISS:    1247814
cpu0_L1I RFO          ACCESS:          0 HIT:          0 MISS:          0
cpu0_L1I PREFETCH     ACCESS:    6816194 HIT:    5456529 MISS:    1359665
cpu0_L1I WRITE        ACCESS:          0 HIT:          0 MISS:          0
cpu0_L1I TRANSLATION  ACCESS:          0 HIT:          0 MISS:          0
cpu0_L1I PREFETCH REQUESTED:   24597983 ISSUED:    6816194 USEFUL:     727889 USELESS:     525359
cpu0_L1I AVERAGE MISS LATENCY: 16.51 cycles
cpu0_L2C TOTAL        ACCESS:   27129623 HIT:   14827756 MISS:   12301867
cpu0_L2C LOAD         ACCESS:    1961256 HIT:    1188767 MISS:     772489
cpu0_L2C RFO          ACCESS:   10337447 HIT:      44679 MISS:   10292768
cpu0_L2C PREFETCH     ACCESS:    4328241 HIT:    3093676 MISS:    1234565
cpu0_L2C WRITE        ACCESS:   10500626 HIT:   10500626 MISS:          0
cpu0_L2C TRANSLATION  ACCESS:       2053 HIT:          8 MISS:       2045
cpu0_L2C PREFETCH REQUESTED:    3274297 ISSUED:    3015234 USEFUL:     163855 USELESS:     257813
cpu0_L2C AVERAGE MISS LATENCY: 37.54 cycles
cpu0_STLB TOTAL        ACCESS:     466583 HIT:     464971 MISS:       1612
cpu0_STLB LOAD         ACCESS:     466583 HIT:     464971 MISS:       1612
cpu0_STLB RFO          ACCESS:          0 HIT:          0 MISS:          0
cpu0_STLB PREFETCH     ACCESS:          0 HIT:          0 MISS:          0
cpu0_STLB WRITE        ACCESS:          0 HIT:          0 MISS:          0
cpu0_STLB TRANSLATION  ACCESS:          0 HIT:          0 MISS:          0
cpu0_STLB PREFETCH REQUESTED:          0 ISSUED:          0 USEFUL:          0 USELESS:          0
cpu0_STLB AVERAGE MISS LATENCY: 436.7 cycles

DRAM Statistics

Channel 0 RQ ROW_BUFFER_HIT:     187249
  ROW_BUFFER_MISS:     230543
 AVG DBUS CONGESTED CYCLE: 3.941
WQ ROW_BUFFER_HIT: Channel 0 
  ROW_BUFFER_MISS:      58851
  FULL:     315540

Channel 1 RQ ROW_BUFFER_HIT:     188550
  ROW_BUFFER_MISS:     224988
 AVG DBUS CONGESTED CYCLE: 3.941
WQ ROW_BUFFER_HIT: Channel 1 
  ROW_BUFFER_MISS:      60698
  FULL:     315567
BERTI TO_L1: 2036445 TO_L2: 18725186 TO_L2_BC_MSHR: 9591713
BERTI AVG_LAT: 29.5789 NUM_TRACK_LATENCY: 1629840 NUM_CANT_TRACK_LATENCY: 0
BERTI CROSS_PAGE 2579806 NO_CROSS_PAGE: 18181825
BERTI FOUND_BERTI: 4368007 NO_FOUND_BERTI: 10101734
BERTI AVERAGE_ISSUED: 2.94623
CPU 0 L1I Entangling prefetcher final stats
IP accesses: c16a 305a80 77907 / 4895058
IP misses: c02c 300b00 5657 / 1363556
IP hits: 0 0 0 / 0
IP late: c1ab 306ac0 2156 / 481568
IP wrong: c039 300e40 2959 / 518073
miss rate: 0.278558
coverage: 0
coverage_late: 0.353171
accuracy: 0
accuracy_late: 0.481741
discarded: 0
evicts entangled j table: 0
evicts entangled k table: 165010
max bb size: 16
formats: 20 0 133765 26462 22834 28577 0 
hist_lookups: 34576 60627 81400 95871 93741 83825 68950 52917 41153 31095 23340 15802 9333 5745 2317 0 4017 245395 
hist_lookups_evict: 0.422796 %
hist_lookups_shortlat: 25.8283 %
bb_found_hist: 0 1263798 650021 395948 165682 121902 58427 16577 4872 3814 257 1855 536 0 1552 0 286 0 0 0 0 0 0 0 0 0 0 0 0 0 0 0 0 0 0 0 0 0 0 0 0 0 0 0 0 0 0 0 0 0 0 0 0 0 0 0 0 0 0 0 0 0 0 0 
bb_found_summary: 5619536 2685527 2.09253
entangled_found_hist: 0 359297 481842 1806365 195724 108865 12089 0 
entangled_found_summary: 8141831 2964182 2.74674
bb_ent_found_hist: 0 2780408 1406269 751333 524794 405327 130093 30136 7874 10439 776 12523 0 0 6818 0 2655 0 0 0 0 0 0 0 0 0 0 0 0 0 0 0 0 0 0 0 0 0 0 0 0 0 0 0 0 0 0 0 0 0 0 0 0 0 0 0 0 0 0 0 0 0 0 0 
bb_ent_found_summary: 13404654 6069445 2.20855
