WARNING: physical memory size is smaller than virtual memory size.

*** ChampSim Multicore Out-of-Order Simulator ***
Warmup Instructions: 30000000
Simulation Instructions: 100000000
Number of CPUs: 1
Page size: 4096

BTB:
Basic BTB sets: 1024 ways: 8
Indirect:
history lengths: 0 0 10 16 27 44 60 96 109 219 449 487 714 1313 2146 3881 
ITTAGE tables: 64768 bytes;Region table: 240 bytes;IUM: 384 bytes;Total Storage= 65392 bytes;
RAS:
RAS size: 64
[LLC] Demand IPV: 1 2 2 1 4 Prefetch IPV: 1 2 1 1 4
Berti Prefetcher
CPU 0 Entangling prefetcher
Off-chip DRAM Size: 8 GiB Channels: 2 Width: 64-bit Data Race: 6400 MT/s
Heartbeat CPU 0 instructions: 10000004 cycles: 1701632 heartbeat IPC: 5.877 cumulative IPC: 5.877 (Simulation time: 00 hr 00 min 36 sec)
Heartbeat CPU 0 instructions: 20000003 cycles: 3408189 heartbeat IPC: 5.86 cumulative IPC: 5.868 (Simulation time: 00 hr 01 min 12 sec)
Heartbeat CPU 0 instructions: 30000003 cycles: 5102643 heartbeat IPC: 5.902 cumulative IPC: 5.879 (Simulation time: 00 hr 01 min 48 sec)
Warmup finished CPU 0 instructions: 30000003 cycles: 5102644 cumulative IPC: 5.879 (Simulation time: 00 hr 01 min 48 sec)
Warmup complete CPU 0 instructions: 30000003 cycles: 5102644 cumulative IPC: 5.879 (Simulation time: 00 hr 01 min 48 sec)
Heartbeat CPU 0 instructions: 40000005 cycles: 9417566 heartbeat IPC: 2.318 cumulative IPC: 2.318 (Simulation time: 00 hr 02 min 42 sec)
Heartbeat CPU 0 instructions: 50000009 cycles: 13872725 heartbeat IPC: 2.245 cumulative IPC: 2.28 (Simulation time: 00 hr 03 min 36 sec)
Heartbeat CPU 0 instructions: 60000005 cycles: 18377040 heartbeat IPC: 2.22 cumulative IPC: 2.26 (Simulation time: 00 hr 04 min 32 sec)
Heartbeat CPU 0 instructions: 70000001 cycles: 22600891 heartbeat IPC: 2.368 cumulative IPC: 2.286 (Simulation time: 00 hr 05 min 28 sec)
Heartbeat CPU 0 instructions: 80000000 cycles: 26735794 heartbeat IPC: 2.418 cumulative IPC: 2.311 (Simulation time: 00 hr 06 min 31 sec)
Heartbeat CPU 0 instructions: 90000008 cycles: 31484972 heartbeat IPC: 2.106 cumulative IPC: 2.274 (Simulation time: 00 hr 07 min 30 sec)
Heartbeat CPU 0 instructions: 100000000 cycles: 34534142 heartbeat IPC: 3.28 cumulative IPC: 2.378 (Simulation time: 00 hr 08 min 18 sec)
*** Reached end of trace: (0, "../traces/secret_traces/compute_int/compute_int_584.champsimtrace.xz")
Heartbeat CPU 0 instructions: 110000002 cycles: 38671007 heartbeat IPC: 2.417 cumulative IPC: 2.383 (Simulation time: 00 hr 09 min 11 sec)
Heartbeat CPU 0 instructions: 120000004 cycles: 43468994 heartbeat IPC: 2.084 cumulative IPC: 2.346 (Simulation time: 00 hr 10 min 09 sec)
Heartbeat CPU 0 instructions: 130000002 cycles: 47899417 heartbeat IPC: 2.257 cumulative IPC: 2.337 (Simulation time: 00 hr 11 min 05 sec)
Simulation finished CPU 0 instructions: 100000004 cycles: 42796775 cumulative IPC: 2.337 (Simulation time: 00 hr 11 min 05 sec)
Simulation complete CPU 0 instructions: 100000004 cycles: 42796775 cumulative IPC: 2.337 (Simulation time: 00 hr 11 min 05 sec)

ChampSim completed all CPUs

=== Simulation ===
CPU 0 runs ../traces/secret_traces/compute_int/compute_int_584.champsimtrace.xz
Region of Interest Statistics

CPU 0 cumulative IPC: 2.337 instructions: 100000004 cycles: 42796775
CPU 0 Branch Prediction Accuracy: 91.02% MPKI: 13.79 Average ROB Occupancy at Mispredict: 13.66
Branch type MPKI
BRANCH_DIRECT_JUMP: 0.00449
BRANCH_INDIRECT: 3.34
BRANCH_CONDITIONAL: 10.4
BRANCH_DIRECT_CALL: 0.0113
BRANCH_INDIRECT_CALL: 0.00184
BRANCH_RETURN: 0.00648

LLC TOTAL        ACCESS:     473160 HIT:     386610 MISS:      86550
LLC LOAD         ACCESS:      54634 HIT:      45146 MISS:       9488
LLC RFO          ACCESS:     104380 HIT:      90998 MISS:      13382
LLC PREFETCH     ACCESS:     158806 HIT:     106478 MISS:      52328
LLC WRITE        ACCESS:     154975 HIT:     143932 MISS:      11043
LLC TRANSLATION  ACCESS:        365 HIT:         56 MISS:        309
LLC PREFETCH REQUESTED:          0 ISSUED:          0 USEFUL:          0 USELESS:          0
LLC AVERAGE MISS LATENCY: 153.3 cycles
cpu0_DTLB TOTAL        ACCESS:   22337371 HIT:   22066489 MISS:     270882
cpu0_DTLB LOAD         ACCESS:   22337371 HIT:   22066489 MISS:     270882
cpu0_DTLB RFO          ACCESS:          0 HIT:          0 MISS:          0
cpu0_DTLB PREFETCH     ACCESS:          0 HIT:          0 MISS:          0
cpu0_DTLB WRITE        ACCESS:          0 HIT:          0 MISS:          0
cpu0_DTLB TRANSLATION  ACCESS:          0 HIT:          0 MISS:          0
cpu0_DTLB PREFETCH REQUESTED:          0 ISSUED:          0 USEFUL:          0 USELESS:          0
cpu0_DTLB AVERAGE MISS LATENCY: 4.756 cycles
cpu0_ITLB TOTAL        ACCESS:     693170 HIT:     692152 MISS:       1018
cpu0_ITLB LOAD         ACCESS:     693170 HIT:     692152 MISS:       1018
cpu0_ITLB RFO          ACCESS:          0 HIT:          0 MISS:          0
cpu0_ITLB PREFETCH     ACCESS:          0 HIT:          0 MISS:          0
cpu0_ITLB WRITE        ACCESS:          0 HIT:          0 MISS:          0
cpu0_ITLB TRANSLATION  ACCESS:          0 HIT:          0 MISS:          0
cpu0_ITLB PREFETCH REQUESTED:          0 ISSUED:          0 USEFUL:          0 USELESS:          0
cpu0_ITLB AVERAGE MISS LATENCY: 35.21 cycles
cpu0_L1D TOTAL        ACCESS:   41486872 HIT:   38124446 MISS:    3362426
cpu0_L1D LOAD         ACCESS:   21098346 HIT:   19638394 MISS:    1459952
cpu0_L1D RFO          ACCESS:          0 HIT:          0 MISS:          0
cpu0_L1D PREFETCH     ACCESS:   13653136 HIT:   12187137 MISS:    1465999
cpu0_L1D WRITE        ACCESS:    6734826 HIT:    6298821 MISS:     436005
cpu0_L1D TRANSLATION  ACCESS:        564 HIT:         94 MISS:        470
cpu0_L1D PREFETCH REQUESTED:   30553203 ISSUED:   13653105 USEFUL:     135879 USELESS:      40464
cpu0_L1D AVERAGE MISS LATENCY: 9.032 cycles
cpu0_L1I TOTAL        ACCESS:    1074766 HIT:    1048438 MISS:      26328
cpu0_L1I LOAD         ACCESS:     468373 HIT:     461680 MISS:       6693
cpu0_L1I RFO          ACCESS:          0 HIT:          0 MISS:          0
cpu0_L1I PREFETCH     ACCESS:     606393 HIT:     586758 MISS:      19635
cpu0_L1I WRITE        ACCESS:          0 HIT:          0 MISS:          0
cpu0_L1I TRANSLATION  ACCESS:          0 HIT:          0 MISS:          0
cpu0_L1I PREFETCH REQUESTED:     927172 ISSUED:     606393 USEFUL:      11280 USELESS:       6846
cpu0_L1I AVERAGE MISS LATENCY: 53.52 cycles
cpu0_L2C TOTAL        ACCESS:    5570400 HIT:    5158032 MISS:     412368
cpu0_L2C LOAD         ACCESS:    1160727 HIT:    1103324 MISS:      57403
cpu0_L2C RFO          ACCESS:     309891 HIT:     205501 MISS:     104390
cpu0_L2C PREFETCH     ACCESS:    3749116 HIT:    3498906 MISS:     250210
cpu0_L2C WRITE        ACCESS:     350196 HIT:     350196 MISS:          0
cpu0_L2C TRANSLATION  ACCESS:        470 HIT:        105 MISS:        365
cpu0_L2C PREFETCH REQUESTED:    2509669 ISSUED:    2406403 USEFUL:      69783 USELESS:      24421
cpu0_L2C AVERAGE MISS LATENCY: 48.02 cycles
cpu0_STLB TOTAL        ACCESS:     184043 HIT:     183521 MISS:        522
cpu0_STLB LOAD         ACCESS:     184043 HIT:     183521 MISS:        522
cpu0_STLB RFO          ACCESS:          0 HIT:          0 MISS:          0
cpu0_STLB PREFETCH     ACCESS:          0 HIT:          0 MISS:          0
cpu0_STLB WRITE        ACCESS:          0 HIT:          0 MISS:          0
cpu0_STLB TRANSLATION  ACCESS:          0 HIT:          0 MISS:          0
cpu0_STLB PREFETCH REQUESTED:          0 ISSUED:          0 USEFUL:          0 USELESS:          0
cpu0_STLB AVERAGE MISS LATENCY: 258.2 cycles

DRAM Statistics

Channel 0 RQ ROW_BUFFER_HIT:      12308
  ROW_BUFFER_MISS:      25925
 AVG DBUS CONGESTED CYCLE: 3.844
WQ ROW_BUFFER_HIT: Channel 0 
  ROW_BUFFER_MISS:       1747
  FULL:      11974

Channel 1 RQ ROW_BUFFER_HIT:      12332
  ROW_BUFFER_MISS:      24905
 AVG DBUS CONGESTED CYCLE: 3.822
WQ ROW_BUFFER_HIT: Channel 1 
  ROW_BUFFER_MISS:       1589
  FULL:      11268
BERTI TO_L1: 27754563 TO_L2: 7803604 TO_L2_BC_MSHR: 1449335
BERTI AVG_LAT: 19.6903 NUM_TRACK_LATENCY: 1632105 NUM_CANT_TRACK_LATENCY: 0
BERTI CROSS_PAGE 4464201 NO_CROSS_PAGE: 31093966
BERTI FOUND_BERTI: 10306134 NO_FOUND_BERTI: 17546975
BERTI AVERAGE_ISSUED: 4.32449
CPU 0 L1I Entangling prefetcher final stats
IP accesses: 139 4e40 13241 / 468695
IP misses: 2137 84dc0 30 / 7015
IP hits: 0 0 0 / 0
IP late: 2137 84dc0 12 / 3460
IP wrong: eed9 3bb640 26 / 6820
miss rate: 0.0149671
coverage: 0
coverage_late: 0.493229
accuracy: 0
accuracy_late: 0.336576
discarded: 0
evicts entangled j table: 0
evicts entangled k table: 989
max bb size: 69
formats: 221 0 997 481 186 459 0 
hist_lookups: 833 845 613 528 516 422 352 271 207 180 126 88 67 42 16 0 0 2029 
hist_lookups_evict: 0 %
hist_lookups_shortlat: 28.4373 %
bb_found_hist: 0 36412 18717 29674 21641 11822 19390 2004 38 83 40 27 8 23 3 0 0 404 0 2 0 2 4 1 0 0 0 0 0 0 0 0 0 0 0 0 0 0 0 0 0 0 0 0 0 0 4148 1 0 0 0 0 0 0 0 0 0 0 0 0 0 0 2 0 
bb_found_summary: 639133 144446 4.42472
entangled_found_hist: 0 10692 9981 9646 1368 390 23 0 
entangled_found_summary: 67152 32100 2.09197
bb_ent_found_hist: 0 21261 16365 5478 1730 1626 841 224 87 93 8 114 22 0 0 0 0 0 0 0 0 0 5058 0 0 0 0 0 0 0 0 0 0 0 0 0 0 0 0 0 0 0 0 0 0 0 534 0 0 0 0 0 0 0 0 0 0 0 0 0 0 0 4 0 
bb_ent_found_summary: 231308 53445 4.32797
