WARNING: physical memory size is smaller than virtual memory size.

*** ChampSim Multicore Out-of-Order Simulator ***
Warmup Instructions: 30000000
Simulation Instructions: 100000000
Number of CPUs: 1
Page size: 4096

BTB:
Basic BTB sets: 1024 ways: 8
Indirect:
history lengths: 0 0 10 16 27 44 60 96 109 219 449 487 714 1313 2146 3881 
ITTAGE tables: 64768 bytes;Region table: 240 bytes;IUM: 384 bytes;Total Storage= 65392 bytes;
RAS:
RAS size: 64
[LLC] Demand IPV: 1 2 2 1 4 Prefetch IPV: 1 2 1 1 4
Berti Prefetcher
CPU 0 Entangling prefetcher
Off-chip DRAM Size: 8 GiB Channels: 2 Width: 64-bit Data Race: 6400 MT/s
Heartbeat CPU 0 instructions: 10000000 cycles: 1724334 heartbeat IPC: 5.799 cumulative IPC: 5.799 (Simulation time: 00 hr 00 min 38 sec)
Heartbeat CPU 0 instructions: 20000005 cycles: 3397167 heartbeat IPC: 5.978 cumulative IPC: 5.887 (Simulation time: 00 hr 01 min 14 sec)
Heartbeat CPU 0 instructions: 30000004 cycles: 5080017 heartbeat IPC: 5.942 cumulative IPC: 5.905 (Simulation time: 00 hr 01 min 51 sec)
Warmup finished CPU 0 instructions: 30000004 cycles: 5080018 cumulative IPC: 5.905 (Simulation time: 00 hr 01 min 51 sec)
Warmup complete CPU 0 instructions: 30000004 cycles: 5080018 cumulative IPC: 5.905 (Simulation time: 00 hr 01 min 51 sec)
Heartbeat CPU 0 instructions: 40000000 cycles: 10044798 heartbeat IPC: 2.014 cumulative IPC: 2.014 (Simulation time: 00 hr 02 min 48 sec)
Heartbeat CPU 0 instructions: 50000002 cycles: 15620650 heartbeat IPC: 1.793 cumulative IPC: 1.897 (Simulation time: 00 hr 03 min 48 sec)
*** Reached end of trace: (0, "../traces/secret_traces/compute_int/compute_int_463.champsimtrace.xz")
Heartbeat CPU 0 instructions: 60000003 cycles: 19230016 heartbeat IPC: 2.771 cumulative IPC: 2.12 (Simulation time: 00 hr 04 min 41 sec)
Heartbeat CPU 0 instructions: 70000001 cycles: 22247263 heartbeat IPC: 3.314 cumulative IPC: 2.33 (Simulation time: 00 hr 05 min 29 sec)
Heartbeat CPU 0 instructions: 80000003 cycles: 25737227 heartbeat IPC: 2.865 cumulative IPC: 2.42 (Simulation time: 00 hr 06 min 18 sec)
Heartbeat CPU 0 instructions: 90000002 cycles: 30585873 heartbeat IPC: 2.062 cumulative IPC: 2.352 (Simulation time: 00 hr 07 min 16 sec)
Heartbeat CPU 0 instructions: 100000009 cycles: 36114045 heartbeat IPC: 1.809 cumulative IPC: 2.256 (Simulation time: 00 hr 08 min 20 sec)
*** Reached end of trace: (0, "../traces/secret_traces/compute_int/compute_int_463.champsimtrace.xz")
Heartbeat CPU 0 instructions: 110000000 cycles: 39910818 heartbeat IPC: 2.634 cumulative IPC: 2.297 (Simulation time: 00 hr 09 min 14 sec)
Heartbeat CPU 0 instructions: 120000005 cycles: 42923394 heartbeat IPC: 3.319 cumulative IPC: 2.378 (Simulation time: 00 hr 10 min 01 sec)
Heartbeat CPU 0 instructions: 130000000 cycles: 46348160 heartbeat IPC: 2.92 cumulative IPC: 2.423 (Simulation time: 00 hr 10 min 50 sec)
Simulation finished CPU 0 instructions: 100000003 cycles: 41268144 cumulative IPC: 2.423 (Simulation time: 00 hr 10 min 50 sec)
Simulation complete CPU 0 instructions: 100000003 cycles: 41268144 cumulative IPC: 2.423 (Simulation time: 00 hr 10 min 50 sec)

ChampSim completed all CPUs

=== Simulation ===
CPU 0 runs ../traces/secret_traces/compute_int/compute_int_463.champsimtrace.xz
Region of Interest Statistics

CPU 0 cumulative IPC: 2.423 instructions: 100000003 cycles: 41268144
CPU 0 Branch Prediction Accuracy: 91.26% MPKI: 13.01 Average ROB Occupancy at Mispredict: 12.6
Branch type MPKI
BRANCH_DIRECT_JUMP: 0.371
BRANCH_INDIRECT: 0.0871
BRANCH_CONDITIONAL: 12.5
BRANCH_DIRECT_CALL: 0.0318
BRANCH_INDIRECT_CALL: 0.00298
BRANCH_RETURN: 0.0182

LLC TOTAL        ACCESS:     425997 HIT:     167390 MISS:     258607
LLC LOAD         ACCESS:      22477 HIT:       9603 MISS:      12874
LLC RFO          ACCESS:     107003 HIT:      61933 MISS:      45070
LLC PREFETCH     ACCESS:     180511 HIT:      19487 MISS:     161024
LLC WRITE        ACCESS:     114281 HIT:      76200 MISS:      38081
LLC TRANSLATION  ACCESS:       1725 HIT:        167 MISS:       1558
LLC PREFETCH REQUESTED:          0 ISSUED:          0 USEFUL:          0 USELESS:          0
LLC AVERAGE MISS LATENCY: 85.21 cycles
cpu0_DTLB TOTAL        ACCESS:   21460956 HIT:   21432008 MISS:      28948
cpu0_DTLB LOAD         ACCESS:   21460956 HIT:   21432008 MISS:      28948
cpu0_DTLB RFO          ACCESS:          0 HIT:          0 MISS:          0
cpu0_DTLB PREFETCH     ACCESS:          0 HIT:          0 MISS:          0
cpu0_DTLB WRITE        ACCESS:          0 HIT:          0 MISS:          0
cpu0_DTLB TRANSLATION  ACCESS:          0 HIT:          0 MISS:          0
cpu0_DTLB PREFETCH REQUESTED:          0 ISSUED:          0 USEFUL:          0 USELESS:          0
cpu0_DTLB AVERAGE MISS LATENCY: 11.13 cycles
cpu0_ITLB TOTAL        ACCESS:     185110 HIT:     182346 MISS:       2764
cpu0_ITLB LOAD         ACCESS:     185110 HIT:     182346 MISS:       2764
cpu0_ITLB RFO          ACCESS:          0 HIT:          0 MISS:          0
cpu0_ITLB PREFETCH     ACCESS:          0 HIT:          0 MISS:          0
cpu0_ITLB WRITE        ACCESS:          0 HIT:          0 MISS:          0
cpu0_ITLB TRANSLATION  ACCESS:          0 HIT:          0 MISS:          0
cpu0_ITLB PREFETCH REQUESTED:          0 ISSUED:          0 USEFUL:          0 USELESS:          0
cpu0_ITLB AVERAGE MISS LATENCY: 56.28 cycles
cpu0_L1D TOTAL        ACCESS:   41039943 HIT:   31675064 MISS:    9364879
cpu0_L1D LOAD         ACCESS:   16175156 HIT:   15688763 MISS:     486393
cpu0_L1D RFO          ACCESS:          0 HIT:          0 MISS:          0
cpu0_L1D PREFETCH     ACCESS:   18951257 HIT:   10793311 MISS:    8157946
cpu0_L1D WRITE        ACCESS:    5907696 HIT:    5190468 MISS:     717228
cpu0_L1D TRANSLATION  ACCESS:       5834 HIT:       2522 MISS:       3312
cpu0_L1D PREFETCH REQUESTED:   49317890 ISSUED:   18951290 USEFUL:     122457 USELESS:       6612
cpu0_L1D AVERAGE MISS LATENCY: 1.27 cycles
cpu0_L1I TOTAL        ACCESS:     269673 HIT:     217396 MISS:      52277
cpu0_L1I LOAD         ACCESS:      93562 HIT:      78832 MISS:      14730
cpu0_L1I RFO          ACCESS:          0 HIT:          0 MISS:          0
cpu0_L1I PREFETCH     ACCESS:     176111 HIT:     138564 MISS:      37547
cpu0_L1I WRITE        ACCESS:          0 HIT:          0 MISS:          0
cpu0_L1I TRANSLATION  ACCESS:          0 HIT:          0 MISS:          0
cpu0_L1I PREFETCH REQUESTED:     280141 ISSUED:     176111 USEFUL:      20915 USELESS:      13789
cpu0_L1I AVERAGE MISS LATENCY: 45.93 cycles
cpu0_L2C TOTAL        ACCESS:   14206677 HIT:   13479627 MISS:     727050
cpu0_L2C LOAD         ACCESS:     276887 HIT:     249291 MISS:      27596
cpu0_L2C RFO          ACCESS:     121477 HIT:      14461 MISS:     107016
cpu0_L2C PREFETCH     ACCESS:   13567943 HIT:   12977237 MISS:     590706
cpu0_L2C WRITE        ACCESS:     237068 HIT:     237061 MISS:          7
cpu0_L2C TRANSLATION  ACCESS:       3302 HIT:       1577 MISS:       1725
cpu0_L2C PREFETCH REQUESTED:    7476036 ISSUED:    6368815 USEFUL:     120069 USELESS:      11840
cpu0_L2C AVERAGE MISS LATENCY: 38.73 cycles
cpu0_STLB TOTAL        ACCESS:      10464 HIT:       4869 MISS:       5595
cpu0_STLB LOAD         ACCESS:      10464 HIT:       4869 MISS:       5595
cpu0_STLB RFO          ACCESS:          0 HIT:          0 MISS:          0
cpu0_STLB PREFETCH     ACCESS:          0 HIT:          0 MISS:          0
cpu0_STLB WRITE        ACCESS:          0 HIT:          0 MISS:          0
cpu0_STLB TRANSLATION  ACCESS:          0 HIT:          0 MISS:          0
cpu0_STLB PREFETCH REQUESTED:          0 ISSUED:          0 USEFUL:          0 USELESS:          0
cpu0_STLB AVERAGE MISS LATENCY: 96.49 cycles

DRAM Statistics

Channel 0 RQ ROW_BUFFER_HIT:      78537
  ROW_BUFFER_MISS:      31968
 AVG DBUS CONGESTED CYCLE: 3.753
WQ ROW_BUFFER_HIT: Channel 0 
  ROW_BUFFER_MISS:       2798
  FULL:      17660

Channel 1 RQ ROW_BUFFER_HIT:      78607
  ROW_BUFFER_MISS:      31413
 AVG DBUS CONGESTED CYCLE: 3.75
WQ ROW_BUFFER_HIT: Channel 1 
  ROW_BUFFER_MISS:       2794
  FULL:      17476
BERTI TO_L1: 38549624 TO_L2: 31572896 TO_L2_BC_MSHR: 525513
BERTI AVG_LAT: 25.3426 NUM_TRACK_LATENCY: 505342 NUM_CANT_TRACK_LATENCY: 0
BERTI CROSS_PAGE 10046380 NO_CROSS_PAGE: 60076140
BERTI FOUND_BERTI: 20332694 NO_FOUND_BERTI: 1302556
BERTI AVERAGE_ISSUED: 3.73053
CPU 0 L1I Entangling prefetcher final stats
IP accesses: 621 18840 718 / 95379
IP misses: 4769 11da40 154 / 16547
IP hits: 0 0 0 / 0
IP late: 587a 161e80 21 / 7648
IP wrong: ef71 3bdc40 52 / 13704
miss rate: 0.173487
coverage: 0
coverage_late: 0.462199
accuracy: 0
accuracy_late: 0.358187
discarded: 0
evicts entangled j table: 0
evicts entangled k table: 2219
max bb size: 67
formats: 669 0 1919 1024 416 785 0 
hist_lookups: 1389 1703 1429 1251 1133 948 724 581 479 342 262 210 129 71 40 0 18 3808 
hist_lookups_evict: 0.123993 %
hist_lookups_shortlat: 26.2314 %
bb_found_hist: 0 22699 11549 4364 1782 1057 869 183 131 4 0 0 2 4 6 2 0 0 0 0 2 0 16 0 1 0 0 0 0 0 0 0 0 0 0 0 0 0 0 0 0 6 0 0 0 0 0 0 0 0 0 0 0 0 0 0 0 0 0 0 0 0 0 0 
bb_found_summary: 79733 42677 1.86829
entangled_found_hist: 0 12557 8747 16157 2695 434 78 0 
entangled_found_summary: 91940 40668 2.26075
bb_ent_found_hist: 0 31983 16357 8393 3917 2758 887 545 369 0 0 0 4 8 0 0 0 0 0 0 0 0 8 0 1 0 0 0 0 0 0 0 0 0 0 0 0 0 0 0 0 4 0 0 0 0 0 0 0 0 0 0 0 0 0 0 0 0 0 0 0 0 0 0 
bb_ent_found_summary: 131939 65234 2.02255
