WARNING: physical memory size is smaller than virtual memory size.

*** ChampSim Multicore Out-of-Order Simulator ***
Warmup Instructions: 30000000
Simulation Instructions: 100000000
Number of CPUs: 1
Page size: 4096

BTB:
Basic BTB sets: 1024 ways: 8
Indirect:
history lengths: 0 0 10 16 27 44 60 96 109 219 449 487 714 1313 2146 3881 
ITTAGE tables: 64768 bytes;Region table: 240 bytes;IUM: 384 bytes;Total Storage= 65392 bytes;
RAS:
RAS size: 64
[LLC] Demand IPV: 1 2 2 1 4 Prefetch IPV: 1 2 1 1 4
Berti Prefetcher
CPU 0 Entangling prefetcher
Off-chip DRAM Size: 8 GiB Channels: 2 Width: 64-bit Data Race: 6400 MT/s
Heartbeat CPU 0 instructions: 10000008 cycles: 1672541 heartbeat IPC: 5.979 cumulative IPC: 5.979 (Simulation time: 00 hr 00 min 34 sec)
Heartbeat CPU 0 instructions: 20000002 cycles: 3340328 heartbeat IPC: 5.996 cumulative IPC: 5.987 (Simulation time: 00 hr 01 min 08 sec)
Heartbeat CPU 0 instructions: 30000001 cycles: 5008260 heartbeat IPC: 5.995 cumulative IPC: 5.99 (Simulation time: 00 hr 01 min 42 sec)
Warmup finished CPU 0 instructions: 30000001 cycles: 5008261 cumulative IPC: 5.99 (Simulation time: 00 hr 01 min 42 sec)
Warmup complete CPU 0 instructions: 30000001 cycles: 5008261 cumulative IPC: 5.99 (Simulation time: 00 hr 01 min 42 sec)
Heartbeat CPU 0 instructions: 40000001 cycles: 7024369 heartbeat IPC: 4.96 cumulative IPC: 4.96 (Simulation time: 00 hr 02 min 21 sec)
Heartbeat CPU 0 instructions: 50000000 cycles: 9396006 heartbeat IPC: 4.216 cumulative IPC: 4.558 (Simulation time: 00 hr 03 min 02 sec)
Heartbeat CPU 0 instructions: 60000001 cycles: 12928215 heartbeat IPC: 2.831 cumulative IPC: 3.788 (Simulation time: 00 hr 03 min 49 sec)
Heartbeat CPU 0 instructions: 70000005 cycles: 16606161 heartbeat IPC: 2.719 cumulative IPC: 3.449 (Simulation time: 00 hr 04 min 37 sec)
*** Reached end of trace: (0, "../traces/secret_traces/compute_int/compute_int_367.champsimtrace.xz")
Heartbeat CPU 0 instructions: 80000011 cycles: 19877099 heartbeat IPC: 3.057 cumulative IPC: 3.363 (Simulation time: 00 hr 05 min 23 sec)
Heartbeat CPU 0 instructions: 90000003 cycles: 24024197 heartbeat IPC: 2.411 cumulative IPC: 3.155 (Simulation time: 00 hr 06 min 13 sec)
Heartbeat CPU 0 instructions: 100000004 cycles: 27997563 heartbeat IPC: 2.517 cumulative IPC: 3.045 (Simulation time: 00 hr 07 min 03 sec)
Heartbeat CPU 0 instructions: 110000002 cycles: 31187663 heartbeat IPC: 3.135 cumulative IPC: 3.056 (Simulation time: 00 hr 07 min 52 sec)
Heartbeat CPU 0 instructions: 120000001 cycles: 33187993 heartbeat IPC: 4.999 cumulative IPC: 3.194 (Simulation time: 00 hr 08 min 32 sec)
Heartbeat CPU 0 instructions: 130000003 cycles: 35694893 heartbeat IPC: 3.989 cumulative IPC: 3.259 (Simulation time: 00 hr 09 min 13 sec)
Simulation finished CPU 0 instructions: 100000002 cycles: 30686633 cumulative IPC: 3.259 (Simulation time: 00 hr 09 min 13 sec)
Simulation complete CPU 0 instructions: 100000002 cycles: 30686633 cumulative IPC: 3.259 (Simulation time: 00 hr 09 min 13 sec)

ChampSim completed all CPUs

=== Simulation ===
CPU 0 runs ../traces/secret_traces/compute_int/compute_int_367.champsimtrace.xz
Region of Interest Statistics

CPU 0 cumulative IPC: 3.259 instructions: 100000002 cycles: 30686633
CPU 0 Branch Prediction Accuracy: 95.63% MPKI: 8.041 Average ROB Occupancy at Mispredict: 25.13
Branch type MPKI
BRANCH_DIRECT_JUMP: 3e-05
BRANCH_INDIRECT: 0.362
BRANCH_CONDITIONAL: 7.68
BRANCH_DIRECT_CALL: 5e-05
BRANCH_INDIRECT_CALL: 0.00013
BRANCH_RETURN: 0.00035

LLC TOTAL        ACCESS:     170256 HIT:      50831 MISS:     119425
LLC LOAD         ACCESS:       2305 HIT:        630 MISS:       1675
LLC RFO          ACCESS:      39075 HIT:      17078 MISS:      21997
LLC PREFETCH     ACCESS:      89410 HIT:       3675 MISS:      85735
LLC WRITE        ACCESS:      39357 HIT:      29433 MISS:       9924
LLC TRANSLATION  ACCESS:        109 HIT:         15 MISS:         94
LLC PREFETCH REQUESTED:          0 ISSUED:          0 USEFUL:          0 USELESS:          0
LLC AVERAGE MISS LATENCY: 69.48 cycles
cpu0_DTLB TOTAL        ACCESS:   16606136 HIT:   16599388 MISS:       6748
cpu0_DTLB LOAD         ACCESS:   16606136 HIT:   16599388 MISS:       6748
cpu0_DTLB RFO          ACCESS:          0 HIT:          0 MISS:          0
cpu0_DTLB PREFETCH     ACCESS:          0 HIT:          0 MISS:          0
cpu0_DTLB WRITE        ACCESS:          0 HIT:          0 MISS:          0
cpu0_DTLB TRANSLATION  ACCESS:          0 HIT:          0 MISS:          0
cpu0_DTLB PREFETCH REQUESTED:          0 ISSUED:          0 USEFUL:          0 USELESS:          0
cpu0_DTLB AVERAGE MISS LATENCY: 14.6 cycles
cpu0_ITLB TOTAL        ACCESS:      24158 HIT:      24157 MISS:          1
cpu0_ITLB LOAD         ACCESS:      24158 HIT:      24157 MISS:          1
cpu0_ITLB RFO          ACCESS:          0 HIT:          0 MISS:          0
cpu0_ITLB PREFETCH     ACCESS:          0 HIT:          0 MISS:          0
cpu0_ITLB WRITE        ACCESS:          0 HIT:          0 MISS:          0
cpu0_ITLB TRANSLATION  ACCESS:          0 HIT:          0 MISS:          0
cpu0_ITLB PREFETCH REQUESTED:          0 ISSUED:          0 USEFUL:          0 USELESS:          0
cpu0_ITLB AVERAGE MISS LATENCY: 172 cycles
cpu0_L1D TOTAL        ACCESS:   27931913 HIT:   24869184 MISS:    3062729
cpu0_L1D LOAD         ACCESS:   16921164 HIT:   16560811 MISS:     360353
cpu0_L1D RFO          ACCESS:          0 HIT:          0 MISS:          0
cpu0_L1D PREFETCH     ACCESS:    5808363 HIT:    3295591 MISS:    2512772
cpu0_L1D WRITE        ACCESS:    5201255 HIT:    5012453 MISS:     188802
cpu0_L1D TRANSLATION  ACCESS:       1131 HIT:        329 MISS:        802
cpu0_L1D PREFETCH REQUESTED:    8748182 ISSUED:    5808363 USEFUL:      62039 USELESS:        387
cpu0_L1D AVERAGE MISS LATENCY: 1.869 cycles
cpu0_L1I TOTAL        ACCESS:      35667 HIT:      30723 MISS:       4944
cpu0_L1I LOAD         ACCESS:      14044 HIT:      11530 MISS:       2514
cpu0_L1I RFO          ACCESS:          0 HIT:          0 MISS:          0
cpu0_L1I PREFETCH     ACCESS:      21623 HIT:      19193 MISS:       2430
cpu0_L1I WRITE        ACCESS:          0 HIT:          0 MISS:          0
cpu0_L1I TRANSLATION  ACCESS:          0 HIT:          0 MISS:          0
cpu0_L1I PREFETCH REQUESTED:      36623 ISSUED:      21623 USEFUL:       1702 USELESS:        267
cpu0_L1I AVERAGE MISS LATENCY: 31 cycles
cpu0_L2C TOTAL        ACCESS:    5354848 HIT:    5096269 MISS:     258579
cpu0_L2C LOAD         ACCESS:     221870 HIT:     218980 MISS:       2890
cpu0_L2C RFO          ACCESS:     102280 HIT:      63204 MISS:      39076
cpu0_L2C PREFETCH     ACCESS:    4827622 HIT:    4611120 MISS:     216502
cpu0_L2C WRITE        ACCESS:     202274 HIT:     202272 MISS:          2
cpu0_L2C TRANSLATION  ACCESS:        802 HIT:        693 MISS:        109
cpu0_L2C PREFETCH REQUESTED:    2568943 ISSUED:    2483330 USEFUL:      71814 USELESS:       1958
cpu0_L2C AVERAGE MISS LATENCY: 42.53 cycles
cpu0_STLB TOTAL        ACCESS:       2644 HIT:       1527 MISS:       1117
cpu0_STLB LOAD         ACCESS:       2644 HIT:       1527 MISS:       1117
cpu0_STLB RFO          ACCESS:          0 HIT:          0 MISS:          0
cpu0_STLB PREFETCH     ACCESS:          0 HIT:          0 MISS:          0
cpu0_STLB WRITE        ACCESS:          0 HIT:          0 MISS:          0
cpu0_STLB TRANSLATION  ACCESS:          0 HIT:          0 MISS:          0
cpu0_STLB PREFETCH REQUESTED:          0 ISSUED:          0 USEFUL:          0 USELESS:          0
cpu0_STLB AVERAGE MISS LATENCY: 146.8 cycles

DRAM Statistics

Channel 0 RQ ROW_BUFFER_HIT:      47702
  ROW_BUFFER_MISS:       7055
 AVG DBUS CONGESTED CYCLE: 3.609
WQ ROW_BUFFER_HIT: Channel 0 
  ROW_BUFFER_MISS:        351
  FULL:       3927

Channel 1 RQ ROW_BUFFER_HIT:      47657
  ROW_BUFFER_MISS:       7086
 AVG DBUS CONGESTED CYCLE: 3.615
WQ ROW_BUFFER_HIT: Channel 1 
  ROW_BUFFER_MISS:        327
  FULL:       3904
BERTI TO_L1: 3411975 TO_L2: 7401342 TO_L2_BC_MSHR: 100242
BERTI AVG_LAT: 13.5258 NUM_TRACK_LATENCY: 377010 NUM_CANT_TRACK_LATENCY: 0
BERTI CROSS_PAGE 1734223 NO_CROSS_PAGE: 9079094
BERTI FOUND_BERTI: 15140530 NO_FOUND_BERTI: 6909538
BERTI AVERAGE_ISSUED: 3.94792
CPU 0 L1I Entangling prefetcher final stats
IP accesses: 3a6c e9b00 523 / 14369
IP misses: 3a6c e9b00 74 / 2839
IP hits: 0 0 0 / 0
IP late: 6b6 1ad80 9 / 1315
IP wrong: 44ee 113b80 7 / 263
miss rate: 0.197579
coverage: 0
coverage_late: 0.463192
accuracy: 0
accuracy_late: 0.833334
discarded: 0
evicts entangled j table: 0
evicts entangled k table: 183
max bb size: 9
formats: 45 0 207 62 42 88 0 
hist_lookups: 52 75 81 102 136 137 110 89 65 54 45 22 14 9 6 0 3 1092 
hist_lookups_evict: 0.143404 %
hist_lookups_shortlat: 52.1989 %
bb_found_hist: 0 3136 1460 524 226 103 47 9 167 4 0 0 0 0 0 0 0 0 0 0 0 0 0 0 0 0 0 0 0 0 0 0 0 0 0 0 0 0 0 0 0 0 0 0 0 0 0 0 0 0 0 0 0 0 0 0 0 0 0 0 0 0 0 0 
bb_found_summary: 10764 5676 1.89641
entangled_found_hist: 0 2087 1191 1738 363 161 27 0 
entangled_found_summary: 12102 5567 2.17389
bb_ent_found_hist: 0 4361 2323 737 448 218 83 11 290 6 0 0 0 0 0 0 0 0 0 0 0 0 0 0 0 0 0 0 0 0 0 0 0 0 0 0 0 0 0 0 0 0 0 0 0 0 0 0 0 0 0 0 0 0 0 0 0 0 0 0 0 0 0 0 
bb_ent_found_summary: 17049 8477 2.01121
