WARNING: physical memory size is smaller than virtual memory size.

*** ChampSim Multicore Out-of-Order Simulator ***
Warmup Instructions: 30000000
Simulation Instructions: 100000000
Number of CPUs: 1
Page size: 4096

BTB:
Basic BTB sets: 1024 ways: 8
Indirect:
history lengths: 0 0 10 16 27 44 60 96 109 219 449 487 714 1313 2146 3881 
ITTAGE tables: 64768 bytes;Region table: 240 bytes;IUM: 384 bytes;Total Storage= 65392 bytes;
RAS:
RAS size: 64
[LLC] Demand IPV: 1 2 2 1 4 Prefetch IPV: 1 2 1 1 4
Berti Prefetcher
CPU 0 Entangling prefetcher
Off-chip DRAM Size: 8 GiB Channels: 2 Width: 64-bit Data Race: 6400 MT/s
Heartbeat CPU 0 instructions: 10000003 cycles: 1777289 heartbeat IPC: 5.627 cumulative IPC: 5.627 (Simulation time: 00 hr 00 min 48 sec)
Heartbeat CPU 0 instructions: 20000009 cycles: 3568037 heartbeat IPC: 5.584 cumulative IPC: 5.605 (Simulation time: 00 hr 01 min 41 sec)
Heartbeat CPU 0 instructions: 30000004 cycles: 5368366 heartbeat IPC: 5.555 cumulative IPC: 5.588 (Simulation time: 00 hr 02 min 34 sec)
Warmup finished CPU 0 instructions: 30000004 cycles: 5368367 cumulative IPC: 5.588 (Simulation time: 00 hr 02 min 34 sec)
Warmup complete CPU 0 instructions: 30000004 cycles: 5368367 cumulative IPC: 5.588 (Simulation time: 00 hr 02 min 34 sec)
Heartbeat CPU 0 instructions: 40000000 cycles: 14838668 heartbeat IPC: 1.056 cumulative IPC: 1.056 (Simulation time: 00 hr 04 min 17 sec)
Heartbeat CPU 0 instructions: 50000001 cycles: 23643898 heartbeat IPC: 1.136 cumulative IPC: 1.094 (Simulation time: 00 hr 05 min 56 sec)
Heartbeat CPU 0 instructions: 60000006 cycles: 32661249 heartbeat IPC: 1.109 cumulative IPC: 1.099 (Simulation time: 00 hr 07 min 36 sec)
Heartbeat CPU 0 instructions: 70000004 cycles: 41368345 heartbeat IPC: 1.148 cumulative IPC: 1.111 (Simulation time: 00 hr 09 min 11 sec)
Heartbeat CPU 0 instructions: 80000004 cycles: 50086145 heartbeat IPC: 1.147 cumulative IPC: 1.118 (Simulation time: 00 hr 10 min 45 sec)
Heartbeat CPU 0 instructions: 90000000 cycles: 58766635 heartbeat IPC: 1.152 cumulative IPC: 1.124 (Simulation time: 00 hr 12 min 17 sec)
Heartbeat CPU 0 instructions: 100000001 cycles: 67363394 heartbeat IPC: 1.163 cumulative IPC: 1.129 (Simulation time: 00 hr 13 min 49 sec)
*** Reached end of trace: (0, "../traces/secret_traces/compute_int/compute_int_428.champsimtrace.xz")
Heartbeat CPU 0 instructions: 110000002 cycles: 75747954 heartbeat IPC: 1.193 cumulative IPC: 1.137 (Simulation time: 00 hr 15 min 27 sec)
Heartbeat CPU 0 instructions: 120000001 cycles: 83971450 heartbeat IPC: 1.216 cumulative IPC: 1.145 (Simulation time: 00 hr 16 min 59 sec)
Heartbeat CPU 0 instructions: 130000007 cycles: 92180383 heartbeat IPC: 1.218 cumulative IPC: 1.152 (Simulation time: 00 hr 18 min 33 sec)
Simulation finished CPU 0 instructions: 100000003 cycles: 86812017 cumulative IPC: 1.152 (Simulation time: 00 hr 18 min 33 sec)
Simulation complete CPU 0 instructions: 100000003 cycles: 86812017 cumulative IPC: 1.152 (Simulation time: 00 hr 18 min 33 sec)

ChampSim completed all CPUs

=== Simulation ===
CPU 0 runs ../traces/secret_traces/compute_int/compute_int_428.champsimtrace.xz
Region of Interest Statistics

CPU 0 cumulative IPC: 1.152 instructions: 100000003 cycles: 86812017
CPU 0 Branch Prediction Accuracy: 91.46% MPKI: 20.91 Average ROB Occupancy at Mispredict: 12.08
Branch type MPKI
BRANCH_DIRECT_JUMP: 1e-05
BRANCH_INDIRECT: 0.0501
BRANCH_CONDITIONAL: 20.9
BRANCH_DIRECT_CALL: 0
BRANCH_INDIRECT_CALL: 3e-05
BRANCH_RETURN: 3e-05

LLC TOTAL        ACCESS:    4438444 HIT:    1312062 MISS:    3126382
LLC LOAD         ACCESS:    1330418 HIT:     613470 MISS:     716948
LLC RFO          ACCESS:      10506 HIT:       9679 MISS:        827
LLC PREFETCH     ACCESS:    3046182 HIT:     646055 MISS:    2400127
LLC WRITE        ACCESS:      46239 HIT:      42154 MISS:       4085
LLC TRANSLATION  ACCESS:       5099 HIT:        704 MISS:       4395
LLC PREFETCH REQUESTED:          0 ISSUED:          0 USEFUL:          0 USELESS:          0
LLC AVERAGE MISS LATENCY: 126.1 cycles
cpu0_DTLB TOTAL        ACCESS:   29612989 HIT:   24533442 MISS:    5079547
cpu0_DTLB LOAD         ACCESS:   29612989 HIT:   24533442 MISS:    5079547
cpu0_DTLB RFO          ACCESS:          0 HIT:          0 MISS:          0
cpu0_DTLB PREFETCH     ACCESS:          0 HIT:          0 MISS:          0
cpu0_DTLB WRITE        ACCESS:          0 HIT:          0 MISS:          0
cpu0_DTLB TRANSLATION  ACCESS:          0 HIT:          0 MISS:          0
cpu0_DTLB PREFETCH REQUESTED:          0 ISSUED:          0 USEFUL:          0 USELESS:          0
cpu0_DTLB AVERAGE MISS LATENCY: 7.532 cycles
cpu0_ITLB TOTAL        ACCESS:       6871 HIT:       6871 MISS:          0
cpu0_ITLB LOAD         ACCESS:       6871 HIT:       6871 MISS:          0
cpu0_ITLB RFO          ACCESS:          0 HIT:          0 MISS:          0
cpu0_ITLB PREFETCH     ACCESS:          0 HIT:          0 MISS:          0
cpu0_ITLB WRITE        ACCESS:          0 HIT:          0 MISS:          0
cpu0_ITLB TRANSLATION  ACCESS:          0 HIT:          0 MISS:          0
cpu0_ITLB PREFETCH REQUESTED:          0 ISSUED:          0 USEFUL:          0 USELESS:          0
cpu0_ITLB AVERAGE MISS LATENCY: -nan cycles
cpu0_L1D TOTAL        ACCESS:   49249613 HIT:   34885270 MISS:   14364343
cpu0_L1D LOAD         ACCESS:   25511392 HIT:   17504329 MISS:    8007063
cpu0_L1D RFO          ACCESS:          0 HIT:          0 MISS:          0
cpu0_L1D PREFETCH     ACCESS:   20119962 HIT:   15046885 MISS:    5073077
cpu0_L1D WRITE        ACCESS:    3570401 HIT:    2312999 MISS:    1257402
cpu0_L1D TRANSLATION  ACCESS:      47858 HIT:      21057 MISS:      26801
cpu0_L1D PREFETCH REQUESTED:   57426190 ISSUED:   20119930 USEFUL:    1523358 USELESS:      32268
cpu0_L1D AVERAGE MISS LATENCY: 20.82 cycles
cpu0_L1I TOTAL        ACCESS:      10227 HIT:       8678 MISS:       1549
cpu0_L1I LOAD         ACCESS:       4063 HIT:       3421 MISS:        642
cpu0_L1I RFO          ACCESS:          0 HIT:          0 MISS:          0
cpu0_L1I PREFETCH     ACCESS:       6164 HIT:       5257 MISS:        907
cpu0_L1I WRITE        ACCESS:          0 HIT:          0 MISS:          0
cpu0_L1I TRANSLATION  ACCESS:          0 HIT:          0 MISS:          0
cpu0_L1I PREFETCH REQUESTED:       7675 ISSUED:       6164 USEFUL:        649 USELESS:         61
cpu0_L1I AVERAGE MISS LATENCY: 134.9 cycles
cpu0_L2C TOTAL        ACCESS:   22499161 HIT:   15207291 MISS:    7291870
cpu0_L2C LOAD         ACCESS:    7180768 HIT:    5660177 MISS:    1520591
cpu0_L2C RFO          ACCESS:     326222 HIT:     315716 MISS:      10506
cpu0_L2C PREFETCH     ACCESS:   14463920 HIT:    8708246 MISS:    5755674
cpu0_L2C WRITE        ACCESS:     501459 HIT:     501459 MISS:          0
cpu0_L2C TRANSLATION  ACCESS:      26792 HIT:      21693 MISS:       5099
cpu0_L2C PREFETCH REQUESTED:   11349781 ISSUED:   10304894 USEFUL:     657283 USELESS:     825620
cpu0_L2C AVERAGE MISS LATENCY: 64.26 cycles
cpu0_STLB TOTAL        ACCESS:    4503544 HIT:    4456161 MISS:      47383
cpu0_STLB LOAD         ACCESS:    4503544 HIT:    4456161 MISS:      47383
cpu0_STLB RFO          ACCESS:          0 HIT:          0 MISS:          0
cpu0_STLB PREFETCH     ACCESS:          0 HIT:          0 MISS:          0
cpu0_STLB WRITE        ACCESS:          0 HIT:          0 MISS:          0
cpu0_STLB TRANSLATION  ACCESS:          0 HIT:          0 MISS:          0
cpu0_STLB PREFETCH REQUESTED:          0 ISSUED:          0 USEFUL:          0 USELESS:          0
cpu0_STLB AVERAGE MISS LATENCY: 125.8 cycles

DRAM Statistics

Channel 0 RQ ROW_BUFFER_HIT:    1366113
  ROW_BUFFER_MISS:     195145
 AVG DBUS CONGESTED CYCLE: 3.821
WQ ROW_BUFFER_HIT: Channel 0 
  ROW_BUFFER_MISS:        886
  FULL:        986

Channel 1 RQ ROW_BUFFER_HIT:    1365768
  ROW_BUFFER_MISS:     195245
 AVG DBUS CONGESTED CYCLE: 3.823
WQ ROW_BUFFER_HIT: Channel 1 
  ROW_BUFFER_MISS:        866
  FULL:       1028
BERTI TO_L1: 19243563 TO_L2: 52648340 TO_L2_BC_MSHR: 23722642
BERTI AVG_LAT: 49.1243 NUM_TRACK_LATENCY: 11371178 NUM_CANT_TRACK_LATENCY: 438
BERTI CROSS_PAGE 14605964 NO_CROSS_PAGE: 57285939
BERTI FOUND_BERTI: 28661805 NO_FOUND_BERTI: 11997068
BERTI AVERAGE_ISSUED: 5.57517
CPU 0 L1I Entangling prefetcher final stats
IP accesses: a863 2a18c0 67 / 4148
IP misses: a863 2a18c0 67 / 727
IP hits: 0 0 0 / 0
IP late: 3ef8 fbe00 5 / 324
IP wrong: 3904 e4100 4 / 61
miss rate: 0.175266
coverage: 0
coverage_late: 0.445668
accuracy: 0
accuracy_late: 0.841559
discarded: 0
evicts entangled j table: 0
evicts entangled k table: 51
max bb size: 9
formats: 5 0 78 13 16 37 0 
hist_lookups: 20 21 27 33 32 24 20 23 30 23 9 7 7 3 6 0 0 225 
hist_lookups_evict: 0 %
hist_lookups_shortlat: 44.1177 %
bb_found_hist: 0 817 382 154 101 13 4 1 0 28 0 0 0 0 0 0 0 0 0 0 0 0 0 0 0 0 0 0 0 0 0 0 0 0 0 0 0 0 0 0 0 0 0 0 0 0 0 0 0 0 0 0 0 0 0 0 0 0 0 0 0 0 0 0 
bb_found_summary: 2795 1500 1.86334
entangled_found_hist: 0 346 282 276 50 35 60 0 
entangled_found_summary: 2473 1049 2.35749
bb_ent_found_hist: 0 734 520 279 84 19 4 6 0 18 0 0 0 0 0 0 0 0 0 0 0 0 0 0 0 0 0 0 0 0 0 0 0 0 0 0 0 0 0 0 0 0 0 0 0 0 0 0 0 0 0 0 0 0 0 0 0 0 0 0 0 0 0 0 
bb_ent_found_summary: 3270 1664 1.96515
