WARNING: physical memory size is smaller than virtual memory size.

*** ChampSim Multicore Out-of-Order Simulator ***
Warmup Instructions: 30000000
Simulation Instructions: 100000000
Number of CPUs: 1
Page size: 4096

BTB:
Basic BTB sets: 1024 ways: 8
Indirect:
history lengths: 0 0 10 16 27 44 60 96 109 219 449 487 714 1313 2146 3881 
ITTAGE tables: 64768 bytes;Region table: 240 bytes;IUM: 384 bytes;Total Storage= 65392 bytes;
RAS:
RAS size: 64
[LLC] Demand IPV: 1 2 2 1 4 Prefetch IPV: 1 2 1 1 4
Berti Prefetcher
CPU 0 Entangling prefetcher
Off-chip DRAM Size: 8 GiB Channels: 2 Width: 64-bit Data Race: 6400 MT/s
Heartbeat CPU 0 instructions: 10000002 cycles: 1667308 heartbeat IPC: 5.998 cumulative IPC: 5.998 (Simulation time: 00 hr 00 min 34 sec)
Heartbeat CPU 0 instructions: 20000004 cycles: 3347400 heartbeat IPC: 5.952 cumulative IPC: 5.975 (Simulation time: 00 hr 01 min 16 sec)
Heartbeat CPU 0 instructions: 30000001 cycles: 5014413 heartbeat IPC: 5.999 cumulative IPC: 5.983 (Simulation time: 00 hr 01 min 55 sec)
Warmup finished CPU 0 instructions: 30000001 cycles: 5014414 cumulative IPC: 5.983 (Simulation time: 00 hr 01 min 55 sec)
Warmup complete CPU 0 instructions: 30000001 cycles: 5014414 cumulative IPC: 5.983 (Simulation time: 00 hr 01 min 55 sec)
Heartbeat CPU 0 instructions: 40000008 cycles: 8384334 heartbeat IPC: 2.967 cumulative IPC: 2.967 (Simulation time: 00 hr 02 min 54 sec)
Heartbeat CPU 0 instructions: 50000001 cycles: 11761773 heartbeat IPC: 2.961 cumulative IPC: 2.964 (Simulation time: 00 hr 03 min 54 sec)
Heartbeat CPU 0 instructions: 60000000 cycles: 14865243 heartbeat IPC: 3.222 cumulative IPC: 3.045 (Simulation time: 00 hr 04 min 56 sec)
Heartbeat CPU 0 instructions: 70000010 cycles: 16804789 heartbeat IPC: 5.156 cumulative IPC: 3.393 (Simulation time: 00 hr 05 min 43 sec)
Heartbeat CPU 0 instructions: 80000005 cycles: 19909713 heartbeat IPC: 3.221 cumulative IPC: 3.357 (Simulation time: 00 hr 06 min 40 sec)
Heartbeat CPU 0 instructions: 90000002 cycles: 23192946 heartbeat IPC: 3.046 cumulative IPC: 3.301 (Simulation time: 00 hr 07 min 40 sec)
Heartbeat CPU 0 instructions: 100000002 cycles: 26486862 heartbeat IPC: 3.036 cumulative IPC: 3.26 (Simulation time: 00 hr 08 min 39 sec)
*** Reached end of trace: (0, "../traces/secret_traces/compute_int/compute_int_132.champsimtrace.xz")
Heartbeat CPU 0 instructions: 110000005 cycles: 34060653 heartbeat IPC: 1.32 cumulative IPC: 2.754 (Simulation time: 00 hr 09 min 48 sec)
Heartbeat CPU 0 instructions: 120000011 cycles: 37390968 heartbeat IPC: 3.003 cumulative IPC: 2.78 (Simulation time: 00 hr 10 min 47 sec)
Heartbeat CPU 0 instructions: 130000000 cycles: 40005747 heartbeat IPC: 3.824 cumulative IPC: 2.858 (Simulation time: 00 hr 11 min 39 sec)
Simulation finished CPU 0 instructions: 100000002 cycles: 34991348 cumulative IPC: 2.858 (Simulation time: 00 hr 11 min 39 sec)
Simulation complete CPU 0 instructions: 100000002 cycles: 34991348 cumulative IPC: 2.858 (Simulation time: 00 hr 11 min 39 sec)

ChampSim completed all CPUs

=== Simulation ===
CPU 0 runs ../traces/secret_traces/compute_int/compute_int_132.champsimtrace.xz
Region of Interest Statistics

CPU 0 cumulative IPC: 2.858 instructions: 100000002 cycles: 34991348
CPU 0 Branch Prediction Accuracy: 97.15% MPKI: 5.253 Average ROB Occupancy at Mispredict: 147.3
Branch type MPKI
BRANCH_DIRECT_JUMP: 0.00404
BRANCH_INDIRECT: 0.518
BRANCH_CONDITIONAL: 4.71
BRANCH_DIRECT_CALL: 0.0109
BRANCH_INDIRECT_CALL: 0.00166
BRANCH_RETURN: 0.00611

LLC TOTAL        ACCESS:    3549732 HIT:    3108200 MISS:     441532
LLC LOAD         ACCESS:     858517 HIT:     763528 MISS:      94989
LLC RFO          ACCESS:     822317 HIT:     790753 MISS:      31564
LLC PREFETCH     ACCESS:     931945 HIT:     659214 MISS:     272731
LLC WRITE        ACCESS:     936379 HIT:     894699 MISS:      41680
LLC TRANSLATION  ACCESS:        574 HIT:          6 MISS:        568
LLC PREFETCH REQUESTED:          0 ISSUED:          0 USEFUL:          0 USELESS:          0
LLC AVERAGE MISS LATENCY: 174.4 cycles
cpu0_DTLB TOTAL        ACCESS:   18523212 HIT:   15076060 MISS:    3447152
cpu0_DTLB LOAD         ACCESS:   18523212 HIT:   15076060 MISS:    3447152
cpu0_DTLB RFO          ACCESS:          0 HIT:          0 MISS:          0
cpu0_DTLB PREFETCH     ACCESS:          0 HIT:          0 MISS:          0
cpu0_DTLB WRITE        ACCESS:          0 HIT:          0 MISS:          0
cpu0_DTLB TRANSLATION  ACCESS:          0 HIT:          0 MISS:          0
cpu0_DTLB PREFETCH REQUESTED:          0 ISSUED:          0 USEFUL:          0 USELESS:          0
cpu0_DTLB AVERAGE MISS LATENCY: 4.599 cycles
cpu0_ITLB TOTAL        ACCESS:     109543 HIT:     108488 MISS:       1055
cpu0_ITLB LOAD         ACCESS:     109543 HIT:     108488 MISS:       1055
cpu0_ITLB RFO          ACCESS:          0 HIT:          0 MISS:          0
cpu0_ITLB PREFETCH     ACCESS:          0 HIT:          0 MISS:          0
cpu0_ITLB WRITE        ACCESS:          0 HIT:          0 MISS:          0
cpu0_ITLB TRANSLATION  ACCESS:          0 HIT:          0 MISS:          0
cpu0_ITLB PREFETCH REQUESTED:          0 ISSUED:          0 USEFUL:          0 USELESS:          0
cpu0_ITLB AVERAGE MISS LATENCY: 61.32 cycles
cpu0_L1D TOTAL        ACCESS:   34840385 HIT:   25203215 MISS:    9637170
cpu0_L1D LOAD         ACCESS:    8315649 HIT:    5087597 MISS:    3228052
cpu0_L1D RFO          ACCESS:          0 HIT:          0 MISS:          0
cpu0_L1D PREFETCH     ACCESS:   21416490 HIT:   16401318 MISS:    5015172
cpu0_L1D WRITE        ACCESS:    5106946 HIT:    3714150 MISS:    1392796
cpu0_L1D TRANSLATION  ACCESS:       1300 HIT:        150 MISS:       1150
cpu0_L1D PREFETCH REQUESTED:   37438350 ISSUED:   21416520 USEFUL:     162795 USELESS:       2844
cpu0_L1D AVERAGE MISS LATENCY: 11.45 cycles
cpu0_L1I TOTAL        ACCESS:     159474 HIT:     132828 MISS:      26646
cpu0_L1I LOAD         ACCESS:      55112 HIT:      47541 MISS:       7571
cpu0_L1I RFO          ACCESS:          0 HIT:          0 MISS:          0
cpu0_L1I PREFETCH     ACCESS:     104362 HIT:      85287 MISS:      19075
cpu0_L1I WRITE        ACCESS:          0 HIT:          0 MISS:          0
cpu0_L1I TRANSLATION  ACCESS:          0 HIT:          0 MISS:          0
cpu0_L1I PREFETCH REQUESTED:     158073 ISSUED:     104362 USEFUL:      10402 USELESS:       6991
cpu0_L1I AVERAGE MISS LATENCY: 112.8 cycles
cpu0_L2C TOTAL        ACCESS:   13198043 HIT:    9993825 MISS:    3204218
cpu0_L2C LOAD         ACCESS:    1553116 HIT:     688452 MISS:     864664
cpu0_L2C RFO          ACCESS:    1381573 HIT:     559240 MISS:     822333
cpu0_L2C PREFETCH     ACCESS:    8777750 HIT:    7261107 MISS:    1516643
cpu0_L2C WRITE        ACCESS:    1484461 HIT:    1484457 MISS:          4
cpu0_L2C TRANSLATION  ACCESS:       1143 HIT:        569 MISS:        574
cpu0_L2C PREFETCH REQUESTED:    5991577 ISSUED:    4340442 USEFUL:     330520 USELESS:     508990
cpu0_L2C AVERAGE MISS LATENCY: 40.24 cycles
cpu0_STLB TOTAL        ACCESS:    2478641 HIT:    2477424 MISS:       1217
cpu0_STLB LOAD         ACCESS:    2478641 HIT:    2477424 MISS:       1217
cpu0_STLB RFO          ACCESS:          0 HIT:          0 MISS:          0
cpu0_STLB PREFETCH     ACCESS:          0 HIT:          0 MISS:          0
cpu0_STLB WRITE        ACCESS:          0 HIT:          0 MISS:          0
cpu0_STLB TRANSLATION  ACCESS:          0 HIT:          0 MISS:          0
cpu0_STLB PREFETCH REQUESTED:          0 ISSUED:          0 USEFUL:          0 USELESS:          0
cpu0_STLB AVERAGE MISS LATENCY: 156.8 cycles

DRAM Statistics

Channel 0 RQ ROW_BUFFER_HIT:      37107
  ROW_BUFFER_MISS:     162986
 AVG DBUS CONGESTED CYCLE: 3.878
WQ ROW_BUFFER_HIT: Channel 0 
  ROW_BUFFER_MISS:      19828
  FULL:      69736

Channel 1 RQ ROW_BUFFER_HIT:      37269
  ROW_BUFFER_MISS:     161807
 AVG DBUS CONGESTED CYCLE: 3.879
WQ ROW_BUFFER_HIT: Channel 1 
  ROW_BUFFER_MISS:      19523
  FULL:      69383
BERTI TO_L1: 29641405 TO_L2: 31214430 TO_L2_BC_MSHR: 10033801
BERTI AVG_LAT: 38.428 NUM_TRACK_LATENCY: 2096773 NUM_CANT_TRACK_LATENCY: 4
BERTI CROSS_PAGE 7711642 NO_CROSS_PAGE: 53144193
BERTI FOUND_BERTI: 10716574 NO_FOUND_BERTI: 1680045
BERTI AVERAGE_ISSUED: 6.42162
CPU 0 L1I Entangling prefetcher final stats
IP accesses: 2139 84e40 424 / 66710
IP misses: 4921 124840 405 / 19169
IP hits: 0 0 0 / 0
IP late: 2137 84dc0 14 / 4052
IP wrong: eed9 3bb640 24 / 6959
miss rate: 0.287349
coverage: 0
coverage_late: 0.211383
accuracy: 0
accuracy_late: 0.367996
discarded: 0
evicts entangled j table: 0
evicts entangled k table: 927
max bb size: 65
formats: 243 0 958 507 184 469 0 
hist_lookups: 788 832 650 600 509 425 337 245 199 157 100 83 48 31 18 0 9 2859 
hist_lookups_evict: 0.114069 %
hist_lookups_shortlat: 36.2358 %
bb_found_hist: 0 12642 6277 2683 1347 505 167 86 39 52 12 22 8 23 3 0 0 0 0 2 0 2 0 0 0 0 0 0 0 0 0 0 0 0 0 0 0 0 0 0 0 0 0 0 0 0 0 0 0 0 0 0 0 0 0 0 0 0 0 2 0 0 0 0 
bb_found_summary: 44539 23872 1.86575
entangled_found_hist: 0 6706 4693 9015 1679 385 13 0 
entangled_found_summary: 51856 22491 2.30564
bb_ent_found_hist: 0 18761 10541 4787 1700 1234 430 221 45 63 39 0 49 0 0 0 0 0 0 0 0 0 0 0 0 0 0 0 0 0 0 0 0 0 0 0 0 0 0 0 0 0 0 0 0 0 0 0 0 0 0 0 0 0 0 0 0 0 0 5 0 0 0 0 
bb_ent_found_summary: 73501 37875 1.94063
