WARNING: physical memory size is smaller than virtual memory size.

*** ChampSim Multicore Out-of-Order Simulator ***
Warmup Instructions: 30000000
Simulation Instructions: 100000000
Number of CPUs: 1
Page size: 4096

BTB:
Basic BTB sets: 1024 ways: 8
Indirect:
history lengths: 0 0 10 16 27 44 60 96 109 219 449 487 714 1313 2146 3881 
ITTAGE tables: 64768 bytes;Region table: 240 bytes;IUM: 384 bytes;Total Storage= 65392 bytes;
RAS:
RAS size: 64
[LLC] Demand IPV: 1 2 2 1 4 Prefetch IPV: 1 2 1 1 4
Berti Prefetcher
CPU 0 Entangling prefetcher
Off-chip DRAM Size: 8 GiB Channels: 2 Width: 64-bit Data Race: 6400 MT/s
Heartbeat CPU 0 instructions: 10000005 cycles: 1674985 heartbeat IPC: 5.97 cumulative IPC: 5.97 (Simulation time: 00 hr 00 min 33 sec)
Heartbeat CPU 0 instructions: 20000005 cycles: 3343039 heartbeat IPC: 5.995 cumulative IPC: 5.983 (Simulation time: 00 hr 01 min 06 sec)
*** Reached end of trace: (0, "../traces/secret_traces/compute_int/compute_int_551.champsimtrace.xz")
Heartbeat CPU 0 instructions: 30000003 cycles: 5017687 heartbeat IPC: 5.971 cumulative IPC: 5.979 (Simulation time: 00 hr 01 min 40 sec)
Warmup finished CPU 0 instructions: 30000003 cycles: 5017688 cumulative IPC: 5.979 (Simulation time: 00 hr 01 min 40 sec)
Warmup complete CPU 0 instructions: 30000003 cycles: 5017688 cumulative IPC: 5.979 (Simulation time: 00 hr 01 min 40 sec)
Heartbeat CPU 0 instructions: 40000005 cycles: 9990722 heartbeat IPC: 2.011 cumulative IPC: 2.011 (Simulation time: 00 hr 02 min 36 sec)
*** Reached end of trace: (0, "../traces/secret_traces/compute_int/compute_int_551.champsimtrace.xz")
Heartbeat CPU 0 instructions: 50000001 cycles: 17221187 heartbeat IPC: 1.383 cumulative IPC: 1.639 (Simulation time: 00 hr 03 min 44 sec)
Heartbeat CPU 0 instructions: 60000002 cycles: 23063804 heartbeat IPC: 1.712 cumulative IPC: 1.662 (Simulation time: 00 hr 04 min 44 sec)
*** Reached end of trace: (0, "../traces/secret_traces/compute_int/compute_int_551.champsimtrace.xz")
Heartbeat CPU 0 instructions: 70000001 cycles: 29393025 heartbeat IPC: 1.58 cumulative IPC: 1.641 (Simulation time: 00 hr 05 min 48 sec)
Heartbeat CPU 0 instructions: 80000009 cycles: 36110874 heartbeat IPC: 1.489 cumulative IPC: 1.608 (Simulation time: 00 hr 06 min 53 sec)
Heartbeat CPU 0 instructions: 90000006 cycles: 41287063 heartbeat IPC: 1.932 cumulative IPC: 1.654 (Simulation time: 00 hr 07 min 51 sec)
*** Reached end of trace: (0, "../traces/secret_traces/compute_int/compute_int_551.champsimtrace.xz")
Heartbeat CPU 0 instructions: 100000000 cycles: 48252460 heartbeat IPC: 1.436 cumulative IPC: 1.619 (Simulation time: 00 hr 08 min 58 sec)
Heartbeat CPU 0 instructions: 110000001 cycles: 53336767 heartbeat IPC: 1.967 cumulative IPC: 1.656 (Simulation time: 00 hr 09 min 56 sec)
*** Reached end of trace: (0, "../traces/secret_traces/compute_int/compute_int_551.champsimtrace.xz")
Heartbeat CPU 0 instructions: 120000000 cycles: 60386074 heartbeat IPC: 1.419 cumulative IPC: 1.625 (Simulation time: 00 hr 11 min 02 sec)
Heartbeat CPU 0 instructions: 130000002 cycles: 65460113 heartbeat IPC: 1.971 cumulative IPC: 1.654 (Simulation time: 00 hr 11 min 59 sec)
Simulation finished CPU 0 instructions: 100000000 cycles: 60442427 cumulative IPC: 1.654 (Simulation time: 00 hr 11 min 59 sec)
Simulation complete CPU 0 instructions: 100000000 cycles: 60442427 cumulative IPC: 1.654 (Simulation time: 00 hr 11 min 59 sec)

ChampSim completed all CPUs

=== Simulation ===
CPU 0 runs ../traces/secret_traces/compute_int/compute_int_551.champsimtrace.xz
Region of Interest Statistics

CPU 0 cumulative IPC: 1.654 instructions: 100000000 cycles: 60442427
CPU 0 Branch Prediction Accuracy: 84.78% MPKI: 31.39 Average ROB Occupancy at Mispredict: 7.804
Branch type MPKI
BRANCH_DIRECT_JUMP: 0
BRANCH_INDIRECT: 5.16
BRANCH_CONDITIONAL: 26.2
BRANCH_DIRECT_CALL: 0
BRANCH_INDIRECT_CALL: 0.00014
BRANCH_RETURN: 0.00038

LLC TOTAL        ACCESS:     774791 HIT:     364424 MISS:     410367
LLC LOAD         ACCESS:       4349 HIT:       1674 MISS:       2675
LLC RFO          ACCESS:     251847 HIT:     147012 MISS:     104835
LLC PREFETCH     ACCESS:     203036 HIT:      25896 MISS:     177140
LLC WRITE        ACCESS:     315477 HIT:     189831 MISS:     125646
LLC TRANSLATION  ACCESS:         82 HIT:         11 MISS:         71
LLC PREFETCH REQUESTED:          0 ISSUED:          0 USEFUL:          0 USELESS:          0
LLC AVERAGE MISS LATENCY: 84.57 cycles
cpu0_DTLB TOTAL        ACCESS:   20679278 HIT:   20662906 MISS:      16372
cpu0_DTLB LOAD         ACCESS:   20679278 HIT:   20662906 MISS:      16372
cpu0_DTLB RFO          ACCESS:          0 HIT:          0 MISS:          0
cpu0_DTLB PREFETCH     ACCESS:          0 HIT:          0 MISS:          0
cpu0_DTLB WRITE        ACCESS:          0 HIT:          0 MISS:          0
cpu0_DTLB TRANSLATION  ACCESS:          0 HIT:          0 MISS:          0
cpu0_DTLB PREFETCH REQUESTED:          0 ISSUED:          0 USEFUL:          0 USELESS:          0
cpu0_DTLB AVERAGE MISS LATENCY: 3.596 cycles
cpu0_ITLB TOTAL        ACCESS:      12921 HIT:      12921 MISS:          0
cpu0_ITLB LOAD         ACCESS:      12921 HIT:      12921 MISS:          0
cpu0_ITLB RFO          ACCESS:          0 HIT:          0 MISS:          0
cpu0_ITLB PREFETCH     ACCESS:          0 HIT:          0 MISS:          0
cpu0_ITLB WRITE        ACCESS:          0 HIT:          0 MISS:          0
cpu0_ITLB TRANSLATION  ACCESS:          0 HIT:          0 MISS:          0
cpu0_ITLB PREFETCH REQUESTED:          0 ISSUED:          0 USEFUL:          0 USELESS:          0
cpu0_ITLB AVERAGE MISS LATENCY: -nan cycles
cpu0_L1D TOTAL        ACCESS:   31559737 HIT:   22480869 MISS:    9078868
cpu0_L1D LOAD         ACCESS:   12155171 HIT:   11868658 MISS:     286513
cpu0_L1D RFO          ACCESS:          0 HIT:          0 MISS:          0
cpu0_L1D PREFETCH     ACCESS:   11155444 HIT:    5056045 MISS:    6099399
cpu0_L1D WRITE        ACCESS:    8248773 HIT:    5555991 MISS:    2692782
cpu0_L1D TRANSLATION  ACCESS:        349 HIT:        175 MISS:        174
cpu0_L1D PREFETCH REQUESTED:   12495508 ISSUED:   11155444 USEFUL:      59076 USELESS:        208
cpu0_L1D AVERAGE MISS LATENCY: 1.285 cycles
cpu0_L1I TOTAL        ACCESS:      18681 HIT:      16104 MISS:       2577
cpu0_L1I LOAD         ACCESS:       7332 HIT:       6314 MISS:       1018
cpu0_L1I RFO          ACCESS:          0 HIT:          0 MISS:          0
cpu0_L1I PREFETCH     ACCESS:      11349 HIT:       9790 MISS:       1559
cpu0_L1I WRITE        ACCESS:          0 HIT:          0 MISS:          0
cpu0_L1I TRANSLATION  ACCESS:          0 HIT:          0 MISS:          0
cpu0_L1I PREFETCH REQUESTED:      13262 ISSUED:      11349 USEFUL:       1114 USELESS:        120
cpu0_L1I AVERAGE MISS LATENCY: 167.9 cycles
cpu0_L2C TOTAL        ACCESS:   11698221 HIT:   10790259 MISS:     907962
cpu0_L2C LOAD         ACCESS:      89500 HIT:      82832 MISS:       6668
cpu0_L2C RFO          ACCESS:     313953 HIT:      60805 MISS:     253148
cpu0_L2C PREFETCH     ACCESS:   10978478 HIT:   10330414 MISS:     648064
cpu0_L2C WRITE        ACCESS:     316116 HIT:     316116 MISS:          0
cpu0_L2C TRANSLATION  ACCESS:        174 HIT:         92 MISS:         82
cpu0_L2C PREFETCH REQUESTED:    5812136 ISSUED:    5255840 USEFUL:     148397 USELESS:       3964
cpu0_L2C AVERAGE MISS LATENCY: 48.11 cycles
cpu0_STLB TOTAL        ACCESS:       7875 HIT:       7526 MISS:        349
cpu0_STLB LOAD         ACCESS:       7875 HIT:       7526 MISS:        349
cpu0_STLB RFO          ACCESS:          0 HIT:          0 MISS:          0
cpu0_STLB PREFETCH     ACCESS:          0 HIT:          0 MISS:          0
cpu0_STLB WRITE        ACCESS:          0 HIT:          0 MISS:          0
cpu0_STLB TRANSLATION  ACCESS:          0 HIT:          0 MISS:          0
cpu0_STLB PREFETCH REQUESTED:          0 ISSUED:          0 USEFUL:          0 USELESS:          0
cpu0_STLB AVERAGE MISS LATENCY: 60.02 cycles

DRAM Statistics

Channel 0 RQ ROW_BUFFER_HIT:      81757
  ROW_BUFFER_MISS:      60722
 AVG DBUS CONGESTED CYCLE: 3.818
WQ ROW_BUFFER_HIT: Channel 0 
  ROW_BUFFER_MISS:      11560
  FULL:      52882

Channel 1 RQ ROW_BUFFER_HIT:      82084
  ROW_BUFFER_MISS:      60158
 AVG DBUS CONGESTED CYCLE: 3.815
WQ ROW_BUFFER_HIT: Channel 1 
  ROW_BUFFER_MISS:      11552
  FULL:      52675
BERTI TO_L1: 2333420 TO_L2: 12041980 TO_L2_BC_MSHR: 385297
BERTI AVG_LAT: 37.8706 NUM_TRACK_LATENCY: 210646 NUM_CANT_TRACK_LATENCY: 0
BERTI CROSS_PAGE 2319397 NO_CROSS_PAGE: 12056003
BERTI FOUND_BERTI: 11839057 NO_FOUND_BERTI: 3998721
BERTI AVERAGE_ISSUED: 4.54447
CPU 0 L1I Entangling prefetcher final stats
IP accesses: 3b1b ec6c0 71 / 7457
IP misses: 3b1b ec6c0 71 / 1143
IP hits: 0 0 0 / 0
IP late: 9d 2740 9 / 570
IP wrong: 44ed 113b40 6 / 119
miss rate: 0.153279
coverage: 0
coverage_late: 0.498688
accuracy: 0
accuracy_late: 0.827286
discarded: 0
evicts entangled j table: 0
evicts entangled k table: 80
max bb size: 7
formats: 15 0 79 16 10 11 0 
hist_lookups: 16 26 26 16 17 35 34 26 29 15 17 12 7 12 6 0 0 943 
hist_lookups_evict: 0 %
hist_lookups_shortlat: 76.2329 %
bb_found_hist: 0 1509 697 322 123 31 28 8 0 0 0 0 0 0 0 0 0 0 0 0 0 0 0 0 0 0 0 0 0 0 0 0 0 0 0 0 0 0 0 0 0 0 0 0 0 0 0 0 0 0 0 0 0 0 0 0 0 0 0 0 0 0 0 0 
bb_found_summary: 4740 2718 1.74393
entangled_found_hist: 0 882 398 630 89 47 4 0 
entangled_found_summary: 4183 2050 2.04049
bb_ent_found_hist: 0 1356 582 427 315 32 16 0 0 0 0 0 0 0 0 0 0 0 0 0 0 0 0 0 0 0 0 0 0 0 0 0 0 0 0 0 0 0 0 0 0 0 0 0 0 0 0 0 0 0 0 0 0 0 0 0 0 0 0 0 0 0 0 0 
bb_ent_found_summary: 5317 2728 1.94905
