WARNING: physical memory size is smaller than virtual memory size.

*** ChampSim Multicore Out-of-Order Simulator ***
Warmup Instructions: 30000000
Simulation Instructions: 100000000
Number of CPUs: 1
Page size: 4096

BTB:
Basic BTB sets: 1024 ways: 8
Indirect:
history lengths: 0 0 10 16 27 44 60 96 109 219 449 487 714 1313 2146 3881 
ITTAGE tables: 64768 bytes;Region table: 240 bytes;IUM: 384 bytes;Total Storage= 65392 bytes;
RAS:
RAS size: 64
[LLC] Demand IPV: 1 2 2 1 4 Prefetch IPV: 1 2 1 1 4
Berti Prefetcher
CPU 0 Entangling prefetcher
Off-chip DRAM Size: 8 GiB Channels: 2 Width: 64-bit Data Race: 6400 MT/s
Heartbeat CPU 0 instructions: 10000001 cycles: 2750820 heartbeat IPC: 3.635 cumulative IPC: 3.635 (Simulation time: 00 hr 00 min 50 sec)
Heartbeat CPU 0 instructions: 20000002 cycles: 5277447 heartbeat IPC: 3.958 cumulative IPC: 3.79 (Simulation time: 00 hr 01 min 39 sec)
Heartbeat CPU 0 instructions: 30000001 cycles: 8021363 heartbeat IPC: 3.644 cumulative IPC: 3.74 (Simulation time: 00 hr 02 min 30 sec)
Warmup finished CPU 0 instructions: 30000001 cycles: 8021364 cumulative IPC: 3.74 (Simulation time: 00 hr 02 min 30 sec)
Warmup complete CPU 0 instructions: 30000001 cycles: 8021364 cumulative IPC: 3.74 (Simulation time: 00 hr 02 min 30 sec)
Heartbeat CPU 0 instructions: 40000003 cycles: 12007807 heartbeat IPC: 2.509 cumulative IPC: 2.509 (Simulation time: 00 hr 03 min 41 sec)
Heartbeat CPU 0 instructions: 50000004 cycles: 16333008 heartbeat IPC: 2.312 cumulative IPC: 2.406 (Simulation time: 00 hr 04 min 58 sec)
Heartbeat CPU 0 instructions: 60000000 cycles: 21582829 heartbeat IPC: 1.905 cumulative IPC: 2.212 (Simulation time: 00 hr 06 min 28 sec)
Heartbeat CPU 0 instructions: 70000002 cycles: 26273265 heartbeat IPC: 2.132 cumulative IPC: 2.192 (Simulation time: 00 hr 07 min 49 sec)
Heartbeat CPU 0 instructions: 80000000 cycles: 30525366 heartbeat IPC: 2.352 cumulative IPC: 2.222 (Simulation time: 00 hr 09 min 03 sec)
Heartbeat CPU 0 instructions: 90000001 cycles: 34691461 heartbeat IPC: 2.4 cumulative IPC: 2.25 (Simulation time: 00 hr 10 min 16 sec)
Heartbeat CPU 0 instructions: 100000001 cycles: 39352810 heartbeat IPC: 2.145 cumulative IPC: 2.234 (Simulation time: 00 hr 11 min 37 sec)
Heartbeat CPU 0 instructions: 110000000 cycles: 43585176 heartbeat IPC: 2.363 cumulative IPC: 2.249 (Simulation time: 00 hr 12 min 54 sec)
*** Reached end of trace: (0, "../traces/secret_traces/compute_int/compute_int_421.champsimtrace.xz")
Heartbeat CPU 0 instructions: 120000001 cycles: 47646508 heartbeat IPC: 2.462 cumulative IPC: 2.271 (Simulation time: 00 hr 14 min 06 sec)
Heartbeat CPU 0 instructions: 130000001 cycles: 52763962 heartbeat IPC: 1.954 cumulative IPC: 2.235 (Simulation time: 00 hr 15 min 29 sec)
Simulation finished CPU 0 instructions: 100000000 cycles: 44742599 cumulative IPC: 2.235 (Simulation time: 00 hr 15 min 29 sec)
Simulation complete CPU 0 instructions: 100000000 cycles: 44742599 cumulative IPC: 2.235 (Simulation time: 00 hr 15 min 29 sec)

ChampSim completed all CPUs

=== Simulation ===
CPU 0 runs ../traces/secret_traces/compute_int/compute_int_421.champsimtrace.xz
Region of Interest Statistics

CPU 0 cumulative IPC: 2.235 instructions: 100000000 cycles: 44742599
CPU 0 Branch Prediction Accuracy: 99.63% MPKI: 1.155 Average ROB Occupancy at Mispredict: 191.2
Branch type MPKI
BRANCH_DIRECT_JUMP: 0.00715
BRANCH_INDIRECT: 0.579
BRANCH_CONDITIONAL: 0.54
BRANCH_DIRECT_CALL: 0.0181
BRANCH_INDIRECT_CALL: 0.00273
BRANCH_RETURN: 0.00853

LLC TOTAL        ACCESS:    3425194 HIT:    1185965 MISS:    2239229
LLC LOAD         ACCESS:     986187 HIT:     290852 MISS:     695335
LLC RFO          ACCESS:      13052 HIT:       4091 MISS:       8961
LLC PREFETCH     ACCESS:    2359892 HIT:     874593 MISS:    1485299
LLC WRITE        ACCESS:      24051 HIT:      14390 MISS:       9661
LLC TRANSLATION  ACCESS:      42012 HIT:       2039 MISS:      39973
LLC PREFETCH REQUESTED:          0 ISSUED:          0 USEFUL:          0 USELESS:          0
LLC AVERAGE MISS LATENCY: 133.9 cycles
cpu0_DTLB TOTAL        ACCESS:   24340088 HIT:   23889342 MISS:     450746
cpu0_DTLB LOAD         ACCESS:   24340088 HIT:   23889342 MISS:     450746
cpu0_DTLB RFO          ACCESS:          0 HIT:          0 MISS:          0
cpu0_DTLB PREFETCH     ACCESS:          0 HIT:          0 MISS:          0
cpu0_DTLB WRITE        ACCESS:          0 HIT:          0 MISS:          0
cpu0_DTLB TRANSLATION  ACCESS:          0 HIT:          0 MISS:          0
cpu0_DTLB PREFETCH REQUESTED:          0 ISSUED:          0 USEFUL:          0 USELESS:          0
cpu0_DTLB AVERAGE MISS LATENCY: 40.31 cycles
cpu0_ITLB TOTAL        ACCESS:     632581 HIT:     629609 MISS:       2972
cpu0_ITLB LOAD         ACCESS:     632581 HIT:     629609 MISS:       2972
cpu0_ITLB RFO          ACCESS:          0 HIT:          0 MISS:          0
cpu0_ITLB PREFETCH     ACCESS:          0 HIT:          0 MISS:          0
cpu0_ITLB WRITE        ACCESS:          0 HIT:          0 MISS:          0
cpu0_ITLB TRANSLATION  ACCESS:          0 HIT:          0 MISS:          0
cpu0_ITLB PREFETCH REQUESTED:          0 ISSUED:          0 USEFUL:          0 USELESS:          0
cpu0_ITLB AVERAGE MISS LATENCY: 105.1 cycles
cpu0_L1D TOTAL        ACCESS:   36804350 HIT:   21589296 MISS:   15215054
cpu0_L1D LOAD         ACCESS:   27835501 HIT:   19933024 MISS:    7902477
cpu0_L1D RFO          ACCESS:          0 HIT:          0 MISS:          0
cpu0_L1D PREFETCH     ACCESS:    7945429 HIT:     769239 MISS:    7176190
cpu0_L1D WRITE        ACCESS:     915229 HIT:     831643 MISS:      83586
cpu0_L1D TRANSLATION  ACCESS:     108191 HIT:      55390 MISS:      52801
cpu0_L1D PREFETCH REQUESTED:    8987158 ISSUED:    7945429 USEFUL:     189132 USELESS:      86084
cpu0_L1D AVERAGE MISS LATENCY: 10.78 cycles
cpu0_L1I TOTAL        ACCESS:     915027 HIT:     762306 MISS:     152721
cpu0_L1I LOAD         ACCESS:     375019 HIT:     318183 MISS:      56836
cpu0_L1I RFO          ACCESS:          0 HIT:          0 MISS:          0
cpu0_L1I PREFETCH     ACCESS:     540008 HIT:     444123 MISS:      95885
cpu0_L1I WRITE        ACCESS:          0 HIT:          0 MISS:          0
cpu0_L1I TRANSLATION  ACCESS:          0 HIT:          0 MISS:          0
cpu0_L1I PREFETCH REQUESTED:    1157169 ISSUED:     540008 USEFUL:      65955 USELESS:      23483
cpu0_L1I AVERAGE MISS LATENCY: 42.49 cycles
cpu0_L2C TOTAL        ACCESS:   14387580 HIT:    5960545 MISS:    8427035
cpu0_L2C LOAD         ACCESS:    2149975 HIT:     950406 MISS:    1199569
cpu0_L2C RFO          ACCESS:      22042 HIT:       8930 MISS:      13112
cpu0_L2C PREFETCH     ACCESS:   12123210 HIT:    4951061 MISS:    7172149
cpu0_L2C WRITE        ACCESS:      40324 HIT:      40132 MISS:        192
cpu0_L2C TRANSLATION  ACCESS:      52029 HIT:      10016 MISS:      42013
cpu0_L2C PREFETCH REQUESTED:    7297720 ISSUED:    6977195 USEFUL:     726855 USELESS:     550752
cpu0_L2C AVERAGE MISS LATENCY: 42.06 cycles
cpu0_STLB TOTAL        ACCESS:     151250 HIT:      58014 MISS:      93236
cpu0_STLB LOAD         ACCESS:     151250 HIT:      58014 MISS:      93236
cpu0_STLB RFO          ACCESS:          0 HIT:          0 MISS:          0
cpu0_STLB PREFETCH     ACCESS:          0 HIT:          0 MISS:          0
cpu0_STLB WRITE        ACCESS:          0 HIT:          0 MISS:          0
cpu0_STLB TRANSLATION  ACCESS:          0 HIT:          0 MISS:          0
cpu0_STLB PREFETCH REQUESTED:          0 ISSUED:          0 USEFUL:          0 USELESS:          0
cpu0_STLB AVERAGE MISS LATENCY: 207.7 cycles

DRAM Statistics

Channel 0 RQ ROW_BUFFER_HIT:     925928
  ROW_BUFFER_MISS:     197744
 AVG DBUS CONGESTED CYCLE: 3.841
WQ ROW_BUFFER_HIT: Channel 0 
  ROW_BUFFER_MISS:       1929
  FULL:       4244

Channel 1 RQ ROW_BUFFER_HIT:     919485
  ROW_BUFFER_MISS:     186399
 AVG DBUS CONGESTED CYCLE: 3.833
WQ ROW_BUFFER_HIT: Channel 1 
  ROW_BUFFER_MISS:       2157
  FULL:       3967
BERTI TO_L1: 1364068 TO_L2: 8782044 TO_L2_BC_MSHR: 290773
BERTI AVG_LAT: 57.9788 NUM_TRACK_LATENCY: 3074052 NUM_CANT_TRACK_LATENCY: 12
BERTI CROSS_PAGE 1234271 NO_CROSS_PAGE: 8911841
BERTI FOUND_BERTI: 15613426 NO_FOUND_BERTI: 21653608
BERTI AVERAGE_ISSUED: 1.83909
CPU 0 L1I Entangling prefetcher final stats
IP accesses: 41a8 106a00 4749 / 394743
IP misses: 77cb 1df2c0 921 / 76560
IP hits: 0 0 0 / 0
IP late: 180c 60300 143 / 23006
IP wrong: 6bca 1af280 264 / 23232
miss rate: 0.193949
coverage: 0
coverage_late: 0.300497
accuracy: 0
accuracy_late: 0.497557
discarded: 0
evicts entangled j table: 0
evicts entangled k table: 6150
max bb size: 65
formats: 337 0 5300 2183 563 1230 0 
hist_lookups: 2399 3856 3348 3453 3678 3262 2460 1768 1532 1132 908 676 440 310 194 0 300 13133 
hist_lookups_evict: 0.700134 %
hist_lookups_shortlat: 30.6495 %
bb_found_hist: 0 88394 37182 8368 6750 4108 2221 392 145 69 93 327 10 23 3 0 0 0 0 2 0 2 0 0 0 0 0 0 0 0 0 0 0 0 0 0 0 0 0 0 0 0 0 0 0 0 0 0 0 0 0 0 0 0 0 0 0 0 0 0 0 0 0 0 
bb_found_summary: 258321 148089 1.74437
entangled_found_hist: 0 28836 31261 91475 16674 1650 199 0 
entangled_found_summary: 441923 170095 2.5981
bb_ent_found_hist: 0 145547 89781 22493 16965 10282 4165 981 663 33 421 2431 52 0 0 0 0 0 0 0 0 0 0 0 0 0 0 0 0 0 0 0 0 0 0 0 0 0 0 0 0 0 0 0 0 0 0 0 0 0 0 0 0 0 0 0 0 0 0 0 0 0 0 0 
bb_ent_found_summary: 580891 293814 1.97708
