WARNING: physical memory size is smaller than virtual memory size.

*** ChampSim Multicore Out-of-Order Simulator ***
Warmup Instructions: 30000000
Simulation Instructions: 100000000
Number of CPUs: 1
Page size: 4096

BTB:
Basic BTB sets: 1024 ways: 8
Indirect:
history lengths: 0 0 10 16 27 44 60 96 109 219 449 487 714 1313 2146 3881 
ITTAGE tables: 64768 bytes;Region table: 240 bytes;IUM: 384 bytes;Total Storage= 65392 bytes;
RAS:
RAS size: 64
[LLC] Demand IPV: 1 2 2 1 4 Prefetch IPV: 1 2 1 1 4
Berti Prefetcher
CPU 0 Entangling prefetcher
Off-chip DRAM Size: 8 GiB Channels: 2 Width: 64-bit Data Race: 6400 MT/s
Heartbeat CPU 0 instructions: 10000003 cycles: 2108679 heartbeat IPC: 4.742 cumulative IPC: 4.742 (Simulation time: 00 hr 00 min 44 sec)
Heartbeat CPU 0 instructions: 20000000 cycles: 3884912 heartbeat IPC: 5.63 cumulative IPC: 5.148 (Simulation time: 00 hr 01 min 22 sec)
Heartbeat CPU 0 instructions: 30000003 cycles: 5551769 heartbeat IPC: 5.999 cumulative IPC: 5.404 (Simulation time: 00 hr 01 min 55 sec)
Warmup finished CPU 0 instructions: 30000003 cycles: 5551770 cumulative IPC: 5.404 (Simulation time: 00 hr 01 min 55 sec)
Warmup complete CPU 0 instructions: 30000003 cycles: 5551770 cumulative IPC: 5.404 (Simulation time: 00 hr 01 min 55 sec)
Heartbeat CPU 0 instructions: 40000001 cycles: 7576593 heartbeat IPC: 4.939 cumulative IPC: 4.939 (Simulation time: 00 hr 02 min 33 sec)
Heartbeat CPU 0 instructions: 50000003 cycles: 9588274 heartbeat IPC: 4.971 cumulative IPC: 4.955 (Simulation time: 00 hr 03 min 12 sec)
Heartbeat CPU 0 instructions: 60000002 cycles: 11580197 heartbeat IPC: 5.02 cumulative IPC: 4.976 (Simulation time: 00 hr 03 min 48 sec)
Heartbeat CPU 0 instructions: 70000001 cycles: 13575734 heartbeat IPC: 5.011 cumulative IPC: 4.985 (Simulation time: 00 hr 04 min 24 sec)
Heartbeat CPU 0 instructions: 80000000 cycles: 15733335 heartbeat IPC: 4.635 cumulative IPC: 4.911 (Simulation time: 00 hr 05 min 07 sec)
Heartbeat CPU 0 instructions: 90000003 cycles: 18277668 heartbeat IPC: 3.93 cumulative IPC: 4.715 (Simulation time: 00 hr 05 min 56 sec)
Heartbeat CPU 0 instructions: 100000002 cycles: 20630804 heartbeat IPC: 4.25 cumulative IPC: 4.642 (Simulation time: 00 hr 06 min 46 sec)
Heartbeat CPU 0 instructions: 110000000 cycles: 23393645 heartbeat IPC: 3.619 cumulative IPC: 4.484 (Simulation time: 00 hr 07 min 30 sec)
Heartbeat CPU 0 instructions: 120000000 cycles: 26123790 heartbeat IPC: 3.663 cumulative IPC: 4.375 (Simulation time: 00 hr 08 min 14 sec)
Heartbeat CPU 0 instructions: 130000001 cycles: 29091759 heartbeat IPC: 3.369 cumulative IPC: 4.248 (Simulation time: 00 hr 09 min 00 sec)
Simulation finished CPU 0 instructions: 100000007 cycles: 23539991 cumulative IPC: 4.248 (Simulation time: 00 hr 09 min 00 sec)
Simulation complete CPU 0 instructions: 100000007 cycles: 23539991 cumulative IPC: 4.248 (Simulation time: 00 hr 09 min 00 sec)

ChampSim completed all CPUs

=== Simulation ===
CPU 0 runs ../traces/secret_traces/compute_int/compute_int_863.champsimtrace.xz
Region of Interest Statistics

CPU 0 cumulative IPC: 4.248 instructions: 100000007 cycles: 23539991
CPU 0 Branch Prediction Accuracy: 97.59% MPKI: 3.612 Average ROB Occupancy at Mispredict: 34.15
Branch type MPKI
BRANCH_DIRECT_JUMP: 0.00072
BRANCH_INDIRECT: 0.816
BRANCH_CONDITIONAL: 2.79
BRANCH_DIRECT_CALL: 0.00044
BRANCH_INDIRECT_CALL: 0.00024
BRANCH_RETURN: 0.00043

LLC TOTAL        ACCESS:      66559 HIT:      37664 MISS:      28895
LLC LOAD         ACCESS:       2301 HIT:        724 MISS:       1577
LLC RFO          ACCESS:      30697 HIT:      13970 MISS:      16727
LLC PREFETCH     ACCESS:       7168 HIT:       4676 MISS:       2492
LLC WRITE        ACCESS:      26276 HIT:      18276 MISS:       8000
LLC TRANSLATION  ACCESS:        117 HIT:         18 MISS:         99
LLC PREFETCH REQUESTED:          0 ISSUED:          0 USEFUL:          0 USELESS:          0
LLC AVERAGE MISS LATENCY: 147.5 cycles
cpu0_DTLB TOTAL        ACCESS:   18868505 HIT:   18824320 MISS:      44185
cpu0_DTLB LOAD         ACCESS:   18868505 HIT:   18824320 MISS:      44185
cpu0_DTLB RFO          ACCESS:          0 HIT:          0 MISS:          0
cpu0_DTLB PREFETCH     ACCESS:          0 HIT:          0 MISS:          0
cpu0_DTLB WRITE        ACCESS:          0 HIT:          0 MISS:          0
cpu0_DTLB TRANSLATION  ACCESS:          0 HIT:          0 MISS:          0
cpu0_DTLB PREFETCH REQUESTED:          0 ISSUED:          0 USEFUL:          0 USELESS:          0
cpu0_DTLB AVERAGE MISS LATENCY: 4.817 cycles
cpu0_ITLB TOTAL        ACCESS:     945685 HIT:     945574 MISS:        111
cpu0_ITLB LOAD         ACCESS:     945685 HIT:     945574 MISS:        111
cpu0_ITLB RFO          ACCESS:          0 HIT:          0 MISS:          0
cpu0_ITLB PREFETCH     ACCESS:          0 HIT:          0 MISS:          0
cpu0_ITLB WRITE        ACCESS:          0 HIT:          0 MISS:          0
cpu0_ITLB TRANSLATION  ACCESS:          0 HIT:          0 MISS:          0
cpu0_ITLB PREFETCH REQUESTED:          0 ISSUED:          0 USEFUL:          0 USELESS:          0
cpu0_ITLB AVERAGE MISS LATENCY: 102.5 cycles
cpu0_L1D TOTAL        ACCESS:   35277949 HIT:   34021546 MISS:    1256403
cpu0_L1D LOAD         ACCESS:   19947438 HIT:   19524700 MISS:     422738
cpu0_L1D RFO          ACCESS:          0 HIT:          0 MISS:          0
cpu0_L1D PREFETCH     ACCESS:    2631142 HIT:    2180314 MISS:     450828
cpu0_L1D WRITE        ACCESS:   12698926 HIT:   12316275 MISS:     382651
cpu0_L1D TRANSLATION  ACCESS:        443 HIT:        257 MISS:        186
cpu0_L1D PREFETCH REQUESTED:    7502597 ISSUED:    2631142 USEFUL:      40093 USELESS:      12504
cpu0_L1D AVERAGE MISS LATENCY: 7.511 cycles
cpu0_L1I TOTAL        ACCESS:    1443375 HIT:    1437643 MISS:       5732
cpu0_L1I LOAD         ACCESS:     601346 HIT:     598697 MISS:       2649
cpu0_L1I RFO          ACCESS:          0 HIT:          0 MISS:          0
cpu0_L1I PREFETCH     ACCESS:     842029 HIT:     838946 MISS:       3083
cpu0_L1I WRITE        ACCESS:          0 HIT:          0 MISS:          0
cpu0_L1I TRANSLATION  ACCESS:          0 HIT:          0 MISS:          0
cpu0_L1I PREFETCH REQUESTED:    2094796 ISSUED:     842029 USEFUL:       1374 USELESS:       1319
cpu0_L1I AVERAGE MISS LATENCY: 44.12 cycles
cpu0_L2C TOTAL        ACCESS:    1562936 HIT:    1519339 MISS:      43597
cpu0_L2C LOAD         ACCESS:     279847 HIT:     277096 MISS:       2751
cpu0_L2C RFO          ACCESS:     107416 HIT:      76717 MISS:      30699
cpu0_L2C PREFETCH     ACCESS:     998129 HIT:     988099 MISS:      10030
cpu0_L2C WRITE        ACCESS:     177365 HIT:     177365 MISS:          0
cpu0_L2C TRANSLATION  ACCESS:        179 HIT:         62 MISS:        117
cpu0_L2C PREFETCH REQUESTED:     699563 ISSUED:     578672 USEFUL:       4320 USELESS:       1488
cpu0_L2C AVERAGE MISS LATENCY: 116.2 cycles
cpu0_STLB TOTAL        ACCESS:      26100 HIT:      25665 MISS:        435
cpu0_STLB LOAD         ACCESS:      26100 HIT:      25665 MISS:        435
cpu0_STLB RFO          ACCESS:          0 HIT:          0 MISS:          0
cpu0_STLB PREFETCH     ACCESS:          0 HIT:          0 MISS:          0
cpu0_STLB WRITE        ACCESS:          0 HIT:          0 MISS:          0
cpu0_STLB TRANSLATION  ACCESS:          0 HIT:          0 MISS:          0
cpu0_STLB PREFETCH REQUESTED:          0 ISSUED:          0 USEFUL:          0 USELESS:          0
cpu0_STLB AVERAGE MISS LATENCY: 176.8 cycles

DRAM Statistics

Channel 0 RQ ROW_BUFFER_HIT:       4865
  ROW_BUFFER_MISS:       5613
 AVG DBUS CONGESTED CYCLE: 3.947
WQ ROW_BUFFER_HIT: Channel 0 
  ROW_BUFFER_MISS:        677
  FULL:       5075

Channel 1 RQ ROW_BUFFER_HIT:       4531
  ROW_BUFFER_MISS:       5886
 AVG DBUS CONGESTED CYCLE: 3.952
WQ ROW_BUFFER_HIT: Channel 1 
  ROW_BUFFER_MISS:        571
  FULL:       5036
BERTI TO_L1: 8062448 TO_L2: 3887793 TO_L2_BC_MSHR: 727701
BERTI AVG_LAT: 23.9553 NUM_TRACK_LATENCY: 740846 NUM_CANT_TRACK_LATENCY: 0
BERTI CROSS_PAGE 2944010 NO_CROSS_PAGE: 9006231
BERTI FOUND_BERTI: 4863310 NO_FOUND_BERTI: 20705308
BERTI AVERAGE_ISSUED: 4.58549
CPU 0 L1I Entangling prefetcher final stats
IP accesses: 364 d900 13406 / 601662
IP misses: 72bd 1caf40 41 / 2965
IP hits: 0 0 0 / 0
IP late: 38f0 e3c00 8 / 1092
IP wrong: ef71 3bdc40 9 / 1310
miss rate: 0.00492802
coverage: 0
coverage_late: 0.368297
accuracy: 0
accuracy_late: 0.454622
discarded: 0
evicts entangled j table: 0
evicts entangled k table: 308
max bb size: 88
formats: 62 0 250 102 47 139 0 
hist_lookups: 161 176 162 174 177 164 126 123 77 56 56 33 17 10 1 0 0 2167 
hist_lookups_evict: 0 %
hist_lookups_shortlat: 58.8859 %
bb_found_hist: 0 17718 27525 21809 21791 2846 12208 40 374 27 1382 1685 2937 1088 2111 1646 889 0 352 1028 3024 1289 8606 124 3186 72 1694 1288 7 1267 4 2 6 39 2 1475 33 2 889 0 12 194 1387 1 6 1391 7394 0 1 3 1623 6 2 174 1659 0 10 1 1472 1226 1094 0 1582 0 
bb_found_summary: 2026913 159703 12.6918
entangled_found_hist: 0 13306 940 8970 352 40 32 0 
entangled_found_summary: 43896 23640 1.85686
bb_ent_found_hist: 0 8534 2069 1179 686 309 115 80 50 31 2 17 1 0 0 3 0 0 0 0 0 0 0 0 0 0 0 0 0 0 0 0 0 0 0 0 0 0 0 0 0 0 0 0 0 0 91 0 0 0 0 0 0 0 0 0 0 0 0 0 0 0 0 0 
bb_ent_found_summary: 26877 13167 2.04124
