WARNING: physical memory size is smaller than virtual memory size.

*** ChampSim Multicore Out-of-Order Simulator ***
Warmup Instructions: 30000000
Simulation Instructions: 100000000
Number of CPUs: 1
Page size: 4096

BTB:
Basic BTB sets: 1024 ways: 8
Indirect:
history lengths: 0 0 10 16 27 44 60 96 109 219 449 487 714 1313 2146 3881 
ITTAGE tables: 64768 bytes;Region table: 240 bytes;IUM: 384 bytes;Total Storage= 65392 bytes;
RAS:
RAS size: 64
[LLC] Demand IPV: 1 2 2 1 4 Prefetch IPV: 1 2 1 1 4
Berti Prefetcher
CPU 0 Entangling prefetcher
Off-chip DRAM Size: 8 GiB Channels: 2 Width: 64-bit Data Race: 6400 MT/s
Heartbeat CPU 0 instructions: 10000008 cycles: 1686134 heartbeat IPC: 5.931 cumulative IPC: 5.931 (Simulation time: 00 hr 00 min 39 sec)
Heartbeat CPU 0 instructions: 20000003 cycles: 3386741 heartbeat IPC: 5.88 cumulative IPC: 5.905 (Simulation time: 00 hr 01 min 19 sec)
Heartbeat CPU 0 instructions: 30000008 cycles: 5080588 heartbeat IPC: 5.904 cumulative IPC: 5.905 (Simulation time: 00 hr 01 min 59 sec)
Warmup finished CPU 0 instructions: 30000008 cycles: 5080589 cumulative IPC: 5.905 (Simulation time: 00 hr 01 min 59 sec)
Warmup complete CPU 0 instructions: 30000008 cycles: 5080589 cumulative IPC: 5.905 (Simulation time: 00 hr 01 min 59 sec)
Heartbeat CPU 0 instructions: 40000002 cycles: 8657980 heartbeat IPC: 2.795 cumulative IPC: 2.795 (Simulation time: 00 hr 02 min 56 sec)
Heartbeat CPU 0 instructions: 50000009 cycles: 12214796 heartbeat IPC: 2.812 cumulative IPC: 2.803 (Simulation time: 00 hr 03 min 51 sec)
Heartbeat CPU 0 instructions: 60000000 cycles: 15539226 heartbeat IPC: 3.008 cumulative IPC: 2.868 (Simulation time: 00 hr 04 min 44 sec)
Heartbeat CPU 0 instructions: 70000000 cycles: 19244261 heartbeat IPC: 2.699 cumulative IPC: 2.824 (Simulation time: 00 hr 05 min 39 sec)
Heartbeat CPU 0 instructions: 80000000 cycles: 22884529 heartbeat IPC: 2.747 cumulative IPC: 2.808 (Simulation time: 00 hr 06 min 35 sec)
Heartbeat CPU 0 instructions: 90000003 cycles: 26597631 heartbeat IPC: 2.693 cumulative IPC: 2.788 (Simulation time: 00 hr 07 min 30 sec)
Heartbeat CPU 0 instructions: 100000006 cycles: 30074214 heartbeat IPC: 2.876 cumulative IPC: 2.801 (Simulation time: 00 hr 08 min 24 sec)
*** Reached end of trace: (0, "../traces/secret_traces/compute_int/compute_int_547.champsimtrace.xz")
Heartbeat CPU 0 instructions: 110000008 cycles: 33687826 heartbeat IPC: 2.767 cumulative IPC: 2.796 (Simulation time: 00 hr 09 min 19 sec)
Heartbeat CPU 0 instructions: 120000000 cycles: 37491465 heartbeat IPC: 2.629 cumulative IPC: 2.777 (Simulation time: 00 hr 10 min 17 sec)
Heartbeat CPU 0 instructions: 130000003 cycles: 41310193 heartbeat IPC: 2.619 cumulative IPC: 2.76 (Simulation time: 00 hr 11 min 28 sec)
Simulation finished CPU 0 instructions: 100000003 cycles: 36229606 cumulative IPC: 2.76 (Simulation time: 00 hr 11 min 28 sec)
Simulation complete CPU 0 instructions: 100000003 cycles: 36229606 cumulative IPC: 2.76 (Simulation time: 00 hr 11 min 28 sec)

ChampSim completed all CPUs

=== Simulation ===
CPU 0 runs ../traces/secret_traces/compute_int/compute_int_547.champsimtrace.xz
Region of Interest Statistics

CPU 0 cumulative IPC: 2.76 instructions: 100000003 cycles: 36229606
CPU 0 Branch Prediction Accuracy: 95.11% MPKI: 8.264 Average ROB Occupancy at Mispredict: 26.88
Branch type MPKI
BRANCH_DIRECT_JUMP: 0.0175
BRANCH_INDIRECT: 2.72
BRANCH_CONDITIONAL: 5.47
BRANCH_DIRECT_CALL: 0.0321
BRANCH_INDIRECT_CALL: 0.00647
BRANCH_RETURN: 0.0167

LLC TOTAL        ACCESS:     138887 HIT:      75319 MISS:      63568
LLC LOAD         ACCESS:      30208 HIT:      13195 MISS:      17013
LLC RFO          ACCESS:       9473 HIT:       8660 MISS:        813
LLC PREFETCH     ACCESS:      56503 HIT:      20855 MISS:      35648
LLC WRITE        ACCESS:      40830 HIT:      32040 MISS:       8790
LLC TRANSLATION  ACCESS:       1873 HIT:        569 MISS:       1304
LLC PREFETCH REQUESTED:          0 ISSUED:          0 USEFUL:          0 USELESS:          0
LLC AVERAGE MISS LATENCY: 141.7 cycles
cpu0_DTLB TOTAL        ACCESS:   16736709 HIT:   16693606 MISS:      43103
cpu0_DTLB LOAD         ACCESS:   16736709 HIT:   16693606 MISS:      43103
cpu0_DTLB RFO          ACCESS:          0 HIT:          0 MISS:          0
cpu0_DTLB PREFETCH     ACCESS:          0 HIT:          0 MISS:          0
cpu0_DTLB WRITE        ACCESS:          0 HIT:          0 MISS:          0
cpu0_DTLB TRANSLATION  ACCESS:          0 HIT:          0 MISS:          0
cpu0_DTLB PREFETCH REQUESTED:          0 ISSUED:          0 USEFUL:          0 USELESS:          0
cpu0_DTLB AVERAGE MISS LATENCY: 11.27 cycles
cpu0_ITLB TOTAL        ACCESS:   19295015 HIT:   19292609 MISS:       2406
cpu0_ITLB LOAD         ACCESS:   19295015 HIT:   19292609 MISS:       2406
cpu0_ITLB RFO          ACCESS:          0 HIT:          0 MISS:          0
cpu0_ITLB PREFETCH     ACCESS:          0 HIT:          0 MISS:          0
cpu0_ITLB WRITE        ACCESS:          0 HIT:          0 MISS:          0
cpu0_ITLB TRANSLATION  ACCESS:          0 HIT:          0 MISS:          0
cpu0_ITLB PREFETCH REQUESTED:          0 ISSUED:          0 USEFUL:          0 USELESS:          0
cpu0_ITLB AVERAGE MISS LATENCY: 48.96 cycles
cpu0_L1D TOTAL        ACCESS:   23920906 HIT:   23237239 MISS:     683667
cpu0_L1D LOAD         ACCESS:   14343198 HIT:   14177521 MISS:     165677
cpu0_L1D RFO          ACCESS:          0 HIT:          0 MISS:          0
cpu0_L1D PREFETCH     ACCESS:     474458 HIT:     330037 MISS:     144421
cpu0_L1D WRITE        ACCESS:    9099567 HIT:    8729277 MISS:     370290
cpu0_L1D TRANSLATION  ACCESS:       3683 HIT:        404 MISS:       3279
cpu0_L1D PREFETCH REQUESTED:     669236 ISSUED:     474458 USEFUL:      31441 USELESS:       2418
cpu0_L1D AVERAGE MISS LATENCY: 9.212 cycles
cpu0_L1I TOTAL        ACCESS:   30458518 HIT:   26935400 MISS:    3523118
cpu0_L1I LOAD         ACCESS:    8126574 HIT:    7043099 MISS:    1083475
cpu0_L1I RFO          ACCESS:          0 HIT:          0 MISS:          0
cpu0_L1I PREFETCH     ACCESS:   22331944 HIT:   19892301 MISS:    2439643
cpu0_L1I WRITE        ACCESS:          0 HIT:          0 MISS:          0
cpu0_L1I TRANSLATION  ACCESS:          0 HIT:          0 MISS:          0
cpu0_L1I PREFETCH REQUESTED:  104960977 ISSUED:   22331979 USEFUL:    1084330 USELESS:    1259507
cpu0_L1I AVERAGE MISS LATENCY: 9.614 cycles
cpu0_L2C TOTAL        ACCESS:    7000000 HIT:    6885842 MISS:     114158
cpu0_L2C LOAD         ACCESS:     901684 HIT:     870420 MISS:      31264
cpu0_L2C RFO          ACCESS:     119156 HIT:     109678 MISS:       9478
cpu0_L2C PREFETCH     ACCESS:    5813843 HIT:    5742311 MISS:      71532
cpu0_L2C WRITE        ACCESS:     162052 HIT:     162041 MISS:         11
cpu0_L2C TRANSLATION  ACCESS:       3265 HIT:       1392 MISS:       1873
cpu0_L2C PREFETCH REQUESTED:    3372162 ISSUED:    3343415 USEFUL:      16658 USELESS:      25315
cpu0_L2C AVERAGE MISS LATENCY: 96.12 cycles
cpu0_STLB TOTAL        ACCESS:      30713 HIT:      27143 MISS:       3570
cpu0_STLB LOAD         ACCESS:      30713 HIT:      27143 MISS:       3570
cpu0_STLB RFO          ACCESS:          0 HIT:          0 MISS:          0
cpu0_STLB PREFETCH     ACCESS:          0 HIT:          0 MISS:          0
cpu0_STLB WRITE        ACCESS:          0 HIT:          0 MISS:          0
cpu0_STLB TRANSLATION  ACCESS:          0 HIT:          0 MISS:          0
cpu0_STLB PREFETCH REQUESTED:          0 ISSUED:          0 USEFUL:          0 USELESS:          0
cpu0_STLB AVERAGE MISS LATENCY: 111.3 cycles

DRAM Statistics

Channel 0 RQ ROW_BUFFER_HIT:       3846
  ROW_BUFFER_MISS:      23747
 AVG DBUS CONGESTED CYCLE: 3.725
WQ ROW_BUFFER_HIT: Channel 0 
  ROW_BUFFER_MISS:        618
  FULL:       3246

Channel 1 RQ ROW_BUFFER_HIT:       3881
  ROW_BUFFER_MISS:      23304
 AVG DBUS CONGESTED CYCLE: 3.707
WQ ROW_BUFFER_HIT: Channel 1 
  ROW_BUFFER_MISS:        561
  FULL:       3099
BERTI TO_L1: 548499 TO_L2: 531223 TO_L2_BC_MSHR: 23598
BERTI AVG_LAT: 35.4519 NUM_TRACK_LATENCY: 185426 NUM_CANT_TRACK_LATENCY: 0
BERTI CROSS_PAGE 264524 NO_CROSS_PAGE: 815198
BERTI FOUND_BERTI: 1415299 NO_FOUND_BERTI: 17385855
BERTI AVERAGE_ISSUED: 3.50368
CPU 0 L1I Entangling prefetcher final stats
IP accesses: 54c 15300 93313 / 8127032
IP misses: 54c 15300 28295 / 1083933
IP hits: 0 0 0 / 0
IP late: 328a ca280 6612 / 446713
IP wrong: 254e 95380 11654 / 1244669
miss rate: 0.133374
coverage: 0
coverage_late: 0.412123
accuracy: 0
accuracy_late: 0.264112
discarded: 0
evicts entangled j table: 0
evicts entangled k table: 128624
max bb size: 65
formats: 255 0 71139 34447 21909 39623 0 
hist_lookups: 82664 106057 104252 95578 81016 58916 33767 17876 10170 6793 5023 3080 1737 988 451 0 0 13647 
hist_lookups_evict: 0 %
hist_lookups_shortlat: 2.194 %
bb_found_hist: 0 1606903 1279843 936697 639177 413984 341016 348307 242984 111767 76903 63453 56342 30801 2084 5818 71808 0 9698 20570 0 2 0 0 0 0 0 0 0 0 0 0 0 0 0 0 0 0 0 0 0 0 0 0 0 0 0 0 0 0 0 0 0 0 0 0 0 0 0 0 0 0 0 0 
bb_found_summary: 23411668 6258157 3.74099
entangled_found_hist: 0 656781 1015391 2912529 856292 419736 139987 0 
entangled_found_summary: 17788920 6000716 2.96447
bb_ent_found_hist: 0 3602046 3010379 2412106 2138746 1200525 923663 816198 655995 283368 357275 232801 110918 188800 1711 0 152858 0 68460 152582 0 0 0 0 0 0 0 0 0 0 0 0 0 0 0 0 0 0 0 0 0 0 0 0 0 0 0 0 0 0 0 0 0 0 0 0 0 0 0 0 0 0 0 0 
bb_ent_found_summary: 66990364 16308431 4.10772
