WARNING: physical memory size is smaller than virtual memory size.

*** ChampSim Multicore Out-of-Order Simulator ***
Warmup Instructions: 30000000
Simulation Instructions: 100000000
Number of CPUs: 1
Page size: 4096

BTB:
Basic BTB sets: 1024 ways: 8
Indirect:
history lengths: 0 0 10 16 27 44 60 96 109 219 449 487 714 1313 2146 3881 
ITTAGE tables: 64768 bytes;Region table: 240 bytes;IUM: 384 bytes;Total Storage= 65392 bytes;
RAS:
RAS size: 64
[LLC] Demand IPV: 1 2 2 1 4 Prefetch IPV: 1 2 1 1 4
Berti Prefetcher
CPU 0 Entangling prefetcher
Off-chip DRAM Size: 8 GiB Channels: 2 Width: 64-bit Data Race: 6400 MT/s
Heartbeat CPU 0 instructions: 10000001 cycles: 2375482 heartbeat IPC: 4.21 cumulative IPC: 4.21 (Simulation time: 00 hr 00 min 49 sec)
Heartbeat CPU 0 instructions: 20000007 cycles: 4717260 heartbeat IPC: 4.27 cumulative IPC: 4.24 (Simulation time: 00 hr 01 min 39 sec)
Heartbeat CPU 0 instructions: 30000000 cycles: 7090952 heartbeat IPC: 4.213 cumulative IPC: 4.231 (Simulation time: 00 hr 02 min 29 sec)
Warmup finished CPU 0 instructions: 30000000 cycles: 7090953 cumulative IPC: 4.231 (Simulation time: 00 hr 02 min 29 sec)
Warmup complete CPU 0 instructions: 30000000 cycles: 7090953 cumulative IPC: 4.231 (Simulation time: 00 hr 02 min 29 sec)
Heartbeat CPU 0 instructions: 40000009 cycles: 9667626 heartbeat IPC: 3.881 cumulative IPC: 3.881 (Simulation time: 00 hr 03 min 17 sec)
Heartbeat CPU 0 instructions: 50000006 cycles: 12263200 heartbeat IPC: 3.853 cumulative IPC: 3.867 (Simulation time: 00 hr 04 min 05 sec)
Heartbeat CPU 0 instructions: 60000001 cycles: 14911922 heartbeat IPC: 3.775 cumulative IPC: 3.836 (Simulation time: 00 hr 04 min 53 sec)
Heartbeat CPU 0 instructions: 70000001 cycles: 17545086 heartbeat IPC: 3.798 cumulative IPC: 3.826 (Simulation time: 00 hr 05 min 40 sec)
Heartbeat CPU 0 instructions: 80000004 cycles: 20194276 heartbeat IPC: 3.775 cumulative IPC: 3.816 (Simulation time: 00 hr 06 min 32 sec)
Heartbeat CPU 0 instructions: 90000000 cycles: 22820229 heartbeat IPC: 3.808 cumulative IPC: 3.815 (Simulation time: 00 hr 07 min 26 sec)
Heartbeat CPU 0 instructions: 100000000 cycles: 25413281 heartbeat IPC: 3.856 cumulative IPC: 3.82 (Simulation time: 00 hr 08 min 18 sec)
*** Reached end of trace: (0, "../traces/secret_traces/compute_int/compute_int_860.champsimtrace.xz")
Heartbeat CPU 0 instructions: 110000004 cycles: 27938051 heartbeat IPC: 3.961 cumulative IPC: 3.837 (Simulation time: 00 hr 09 min 11 sec)
Heartbeat CPU 0 instructions: 120000000 cycles: 30808537 heartbeat IPC: 3.484 cumulative IPC: 3.795 (Simulation time: 00 hr 10 min 07 sec)
Heartbeat CPU 0 instructions: 130000003 cycles: 33379981 heartbeat IPC: 3.889 cumulative IPC: 3.804 (Simulation time: 00 hr 11 min 01 sec)
Simulation finished CPU 0 instructions: 100000003 cycles: 26289029 cumulative IPC: 3.804 (Simulation time: 00 hr 11 min 01 sec)
Simulation complete CPU 0 instructions: 100000003 cycles: 26289029 cumulative IPC: 3.804 (Simulation time: 00 hr 11 min 01 sec)

ChampSim completed all CPUs

=== Simulation ===
CPU 0 runs ../traces/secret_traces/compute_int/compute_int_860.champsimtrace.xz
Region of Interest Statistics

CPU 0 cumulative IPC: 3.804 instructions: 100000003 cycles: 26289029
CPU 0 Branch Prediction Accuracy: 99.85% MPKI: 0.3867 Average ROB Occupancy at Mispredict: 81.94
Branch type MPKI
BRANCH_DIRECT_JUMP: 0.00435
BRANCH_INDIRECT: 0.23
BRANCH_CONDITIONAL: 0.133
BRANCH_DIRECT_CALL: 0.0119
BRANCH_INDIRECT_CALL: 0.00165
BRANCH_RETURN: 0.00656

LLC TOTAL        ACCESS:      95983 HIT:      41074 MISS:      54909
LLC LOAD         ACCESS:      35971 HIT:      11335 MISS:      24636
LLC RFO          ACCESS:       5850 HIT:       3810 MISS:       2040
LLC PREFETCH     ACCESS:      39553 HIT:      13709 MISS:      25844
LLC WRITE        ACCESS:      13486 HIT:      11953 MISS:       1533
LLC TRANSLATION  ACCESS:       1123 HIT:        267 MISS:        856
LLC PREFETCH REQUESTED:          0 ISSUED:          0 USEFUL:          0 USELESS:          0
LLC AVERAGE MISS LATENCY: 188.7 cycles
cpu0_DTLB TOTAL        ACCESS:   20114152 HIT:   20056751 MISS:      57401
cpu0_DTLB LOAD         ACCESS:   20114152 HIT:   20056751 MISS:      57401
cpu0_DTLB RFO          ACCESS:          0 HIT:          0 MISS:          0
cpu0_DTLB PREFETCH     ACCESS:          0 HIT:          0 MISS:          0
cpu0_DTLB WRITE        ACCESS:          0 HIT:          0 MISS:          0
cpu0_DTLB TRANSLATION  ACCESS:          0 HIT:          0 MISS:          0
cpu0_DTLB PREFETCH REQUESTED:          0 ISSUED:          0 USEFUL:          0 USELESS:          0
cpu0_DTLB AVERAGE MISS LATENCY: 8.816 cycles
cpu0_ITLB TOTAL        ACCESS:     137227 HIT:     136072 MISS:       1155
cpu0_ITLB LOAD         ACCESS:     137227 HIT:     136072 MISS:       1155
cpu0_ITLB RFO          ACCESS:          0 HIT:          0 MISS:          0
cpu0_ITLB PREFETCH     ACCESS:          0 HIT:          0 MISS:          0
cpu0_ITLB WRITE        ACCESS:          0 HIT:          0 MISS:          0
cpu0_ITLB TRANSLATION  ACCESS:          0 HIT:          0 MISS:          0
cpu0_ITLB PREFETCH REQUESTED:          0 ISSUED:          0 USEFUL:          0 USELESS:          0
cpu0_ITLB AVERAGE MISS LATENCY: 44.27 cycles
cpu0_L1D TOTAL        ACCESS:   26034774 HIT:   23525003 MISS:    2509771
cpu0_L1D LOAD         ACCESS:   13695611 HIT:   11525189 MISS:    2170422
cpu0_L1D RFO          ACCESS:          0 HIT:          0 MISS:          0
cpu0_L1D PREFETCH     ACCESS:     418230 HIT:     113631 MISS:     304599
cpu0_L1D WRITE        ACCESS:   11919141 HIT:   11886021 MISS:      33120
cpu0_L1D TRANSLATION  ACCESS:       1792 HIT:        162 MISS:       1630
cpu0_L1D PREFETCH REQUESTED:     439101 ISSUED:     418230 USEFUL:       1675 USELESS:       1075
cpu0_L1D AVERAGE MISS LATENCY: 5.652 cycles
cpu0_L1I TOTAL        ACCESS:     200192 HIT:     173722 MISS:      26470
cpu0_L1I LOAD         ACCESS:      68282 HIT:      60053 MISS:       8229
cpu0_L1I RFO          ACCESS:          0 HIT:          0 MISS:          0
cpu0_L1I PREFETCH     ACCESS:     131910 HIT:     113669 MISS:      18241
cpu0_L1I WRITE        ACCESS:          0 HIT:          0 MISS:          0
cpu0_L1I TRANSLATION  ACCESS:          0 HIT:          0 MISS:          0
cpu0_L1I PREFETCH REQUESTED:     195012 ISSUED:     131910 USEFUL:      10351 USELESS:       6498
cpu0_L1I AVERAGE MISS LATENCY: 29.31 cycles
cpu0_L2C TOTAL        ACCESS:    3458448 HIT:    3366481 MISS:      91967
cpu0_L2C LOAD         ACCESS:    1387140 HIT:    1350589 MISS:      36551
cpu0_L2C RFO          ACCESS:      12129 HIT:       6275 MISS:       5854
cpu0_L2C PREFETCH     ACCESS:    2007243 HIT:    1958804 MISS:      48439
cpu0_L2C WRITE        ACCESS:      50338 HIT:      50338 MISS:          0
cpu0_L2C TRANSLATION  ACCESS:       1598 HIT:        475 MISS:       1123
cpu0_L2C PREFETCH REQUESTED:    1704601 ISSUED:    1689783 USEFUL:       7765 USELESS:      25102
cpu0_L2C AVERAGE MISS LATENCY: 130.9 cycles
cpu0_STLB TOTAL        ACCESS:      41879 HIT:      40240 MISS:       1639
cpu0_STLB LOAD         ACCESS:      41879 HIT:      40240 MISS:       1639
cpu0_STLB RFO          ACCESS:          0 HIT:          0 MISS:          0
cpu0_STLB PREFETCH     ACCESS:          0 HIT:          0 MISS:          0
cpu0_STLB WRITE        ACCESS:          0 HIT:          0 MISS:          0
cpu0_STLB TRANSLATION  ACCESS:          0 HIT:          0 MISS:          0
cpu0_STLB PREFETCH REQUESTED:          0 ISSUED:          0 USEFUL:          0 USELESS:          0
cpu0_STLB AVERAGE MISS LATENCY: 168.1 cycles

DRAM Statistics

Channel 0 RQ ROW_BUFFER_HIT:       5003
  ROW_BUFFER_MISS:      21783
 AVG DBUS CONGESTED CYCLE: 3.755
WQ ROW_BUFFER_HIT: Channel 0 
  ROW_BUFFER_MISS:        147
  FULL:        262

Channel 1 RQ ROW_BUFFER_HIT:       5094
  ROW_BUFFER_MISS:      21495
 AVG DBUS CONGESTED CYCLE: 3.747
WQ ROW_BUFFER_HIT: Channel 1 
  ROW_BUFFER_MISS:        132
  FULL:        265
BERTI TO_L1: 25757 TO_L2: 565768 TO_L2_BC_MSHR: 10467
BERTI AVG_LAT: 12.093 NUM_TRACK_LATENCY: 1799726 NUM_CANT_TRACK_LATENCY: 0
BERTI CROSS_PAGE 209120 NO_CROSS_PAGE: 382405
BERTI FOUND_BERTI: 9690418 NO_FOUND_BERTI: 9759358
BERTI AVERAGE_ISSUED: 1.39472
CPU 0 L1I Entangling prefetcher final stats
IP accesses: 57aa 15ea80 1050 / 68483
IP misses: 59f7 167dc0 42 / 8430
IP hits: 0 0 0 / 0
IP late: 3a33 e8cc0 14 / 4168
IP wrong: eed9 3bb640 22 / 6467
miss rate: 0.123097
coverage: 0
coverage_late: 0.494425
accuracy: 0
accuracy_late: 0.391914
discarded: 0
evicts entangled j table: 0
evicts entangled k table: 1128
max bb size: 65
formats: 268 0 1066 573 209 440 0 
hist_lookups: 831 892 716 660 662 546 433 330 263 185 145 105 47 22 12 0 3 1682 
hist_lookups_evict: 0.0398195 %
hist_lookups_shortlat: 22.3255 %
bb_found_hist: 0 15997 6966 2794 1346 1108 159 68 38 69 18 21 9 23 3 0 0 0 0 2 0 2 0 0 0 0 0 0 0 0 0 0 0 0 0 0 0 0 0 0 0 0 0 0 0 0 0 0 0 0 0 0 0 0 0 0 0 0 0 0 0 0 2 0 
bb_found_summary: 52654 28625 1.83945
entangled_found_hist: 0 9387 4396 12542 1517 350 36 0 
entangled_found_summary: 63839 28228 2.26155
bb_ent_found_hist: 0 22515 12083 6831 2340 1590 475 250 61 48 19 1 22 0 0 0 0 0 0 0 0 0 0 0 0 0 0 0 0 0 0 0 0 0 0 0 0 0 0 0 0 0 0 0 0 0 0 0 0 0 0 0 0 0 0 0 0 0 0 0 0 0 2 0 
bb_ent_found_summary: 90593 46237 1.95932
