WARNING: physical memory size is smaller than virtual memory size.

*** ChampSim Multicore Out-of-Order Simulator ***
Warmup Instructions: 30000000
Simulation Instructions: 100000000
Number of CPUs: 1
Page size: 4096

BTB:
Basic BTB sets: 1024 ways: 8
Indirect:
history lengths: 0 0 10 16 27 44 60 96 109 219 449 487 714 1313 2146 3881 
ITTAGE tables: 64768 bytes;Region table: 240 bytes;IUM: 384 bytes;Total Storage= 65392 bytes;
RAS:
RAS size: 64
[LLC] Demand IPV: 1 2 2 1 4 Prefetch IPV: 1 2 1 1 4
Berti Prefetcher
CPU 0 Entangling prefetcher
Off-chip DRAM Size: 8 GiB Channels: 2 Width: 64-bit Data Race: 6400 MT/s
Heartbeat CPU 0 instructions: 10000000 cycles: 1673378 heartbeat IPC: 5.976 cumulative IPC: 5.976 (Simulation time: 00 hr 00 min 32 sec)
Heartbeat CPU 0 instructions: 20000003 cycles: 3340149 heartbeat IPC: 6 cumulative IPC: 5.988 (Simulation time: 00 hr 01 min 05 sec)
*** Reached end of trace: (0, "../traces/secret_traces/compute_int/compute_int_128.champsimtrace.xz")
Heartbeat CPU 0 instructions: 30000005 cycles: 5016078 heartbeat IPC: 5.967 cumulative IPC: 5.981 (Simulation time: 00 hr 01 min 38 sec)
Warmup finished CPU 0 instructions: 30000005 cycles: 5016079 cumulative IPC: 5.981 (Simulation time: 00 hr 01 min 38 sec)
Warmup complete CPU 0 instructions: 30000005 cycles: 5016079 cumulative IPC: 5.981 (Simulation time: 00 hr 01 min 38 sec)
Heartbeat CPU 0 instructions: 40000003 cycles: 9988500 heartbeat IPC: 2.011 cumulative IPC: 2.011 (Simulation time: 00 hr 02 min 34 sec)
*** Reached end of trace: (0, "../traces/secret_traces/compute_int/compute_int_128.champsimtrace.xz")
Heartbeat CPU 0 instructions: 50000001 cycles: 17014064 heartbeat IPC: 1.423 cumulative IPC: 1.667 (Simulation time: 00 hr 03 min 40 sec)
Heartbeat CPU 0 instructions: 60000005 cycles: 23145280 heartbeat IPC: 1.631 cumulative IPC: 1.655 (Simulation time: 00 hr 04 min 41 sec)
*** Reached end of trace: (0, "../traces/secret_traces/compute_int/compute_int_128.champsimtrace.xz")
Heartbeat CPU 0 instructions: 70000001 cycles: 29203757 heartbeat IPC: 1.651 cumulative IPC: 1.654 (Simulation time: 00 hr 05 min 44 sec)
Heartbeat CPU 0 instructions: 80000000 cycles: 36184309 heartbeat IPC: 1.433 cumulative IPC: 1.604 (Simulation time: 00 hr 06 min 55 sec)
Heartbeat CPU 0 instructions: 90000002 cycles: 41167112 heartbeat IPC: 2.007 cumulative IPC: 1.66 (Simulation time: 00 hr 07 min 53 sec)
*** Reached end of trace: (0, "../traces/secret_traces/compute_int/compute_int_128.champsimtrace.xz")
Heartbeat CPU 0 instructions: 100000003 cycles: 48448212 heartbeat IPC: 1.373 cumulative IPC: 1.612 (Simulation time: 00 hr 09 min 00 sec)
Heartbeat CPU 0 instructions: 110000000 cycles: 53287937 heartbeat IPC: 2.066 cumulative IPC: 1.657 (Simulation time: 00 hr 09 min 55 sec)
*** Reached end of trace: (0, "../traces/secret_traces/compute_int/compute_int_128.champsimtrace.xz")
Heartbeat CPU 0 instructions: 120000001 cycles: 60656622 heartbeat IPC: 1.357 cumulative IPC: 1.618 (Simulation time: 00 hr 11 min 02 sec)
Heartbeat CPU 0 instructions: 130000011 cycles: 65739704 heartbeat IPC: 1.967 cumulative IPC: 1.647 (Simulation time: 00 hr 11 min 59 sec)
Simulation finished CPU 0 instructions: 100000006 cycles: 60723626 cumulative IPC: 1.647 (Simulation time: 00 hr 11 min 59 sec)
Simulation complete CPU 0 instructions: 100000006 cycles: 60723626 cumulative IPC: 1.647 (Simulation time: 00 hr 11 min 59 sec)

ChampSim completed all CPUs

=== Simulation ===
CPU 0 runs ../traces/secret_traces/compute_int/compute_int_128.champsimtrace.xz
Region of Interest Statistics

CPU 0 cumulative IPC: 1.647 instructions: 100000006 cycles: 60723626
CPU 0 Branch Prediction Accuracy: 84.7% MPKI: 31.5 Average ROB Occupancy at Mispredict: 7.801
Branch type MPKI
BRANCH_DIRECT_JUMP: 0
BRANCH_INDIRECT: 5.15
BRANCH_CONDITIONAL: 26.4
BRANCH_DIRECT_CALL: 0
BRANCH_INDIRECT_CALL: 0.00017
BRANCH_RETURN: 0.00036

LLC TOTAL        ACCESS:     760133 HIT:     358505 MISS:     401628
LLC LOAD         ACCESS:       4263 HIT:       1560 MISS:       2703
LLC RFO          ACCESS:     243404 HIT:     143627 MISS:      99777
LLC PREFETCH     ACCESS:     203463 HIT:      27686 MISS:     175777
LLC WRITE        ACCESS:     308998 HIT:     185631 MISS:     123367
LLC TRANSLATION  ACCESS:          5 HIT:          1 MISS:          4
LLC PREFETCH REQUESTED:          0 ISSUED:          0 USEFUL:          0 USELESS:          0
LLC AVERAGE MISS LATENCY: 91.42 cycles
cpu0_DTLB TOTAL        ACCESS:   20744146 HIT:   20728857 MISS:      15289
cpu0_DTLB LOAD         ACCESS:   20744146 HIT:   20728857 MISS:      15289
cpu0_DTLB RFO          ACCESS:          0 HIT:          0 MISS:          0
cpu0_DTLB PREFETCH     ACCESS:          0 HIT:          0 MISS:          0
cpu0_DTLB WRITE        ACCESS:          0 HIT:          0 MISS:          0
cpu0_DTLB TRANSLATION  ACCESS:          0 HIT:          0 MISS:          0
cpu0_DTLB PREFETCH REQUESTED:          0 ISSUED:          0 USEFUL:          0 USELESS:          0
cpu0_DTLB AVERAGE MISS LATENCY: 3.062 cycles
cpu0_ITLB TOTAL        ACCESS:      12822 HIT:      12822 MISS:          0
cpu0_ITLB LOAD         ACCESS:      12822 HIT:      12822 MISS:          0
cpu0_ITLB RFO          ACCESS:          0 HIT:          0 MISS:          0
cpu0_ITLB PREFETCH     ACCESS:          0 HIT:          0 MISS:          0
cpu0_ITLB WRITE        ACCESS:          0 HIT:          0 MISS:          0
cpu0_ITLB TRANSLATION  ACCESS:          0 HIT:          0 MISS:          0
cpu0_ITLB PREFETCH REQUESTED:          0 ISSUED:          0 USEFUL:          0 USELESS:          0
cpu0_ITLB AVERAGE MISS LATENCY: -nan cycles
cpu0_L1D TOTAL        ACCESS:   31508784 HIT:   22427460 MISS:    9081324
cpu0_L1D LOAD         ACCESS:   12172032 HIT:   11902698 MISS:     269334
cpu0_L1D RFO          ACCESS:          0 HIT:          0 MISS:          0
cpu0_L1D PREFETCH     ACCESS:   11085252 HIT:    4877705 MISS:    6207547
cpu0_L1D WRITE        ACCESS:    8251495 HIT:    5647057 MISS:    2604438
cpu0_L1D TRANSLATION  ACCESS:          5 HIT:          0 MISS:          5
cpu0_L1D PREFETCH REQUESTED:   12683867 ISSUED:   11085275 USEFUL:      57489 USELESS:        339
cpu0_L1D AVERAGE MISS LATENCY: 1.551 cycles
cpu0_L1I TOTAL        ACCESS:      18521 HIT:      15929 MISS:       2592
cpu0_L1I LOAD         ACCESS:       7273 HIT:       6279 MISS:        994
cpu0_L1I RFO          ACCESS:          0 HIT:          0 MISS:          0
cpu0_L1I PREFETCH     ACCESS:      11248 HIT:       9650 MISS:       1598
cpu0_L1I WRITE        ACCESS:          0 HIT:          0 MISS:          0
cpu0_L1I TRANSLATION  ACCESS:          0 HIT:          0 MISS:          0
cpu0_L1I PREFETCH REQUESTED:      13267 ISSUED:      11248 USEFUL:       1192 USELESS:        118
cpu0_L1I AVERAGE MISS LATENCY: 181.9 cycles
cpu0_L2C TOTAL        ACCESS:   11809811 HIT:   10918039 MISS:     891772
cpu0_L2C LOAD         ACCESS:      88431 HIT:      80215 MISS:       8216
cpu0_L2C RFO          ACCESS:     308332 HIT:      63511 MISS:     244821
cpu0_L2C PREFETCH     ACCESS:   11102310 HIT:   10463580 MISS:     638730
cpu0_L2C WRITE        ACCESS:     310733 HIT:     310733 MISS:          0
cpu0_L2C TRANSLATION  ACCESS:          5 HIT:          0 MISS:          5
cpu0_L2C PREFETCH REQUESTED:    5881506 ISSUED:    5309267 USEFUL:     149611 USELESS:       4037
cpu0_L2C AVERAGE MISS LATENCY: 50.54 cycles
cpu0_STLB TOTAL        ACCESS:       7742 HIT:       7737 MISS:          5
cpu0_STLB LOAD         ACCESS:       7742 HIT:       7737 MISS:          5
cpu0_STLB RFO          ACCESS:          0 HIT:          0 MISS:          0
cpu0_STLB PREFETCH     ACCESS:          0 HIT:          0 MISS:          0
cpu0_STLB WRITE        ACCESS:          0 HIT:          0 MISS:          0
cpu0_STLB TRANSLATION  ACCESS:          0 HIT:          0 MISS:          0
cpu0_STLB PREFETCH REQUESTED:          0 ISSUED:          0 USEFUL:          0 USELESS:          0
cpu0_STLB AVERAGE MISS LATENCY: 290 cycles

DRAM Statistics

Channel 0 RQ ROW_BUFFER_HIT:      81273
  ROW_BUFFER_MISS:      57840
 AVG DBUS CONGESTED CYCLE: 3.83
WQ ROW_BUFFER_HIT: Channel 0 
  ROW_BUFFER_MISS:      11155
  FULL:      51791

Channel 1 RQ ROW_BUFFER_HIT:      81499
  ROW_BUFFER_MISS:      57648
 AVG DBUS CONGESTED CYCLE: 3.835
WQ ROW_BUFFER_HIT: Channel 1 
  ROW_BUFFER_MISS:      11065
  FULL:      51717
BERTI TO_L1: 2207634 TO_L2: 12165437 TO_L2_BC_MSHR: 647326
BERTI AVG_LAT: 40.8741 NUM_TRACK_LATENCY: 206172 NUM_CANT_TRACK_LATENCY: 0
BERTI CROSS_PAGE 2328675 NO_CROSS_PAGE: 12044396
BERTI FOUND_BERTI: 12034609 NO_FOUND_BERTI: 3827645
BERTI AVERAGE_ISSUED: 4.66479
CPU 0 L1I Entangling prefetcher final stats
IP accesses: 3ac5 eb140 95 / 7374
IP misses: 3ac5 eb140 88 / 1095
IP hits: 0 0 0 / 0
IP late: 9d 2740 8 / 594
IP wrong: 16c 5b00 4 / 117
miss rate: 0.148495
coverage: 0
coverage_late: 0.542466
accuracy: 0
accuracy_late: 0.835444
discarded: 0
evicts entangled j table: 0
evicts entangled k table: 33
max bb size: 6
formats: 10 0 42 17 5 21 0 
hist_lookups: 6 13 15 15 12 17 14 8 13 16 14 12 8 11 4 0 0 879 
hist_lookups_evict: 0 %
hist_lookups_shortlat: 83.1599 %
bb_found_hist: 0 1502 702 322 133 38 32 0 0 0 0 0 0 0 0 0 0 0 0 0 0 0 0 0 0 0 0 0 0 0 0 0 0 0 0 0 0 0 0 0 0 0 0 0 0 0 0 0 0 0 0 0 0 0 0 0 0 0 0 0 0 0 0 0 
bb_found_summary: 4786 2729 1.75376
entangled_found_hist: 0 783 454 664 116 25 3 0 
entangled_found_summary: 4290 2045 2.0978
bb_ent_found_hist: 0 1440 657 380 294 54 8 0 0 0 0 0 0 0 0 0 0 0 0 0 0 0 0 0 0 0 0 0 0 0 0 0 0 0 0 0 0 0 0 0 0 0 0 0 0 0 0 0 0 0 0 0 0 0 0 0 0 0 0 0 0 0 0 0 
bb_ent_found_summary: 5388 2833 1.90188
