WARNING: physical memory size is smaller than virtual memory size.

*** ChampSim Multicore Out-of-Order Simulator ***
Warmup Instructions: 30000000
Simulation Instructions: 100000000
Number of CPUs: 1
Page size: 4096

BTB:
Basic BTB sets: 1024 ways: 8
Indirect:
history lengths: 0 0 10 16 27 44 60 96 109 219 449 487 714 1313 2146 3881 
ITTAGE tables: 64768 bytes;Region table: 240 bytes;IUM: 384 bytes;Total Storage= 65392 bytes;
RAS:
RAS size: 64
[LLC] Demand IPV: 1 2 2 1 4 Prefetch IPV: 1 2 1 1 4
Berti Prefetcher
CPU 0 Entangling prefetcher
Off-chip DRAM Size: 8 GiB Channels: 2 Width: 64-bit Data Race: 6400 MT/s
Heartbeat CPU 0 instructions: 10000002 cycles: 1719528 heartbeat IPC: 5.816 cumulative IPC: 5.816 (Simulation time: 00 hr 00 min 37 sec)
Heartbeat CPU 0 instructions: 20000000 cycles: 3460063 heartbeat IPC: 5.745 cumulative IPC: 5.78 (Simulation time: 00 hr 01 min 15 sec)
Heartbeat CPU 0 instructions: 30000005 cycles: 5210122 heartbeat IPC: 5.714 cumulative IPC: 5.758 (Simulation time: 00 hr 01 min 58 sec)
Warmup finished CPU 0 instructions: 30000005 cycles: 5210123 cumulative IPC: 5.758 (Simulation time: 00 hr 01 min 58 sec)
Warmup complete CPU 0 instructions: 30000005 cycles: 5210123 cumulative IPC: 5.758 (Simulation time: 00 hr 01 min 58 sec)
Heartbeat CPU 0 instructions: 40000001 cycles: 8645588 heartbeat IPC: 2.911 cumulative IPC: 2.911 (Simulation time: 00 hr 02 min 52 sec)
Heartbeat CPU 0 instructions: 50000005 cycles: 12413780 heartbeat IPC: 2.654 cumulative IPC: 2.776 (Simulation time: 00 hr 03 min 46 sec)
Heartbeat CPU 0 instructions: 60000001 cycles: 15909099 heartbeat IPC: 2.861 cumulative IPC: 2.804 (Simulation time: 00 hr 04 min 39 sec)
Heartbeat CPU 0 instructions: 70000001 cycles: 19146025 heartbeat IPC: 3.089 cumulative IPC: 2.87 (Simulation time: 00 hr 05 min 30 sec)
Heartbeat CPU 0 instructions: 80000001 cycles: 22721684 heartbeat IPC: 2.797 cumulative IPC: 2.855 (Simulation time: 00 hr 06 min 23 sec)
Heartbeat CPU 0 instructions: 90000001 cycles: 26192808 heartbeat IPC: 2.881 cumulative IPC: 2.86 (Simulation time: 00 hr 07 min 16 sec)
Heartbeat CPU 0 instructions: 100000009 cycles: 29611359 heartbeat IPC: 2.925 cumulative IPC: 2.869 (Simulation time: 00 hr 08 min 08 sec)
*** Reached end of trace: (0, "../traces/secret_traces/compute_int/compute_int_835.champsimtrace.xz")
Heartbeat CPU 0 instructions: 110000005 cycles: 32943084 heartbeat IPC: 3.001 cumulative IPC: 2.885 (Simulation time: 00 hr 08 min 59 sec)
Heartbeat CPU 0 instructions: 120000000 cycles: 36511301 heartbeat IPC: 2.803 cumulative IPC: 2.875 (Simulation time: 00 hr 09 min 54 sec)
Heartbeat CPU 0 instructions: 130000001 cycles: 39766617 heartbeat IPC: 3.072 cumulative IPC: 2.894 (Simulation time: 00 hr 10 min 44 sec)
Simulation finished CPU 0 instructions: 100000001 cycles: 34556496 cumulative IPC: 2.894 (Simulation time: 00 hr 10 min 44 sec)
Simulation complete CPU 0 instructions: 100000001 cycles: 34556496 cumulative IPC: 2.894 (Simulation time: 00 hr 10 min 44 sec)

ChampSim completed all CPUs

=== Simulation ===
CPU 0 runs ../traces/secret_traces/compute_int/compute_int_835.champsimtrace.xz
Region of Interest Statistics

CPU 0 cumulative IPC: 2.894 instructions: 100000001 cycles: 34556496
CPU 0 Branch Prediction Accuracy: 96.52% MPKI: 6.393 Average ROB Occupancy at Mispredict: 39.29
Branch type MPKI
BRANCH_DIRECT_JUMP: 0.0142
BRANCH_INDIRECT: 3.07
BRANCH_CONDITIONAL: 3.24
BRANCH_DIRECT_CALL: 0.0301
BRANCH_INDIRECT_CALL: 0.021
BRANCH_RETURN: 0.0157

LLC TOTAL        ACCESS:     199295 HIT:     156282 MISS:      43013
LLC LOAD         ACCESS:      28291 HIT:      15051 MISS:      13240
LLC RFO          ACCESS:      51588 HIT:      49175 MISS:       2413
LLC PREFETCH     ACCESS:      49725 HIT:      27011 MISS:      22714
LLC WRITE        ACCESS:      66781 HIT:      63449 MISS:       3332
LLC TRANSLATION  ACCESS:       2910 HIT:       1596 MISS:       1314
LLC PREFETCH REQUESTED:          0 ISSUED:          0 USEFUL:          0 USELESS:          0
LLC AVERAGE MISS LATENCY: 144.7 cycles
cpu0_DTLB TOTAL        ACCESS:   17802827 HIT:   17704066 MISS:      98761
cpu0_DTLB LOAD         ACCESS:   17802827 HIT:   17704066 MISS:      98761
cpu0_DTLB RFO          ACCESS:          0 HIT:          0 MISS:          0
cpu0_DTLB PREFETCH     ACCESS:          0 HIT:          0 MISS:          0
cpu0_DTLB WRITE        ACCESS:          0 HIT:          0 MISS:          0
cpu0_DTLB TRANSLATION  ACCESS:          0 HIT:          0 MISS:          0
cpu0_DTLB PREFETCH REQUESTED:          0 ISSUED:          0 USEFUL:          0 USELESS:          0
cpu0_DTLB AVERAGE MISS LATENCY: 8.646 cycles
cpu0_ITLB TOTAL        ACCESS:   10347407 HIT:   10344972 MISS:       2435
cpu0_ITLB LOAD         ACCESS:   10347407 HIT:   10344972 MISS:       2435
cpu0_ITLB RFO          ACCESS:          0 HIT:          0 MISS:          0
cpu0_ITLB PREFETCH     ACCESS:          0 HIT:          0 MISS:          0
cpu0_ITLB WRITE        ACCESS:          0 HIT:          0 MISS:          0
cpu0_ITLB TRANSLATION  ACCESS:          0 HIT:          0 MISS:          0
cpu0_ITLB PREFETCH REQUESTED:          0 ISSUED:          0 USEFUL:          0 USELESS:          0
cpu0_ITLB AVERAGE MISS LATENCY: 45.47 cycles
cpu0_L1D TOTAL        ACCESS:   27041783 HIT:   25287099 MISS:    1754684
cpu0_L1D LOAD         ACCESS:   17570731 HIT:   16962918 MISS:     607813
cpu0_L1D RFO          ACCESS:          0 HIT:          0 MISS:          0
cpu0_L1D PREFETCH     ACCESS:    2572536 HIT:    2244315 MISS:     328221
cpu0_L1D WRITE        ACCESS:    6892014 HIT:    6079261 MISS:     812753
cpu0_L1D TRANSLATION  ACCESS:       6502 HIT:        605 MISS:       5897
cpu0_L1D PREFETCH REQUESTED:    3884517 ISSUED:    2572536 USEFUL:      48406 USELESS:       4619
cpu0_L1D AVERAGE MISS LATENCY: 5.689 cycles
cpu0_L1I TOTAL        ACCESS:   16164226 HIT:   14306299 MISS:    1857927
cpu0_L1I LOAD         ACCESS:    4630141 HIT:    4048846 MISS:     581295
cpu0_L1I RFO          ACCESS:          0 HIT:          0 MISS:          0
cpu0_L1I PREFETCH     ACCESS:   11534085 HIT:   10257453 MISS:    1276632
cpu0_L1I WRITE        ACCESS:          0 HIT:          0 MISS:          0
cpu0_L1I TRANSLATION  ACCESS:          0 HIT:          0 MISS:          0
cpu0_L1I PREFETCH REQUESTED:   52247812 ISSUED:   11534085 USEFUL:     582741 USELESS:     635822
cpu0_L1I AVERAGE MISS LATENCY: 9.957 cycles
cpu0_L2C TOTAL        ACCESS:    4920263 HIT:    4770016 MISS:     150247
cpu0_L2C LOAD         ACCESS:     771557 HIT:     742244 MISS:      29313
cpu0_L2C RFO          ACCESS:     212908 HIT:     161308 MISS:      51600
cpu0_L2C PREFETCH     ACCESS:    3675256 HIT:    3608834 MISS:      66422
cpu0_L2C WRITE        ACCESS:     254649 HIT:     254647 MISS:          2
cpu0_L2C TRANSLATION  ACCESS:       5893 HIT:       2983 MISS:       2910
cpu0_L2C PREFETCH REQUESTED:    2266066 ISSUED:    2180747 USEFUL:      12105 USELESS:      21830
cpu0_L2C AVERAGE MISS LATENCY: 59.15 cycles
cpu0_STLB TOTAL        ACCESS:      55243 HIT:      48864 MISS:       6379
cpu0_STLB LOAD         ACCESS:      55243 HIT:      48864 MISS:       6379
cpu0_STLB RFO          ACCESS:          0 HIT:          0 MISS:          0
cpu0_STLB PREFETCH     ACCESS:          0 HIT:          0 MISS:          0
cpu0_STLB WRITE        ACCESS:          0 HIT:          0 MISS:          0
cpu0_STLB TRANSLATION  ACCESS:          0 HIT:          0 MISS:          0
cpu0_STLB PREFETCH REQUESTED:          0 ISSUED:          0 USEFUL:          0 USELESS:          0
cpu0_STLB AVERAGE MISS LATENCY: 98.43 cycles

DRAM Statistics

Channel 0 RQ ROW_BUFFER_HIT:       3666
  ROW_BUFFER_MISS:      16454
 AVG DBUS CONGESTED CYCLE: 3.677
WQ ROW_BUFFER_HIT: Channel 0 
  ROW_BUFFER_MISS:        433
  FULL:       1924

Channel 1 RQ ROW_BUFFER_HIT:       3623
  ROW_BUFFER_MISS:      15936
 AVG DBUS CONGESTED CYCLE: 3.677
WQ ROW_BUFFER_HIT: Channel 1 
  ROW_BUFFER_MISS:        412
  FULL:       1688
BERTI TO_L1: 2569596 TO_L2: 3556546 TO_L2_BC_MSHR: 68512
BERTI AVG_LAT: 19.2893 NUM_TRACK_LATENCY: 543556 NUM_CANT_TRACK_LATENCY: 0
BERTI CROSS_PAGE 1247751 NO_CROSS_PAGE: 4878391
BERTI FOUND_BERTI: 7345912 NO_FOUND_BERTI: 15772663
BERTI AVERAGE_ISSUED: 2.57561
CPU 0 L1I Entangling prefetcher final stats
IP accesses: 54c 15300 69989 / 4631768
IP misses: 54c 15300 8568 / 582922
IP hits: 0 0 0 / 0
IP late: 550 15400 3745 / 241051
IP wrong: 2457 915c0 4911 / 626870
miss rate: 0.125854
coverage: 0
coverage_late: 0.413522
accuracy: 0
accuracy_late: 0.277734
discarded: 0
evicts entangled j table: 0
evicts entangled k table: 73236
max bb size: 65
formats: 273 0 43499 21967 10730 21696 0 
hist_lookups: 45410 58598 57563 52328 45612 35484 21124 11089 6376 4473 3233 2170 1220 667 222 0 0 6620 
hist_lookups_evict: 0 %
hist_lookups_shortlat: 1.87968 %
bb_found_hist: 0 892403 671606 515374 319967 254189 157049 138052 111755 74088 43816 30836 10666 6243 7559 10221 13682 0 1397 5 30 22091 0 9183 1 0 0 0 0 0 0 0 0 0 0 0 0 0 0 0 0 0 0 0 0 0 0 0 0 0 0 0 0 0 0 0 0 0 0 0 0 0 2 0 
bb_found_summary: 11967709 3290215 3.63737
entangled_found_hist: 0 362718 530664 1459885 421578 207060 87348 0 
entangled_found_summary: 9049401 3069253 2.94841
bb_ent_found_hist: 0 1862697 1766770 1331544 797284 666928 354417 281370 220077 233608 92625 231342 13129 0 494 78616 74087 0 0 0 0 19 0 130834 0 0 0 0 0 0 0 0 0 0 0 0 0 0 0 0 0 0 0 0 0 0 0 0 0 0 0 0 0 0 0 0 0 0 0 0 0 0 5 0 
bb_ent_found_summary: 32883824 8135846 4.04185
