WARNING: physical memory size is smaller than virtual memory size.

*** ChampSim Multicore Out-of-Order Simulator ***
Warmup Instructions: 30000000
Simulation Instructions: 100000000
Number of CPUs: 1
Page size: 4096

BTB:
Basic BTB sets: 1024 ways: 8
Indirect:
history lengths: 0 0 10 16 27 44 60 96 109 219 449 487 714 1313 2146 3881 
ITTAGE tables: 64768 bytes;Region table: 240 bytes;IUM: 384 bytes;Total Storage= 65392 bytes;
RAS:
RAS size: 64
[LLC] Demand IPV: 1 2 2 1 4 Prefetch IPV: 1 2 1 1 4
Berti Prefetcher
CPU 0 Entangling prefetcher
Off-chip DRAM Size: 8 GiB Channels: 2 Width: 64-bit Data Race: 6400 MT/s
Heartbeat CPU 0 instructions: 10000003 cycles: 1733495 heartbeat IPC: 5.769 cumulative IPC: 5.769 (Simulation time: 00 hr 00 min 34 sec)
Heartbeat CPU 0 instructions: 20000002 cycles: 3424917 heartbeat IPC: 5.912 cumulative IPC: 5.84 (Simulation time: 00 hr 01 min 07 sec)
Heartbeat CPU 0 instructions: 30000005 cycles: 5096671 heartbeat IPC: 5.982 cumulative IPC: 5.886 (Simulation time: 00 hr 01 min 41 sec)
Warmup finished CPU 0 instructions: 30000005 cycles: 5096672 cumulative IPC: 5.886 (Simulation time: 00 hr 01 min 41 sec)
Warmup complete CPU 0 instructions: 30000005 cycles: 5096672 cumulative IPC: 5.886 (Simulation time: 00 hr 01 min 41 sec)
Heartbeat CPU 0 instructions: 40000010 cycles: 8319980 heartbeat IPC: 3.102 cumulative IPC: 3.102 (Simulation time: 00 hr 02 min 29 sec)
Heartbeat CPU 0 instructions: 50000004 cycles: 11286980 heartbeat IPC: 3.37 cumulative IPC: 3.231 (Simulation time: 00 hr 03 min 17 sec)
Heartbeat CPU 0 instructions: 60000006 cycles: 15262956 heartbeat IPC: 2.515 cumulative IPC: 2.951 (Simulation time: 00 hr 04 min 10 sec)
Heartbeat CPU 0 instructions: 70000000 cycles: 19298227 heartbeat IPC: 2.478 cumulative IPC: 2.817 (Simulation time: 00 hr 05 min 05 sec)
*** Reached end of trace: (0, "../traces/secret_traces/compute_int/compute_int_709.champsimtrace.xz")
Heartbeat CPU 0 instructions: 80000000 cycles: 23568310 heartbeat IPC: 2.342 cumulative IPC: 2.707 (Simulation time: 00 hr 06 min 03 sec)
Heartbeat CPU 0 instructions: 90000000 cycles: 28555308 heartbeat IPC: 2.005 cumulative IPC: 2.558 (Simulation time: 00 hr 07 min 02 sec)
Heartbeat CPU 0 instructions: 100000006 cycles: 31730345 heartbeat IPC: 3.15 cumulative IPC: 2.628 (Simulation time: 00 hr 08 min 05 sec)
Heartbeat CPU 0 instructions: 110000002 cycles: 34058932 heartbeat IPC: 4.294 cumulative IPC: 2.762 (Simulation time: 00 hr 08 min 55 sec)
Heartbeat CPU 0 instructions: 120000011 cycles: 37466676 heartbeat IPC: 2.934 cumulative IPC: 2.78 (Simulation time: 00 hr 09 min 43 sec)
Heartbeat CPU 0 instructions: 130000007 cycles: 40467785 heartbeat IPC: 3.332 cumulative IPC: 2.827 (Simulation time: 00 hr 10 min 31 sec)
Simulation finished CPU 0 instructions: 100000002 cycles: 35371114 cumulative IPC: 2.827 (Simulation time: 00 hr 10 min 31 sec)
Simulation complete CPU 0 instructions: 100000002 cycles: 35371114 cumulative IPC: 2.827 (Simulation time: 00 hr 10 min 31 sec)

ChampSim completed all CPUs

=== Simulation ===
CPU 0 runs ../traces/secret_traces/compute_int/compute_int_709.champsimtrace.xz
Region of Interest Statistics

CPU 0 cumulative IPC: 2.827 instructions: 100000002 cycles: 35371114
CPU 0 Branch Prediction Accuracy: 95.06% MPKI: 7.682 Average ROB Occupancy at Mispredict: 23.7
Branch type MPKI
BRANCH_DIRECT_JUMP: 0.00594
BRANCH_INDIRECT: 0.0473
BRANCH_CONDITIONAL: 7.6
BRANCH_DIRECT_CALL: 0.0159
BRANCH_INDIRECT_CALL: 0.00163
BRANCH_RETURN: 0.00912

LLC TOTAL        ACCESS:     315209 HIT:     107165 MISS:     208044
LLC LOAD         ACCESS:      90656 HIT:       8843 MISS:      81813
LLC RFO          ACCESS:      74777 HIT:      35336 MISS:      39441
LLC PREFETCH     ACCESS:      67340 HIT:      16234 MISS:      51106
LLC WRITE        ACCESS:      81539 HIT:      46665 MISS:      34874
LLC TRANSLATION  ACCESS:        897 HIT:         87 MISS:        810
LLC PREFETCH REQUESTED:          0 ISSUED:          0 USEFUL:          0 USELESS:          0
LLC AVERAGE MISS LATENCY: 136.1 cycles
cpu0_DTLB TOTAL        ACCESS:   17946669 HIT:   17887422 MISS:      59247
cpu0_DTLB LOAD         ACCESS:   17946669 HIT:   17887422 MISS:      59247
cpu0_DTLB RFO          ACCESS:          0 HIT:          0 MISS:          0
cpu0_DTLB PREFETCH     ACCESS:          0 HIT:          0 MISS:          0
cpu0_DTLB WRITE        ACCESS:          0 HIT:          0 MISS:          0
cpu0_DTLB TRANSLATION  ACCESS:          0 HIT:          0 MISS:          0
cpu0_DTLB PREFETCH REQUESTED:          0 ISSUED:          0 USEFUL:          0 USELESS:          0
cpu0_DTLB AVERAGE MISS LATENCY: 7.156 cycles
cpu0_ITLB TOTAL        ACCESS:      99845 HIT:      98505 MISS:       1340
cpu0_ITLB LOAD         ACCESS:      99845 HIT:      98505 MISS:       1340
cpu0_ITLB RFO          ACCESS:          0 HIT:          0 MISS:          0
cpu0_ITLB PREFETCH     ACCESS:          0 HIT:          0 MISS:          0
cpu0_ITLB WRITE        ACCESS:          0 HIT:          0 MISS:          0
cpu0_ITLB TRANSLATION  ACCESS:          0 HIT:          0 MISS:          0
cpu0_ITLB PREFETCH REQUESTED:          0 ISSUED:          0 USEFUL:          0 USELESS:          0
cpu0_ITLB AVERAGE MISS LATENCY: 55.81 cycles
cpu0_L1D TOTAL        ACCESS:   29407441 HIT:   23152832 MISS:    6254609
cpu0_L1D LOAD         ACCESS:   13093801 HIT:   11394448 MISS:    1699353
cpu0_L1D RFO          ACCESS:          0 HIT:          0 MISS:          0
cpu0_L1D PREFETCH     ACCESS:    9174093 HIT:    5868735 MISS:    3305358
cpu0_L1D WRITE        ACCESS:    7135812 HIT:    5887594 MISS:    1248218
cpu0_L1D TRANSLATION  ACCESS:       3735 HIT:       2055 MISS:       1680
cpu0_L1D PREFETCH REQUESTED:   16414479 ISSUED:    9174093 USEFUL:      36799 USELESS:      19130
cpu0_L1D AVERAGE MISS LATENCY: 6.877 cycles
cpu0_L1I TOTAL        ACCESS:     145249 HIT:     115798 MISS:      29451
cpu0_L1I LOAD         ACCESS:      50968 HIT:      41999 MISS:       8969
cpu0_L1I RFO          ACCESS:          0 HIT:          0 MISS:          0
cpu0_L1I PREFETCH     ACCESS:      94281 HIT:      73799 MISS:      20482
cpu0_L1I WRITE        ACCESS:          0 HIT:          0 MISS:          0
cpu0_L1I TRANSLATION  ACCESS:          0 HIT:          0 MISS:          0
cpu0_L1I PREFETCH REQUESTED:     141886 ISSUED:      94281 USEFUL:      11091 USELESS:       7613
cpu0_L1I AVERAGE MISS LATENCY: 57.48 cycles
cpu0_L2C TOTAL        ACCESS:   10700413 HIT:   10291602 MISS:     408811
cpu0_L2C LOAD         ACCESS:    1246139 HIT:    1134221 MISS:     111918
cpu0_L2C RFO          ACCESS:     704909 HIT:     630123 MISS:      74786
cpu0_L2C PREFETCH     ACCESS:    7124717 HIT:    6903508 MISS:     221209
cpu0_L2C WRITE        ACCESS:    1622991 HIT:    1622990 MISS:          1
cpu0_L2C TRANSLATION  ACCESS:       1657 HIT:        760 MISS:        897
cpu0_L2C PREFETCH REQUESTED:    4358933 ISSUED:    4012385 USEFUL:      44355 USELESS:       7321
cpu0_L2C AVERAGE MISS LATENCY: 78.1 cycles
cpu0_STLB TOTAL        ACCESS:      25276 HIT:      21687 MISS:       3589
cpu0_STLB LOAD         ACCESS:      25276 HIT:      21687 MISS:       3589
cpu0_STLB RFO          ACCESS:          0 HIT:          0 MISS:          0
cpu0_STLB PREFETCH     ACCESS:          0 HIT:          0 MISS:          0
cpu0_STLB WRITE        ACCESS:          0 HIT:          0 MISS:          0
cpu0_STLB TRANSLATION  ACCESS:          0 HIT:          0 MISS:          0
cpu0_STLB PREFETCH REQUESTED:          0 ISSUED:          0 USEFUL:          0 USELESS:          0
cpu0_STLB AVERAGE MISS LATENCY: 135.2 cycles

DRAM Statistics

Channel 0 RQ ROW_BUFFER_HIT:      56012
  ROW_BUFFER_MISS:      30816
 AVG DBUS CONGESTED CYCLE: 3.905
WQ ROW_BUFFER_HIT: Channel 0 
  ROW_BUFFER_MISS:       3113
  FULL:      15697

Channel 1 RQ ROW_BUFFER_HIT:      55693
  ROW_BUFFER_MISS:      30647
 AVG DBUS CONGESTED CYCLE: 3.907
WQ ROW_BUFFER_HIT: Channel 1 
  ROW_BUFFER_MISS:       3132
  FULL:      15654
BERTI TO_L1: 7216754 TO_L2: 10174338 TO_L2_BC_MSHR: 1367521
BERTI AVG_LAT: 25.3354 NUM_TRACK_LATENCY: 1618964 NUM_CANT_TRACK_LATENCY: 1
BERTI CROSS_PAGE 2561389 NO_CROSS_PAGE: 14829703
BERTI FOUND_BERTI: 11432353 NO_FOUND_BERTI: 7116020
BERTI AVERAGE_ISSUED: 5.75626
CPU 0 L1I Entangling prefetcher final stats
IP accesses: 1eb 7ac0 403 / 53390
IP misses: 47cf 11f3c0 160 / 11391
IP hits: 0 0 0 / 0
IP late: 2124 84900 13 / 4547
IP wrong: ef71 3bdc40 28 / 7573
miss rate: 0.213355
coverage: 0
coverage_late: 0.399175
accuracy: 0
accuracy_late: 0.375166
discarded: 0
evicts entangled j table: 0
evicts entangled k table: 1218
max bb size: 67
formats: 384 0 1133 612 241 521 0 
hist_lookups: 931 971 816 731 652 531 402 335 255 193 141 100 65 43 20 0 6 3000 
hist_lookups_evict: 0.0652742 %
hist_lookups_shortlat: 32.6371 %
bb_found_hist: 0 11680 6085 2499 903 400 270 104 101 7 0 5 98 10 3 0 0 0 0 0 0 0 6 0 0 0 0 0 0 0 0 0 0 0 0 0 0 0 0 0 0 0 0 0 0 0 0 0 0 0 0 0 0 0 0 0 0 0 0 0 0 0 0 0 
bb_found_summary: 41713 22171 1.88143
entangled_found_hist: 0 7108 4462 8023 1321 216 29 0 
entangled_found_summary: 46639 21159 2.20422
bb_ent_found_hist: 0 16151 8370 4133 1939 1009 501 322 269 0 0 29 44 37 0 0 0 0 0 0 0 0 0 0 0 0 0 0 0 0 0 0 0 0 0 0 0 0 0 0 0 0 0 0 0 0 0 0 0 0 0 0 0 0 0 0 0 0 0 0 0 0 0 0 
bb_ent_found_summary: 66831 32804 2.03729
