WARNING: physical memory size is smaller than virtual memory size.

*** ChampSim Multicore Out-of-Order Simulator ***
Warmup Instructions: 30000000
Simulation Instructions: 100000000
Number of CPUs: 1
Page size: 4096

BTB:
Basic BTB sets: 1024 ways: 8
Indirect:
history lengths: 0 0 10 16 27 44 60 96 109 219 449 487 714 1313 2146 3881 
ITTAGE tables: 64768 bytes;Region table: 240 bytes;IUM: 384 bytes;Total Storage= 65392 bytes;
RAS:
RAS size: 64
[LLC] Demand IPV: 1 2 2 1 4 Prefetch IPV: 1 2 1 1 4
Berti Prefetcher
CPU 0 Entangling prefetcher
Off-chip DRAM Size: 8 GiB Channels: 2 Width: 64-bit Data Race: 6400 MT/s
Heartbeat CPU 0 instructions: 10000000 cycles: 1666728 heartbeat IPC: 6 cumulative IPC: 6 (Simulation time: 00 hr 00 min 36 sec)
Heartbeat CPU 0 instructions: 20000000 cycles: 3333395 heartbeat IPC: 6 cumulative IPC: 6 (Simulation time: 00 hr 01 min 13 sec)
Heartbeat CPU 0 instructions: 30000005 cycles: 5000156 heartbeat IPC: 6 cumulative IPC: 6 (Simulation time: 00 hr 01 min 50 sec)
Warmup finished CPU 0 instructions: 30000005 cycles: 5000157 cumulative IPC: 6 (Simulation time: 00 hr 01 min 50 sec)
Warmup complete CPU 0 instructions: 30000005 cycles: 5000157 cumulative IPC: 6 (Simulation time: 00 hr 01 min 50 sec)
Heartbeat CPU 0 instructions: 40000004 cycles: 8466490 heartbeat IPC: 2.885 cumulative IPC: 2.885 (Simulation time: 00 hr 02 min 43 sec)
Heartbeat CPU 0 instructions: 50000001 cycles: 12021716 heartbeat IPC: 2.813 cumulative IPC: 2.848 (Simulation time: 00 hr 03 min 38 sec)
Heartbeat CPU 0 instructions: 60000006 cycles: 15654224 heartbeat IPC: 2.753 cumulative IPC: 2.816 (Simulation time: 00 hr 04 min 36 sec)
Heartbeat CPU 0 instructions: 70000003 cycles: 19099672 heartbeat IPC: 2.902 cumulative IPC: 2.837 (Simulation time: 00 hr 05 min 29 sec)
Heartbeat CPU 0 instructions: 80000001 cycles: 22725355 heartbeat IPC: 2.758 cumulative IPC: 2.821 (Simulation time: 00 hr 06 min 26 sec)
Heartbeat CPU 0 instructions: 90000010 cycles: 26296742 heartbeat IPC: 2.8 cumulative IPC: 2.817 (Simulation time: 00 hr 07 min 23 sec)
Heartbeat CPU 0 instructions: 100000006 cycles: 29820832 heartbeat IPC: 2.838 cumulative IPC: 2.82 (Simulation time: 00 hr 08 min 19 sec)
*** Reached end of trace: (0, "../traces/secret_traces/compute_int/compute_int_808.champsimtrace.xz")
Heartbeat CPU 0 instructions: 110000010 cycles: 32764664 heartbeat IPC: 3.397 cumulative IPC: 2.881 (Simulation time: 00 hr 09 min 16 sec)
Heartbeat CPU 0 instructions: 120000001 cycles: 35658638 heartbeat IPC: 3.455 cumulative IPC: 2.936 (Simulation time: 00 hr 10 min 08 sec)
Heartbeat CPU 0 instructions: 130000003 cycles: 38675223 heartbeat IPC: 3.315 cumulative IPC: 2.97 (Simulation time: 00 hr 10 min 58 sec)
Simulation finished CPU 0 instructions: 100000000 cycles: 33675068 cumulative IPC: 2.97 (Simulation time: 00 hr 10 min 58 sec)
Simulation complete CPU 0 instructions: 100000000 cycles: 33675068 cumulative IPC: 2.97 (Simulation time: 00 hr 10 min 58 sec)

ChampSim completed all CPUs

=== Simulation ===
CPU 0 runs ../traces/secret_traces/compute_int/compute_int_808.champsimtrace.xz
Region of Interest Statistics

CPU 0 cumulative IPC: 2.97 instructions: 100000000 cycles: 33675068
CPU 0 Branch Prediction Accuracy: 96.94% MPKI: 3.781 Average ROB Occupancy at Mispredict: 48.46
Branch type MPKI
BRANCH_DIRECT_JUMP: 0.00025
BRANCH_INDIRECT: 0.743
BRANCH_CONDITIONAL: 3.04
BRANCH_DIRECT_CALL: 0.00023
BRANCH_INDIRECT_CALL: 6e-05
BRANCH_RETURN: 0.00028

LLC TOTAL        ACCESS:     121894 HIT:      41089 MISS:      80805
LLC LOAD         ACCESS:      34978 HIT:      10528 MISS:      24450
LLC RFO          ACCESS:        794 HIT:        648 MISS:        146
LLC PREFETCH     ACCESS:      29979 HIT:       5963 MISS:      24016
LLC WRITE        ACCESS:      28349 HIT:      21601 MISS:       6748
LLC TRANSLATION  ACCESS:      27794 HIT:       2349 MISS:      25445
LLC PREFETCH REQUESTED:          0 ISSUED:          0 USEFUL:          0 USELESS:          0
LLC AVERAGE MISS LATENCY: 106.4 cycles
cpu0_DTLB TOTAL        ACCESS:   14795074 HIT:   14702391 MISS:      92683
cpu0_DTLB LOAD         ACCESS:   14795074 HIT:   14702391 MISS:      92683
cpu0_DTLB RFO          ACCESS:          0 HIT:          0 MISS:          0
cpu0_DTLB PREFETCH     ACCESS:          0 HIT:          0 MISS:          0
cpu0_DTLB WRITE        ACCESS:          0 HIT:          0 MISS:          0
cpu0_DTLB TRANSLATION  ACCESS:          0 HIT:          0 MISS:          0
cpu0_DTLB PREFETCH REQUESTED:          0 ISSUED:          0 USEFUL:          0 USELESS:          0
cpu0_DTLB AVERAGE MISS LATENCY: 84.41 cycles
cpu0_ITLB TOTAL        ACCESS:   14672544 HIT:   14672530 MISS:         14
cpu0_ITLB LOAD         ACCESS:   14672544 HIT:   14672530 MISS:         14
cpu0_ITLB RFO          ACCESS:          0 HIT:          0 MISS:          0
cpu0_ITLB PREFETCH     ACCESS:          0 HIT:          0 MISS:          0
cpu0_ITLB WRITE        ACCESS:          0 HIT:          0 MISS:          0
cpu0_ITLB TRANSLATION  ACCESS:          0 HIT:          0 MISS:          0
cpu0_ITLB PREFETCH REQUESTED:          0 ISSUED:          0 USEFUL:          0 USELESS:          0
cpu0_ITLB AVERAGE MISS LATENCY: 291.3 cycles
cpu0_L1D TOTAL        ACCESS:   22351925 HIT:   22046043 MISS:     305882
cpu0_L1D LOAD         ACCESS:   14822350 HIT:   14628419 MISS:     193931
cpu0_L1D RFO          ACCESS:          0 HIT:          0 MISS:          0
cpu0_L1D PREFETCH     ACCESS:        433 HIT:         37 MISS:        396
cpu0_L1D WRITE        ACCESS:    7489490 HIT:    7415802 MISS:      73688
cpu0_L1D TRANSLATION  ACCESS:      39652 HIT:       1785 MISS:      37867
cpu0_L1D PREFETCH REQUESTED:        433 ISSUED:        433 USEFUL:         23 USELESS:         75
cpu0_L1D AVERAGE MISS LATENCY: 27.89 cycles
cpu0_L1I TOTAL        ACCESS:   22642760 HIT:   21254753 MISS:    1388007
cpu0_L1I LOAD         ACCESS:    8199060 HIT:    7556300 MISS:     642760
cpu0_L1I RFO          ACCESS:          0 HIT:          0 MISS:          0
cpu0_L1I PREFETCH     ACCESS:   14443700 HIT:   13698453 MISS:     745247
cpu0_L1I WRITE        ACCESS:          0 HIT:          0 MISS:          0
cpu0_L1I TRANSLATION  ACCESS:          0 HIT:          0 MISS:          0
cpu0_L1I PREFETCH REQUESTED:  114180940 ISSUED:   14443714 USEFUL:     387011 USELESS:     318558
cpu0_L1I AVERAGE MISS LATENCY: 8.125 cycles
cpu0_L2C TOTAL        ACCESS:    2578710 HIT:    2476871 MISS:     101839
cpu0_L2C LOAD         ACCESS:     517778 HIT:     482237 MISS:      35541
cpu0_L2C RFO          ACCESS:      29786 HIT:      28987 MISS:        799
cpu0_L2C PREFETCH     ACCESS:    1929393 HIT:    1891732 MISS:      37661
cpu0_L2C WRITE        ACCESS:      63980 HIT:      63936 MISS:         44
cpu0_L2C TRANSLATION  ACCESS:      37773 HIT:       9979 MISS:      27794
cpu0_L2C PREFETCH REQUESTED:    1223712 ISSUED:    1223459 USEFUL:       3711 USELESS:      25238
cpu0_L2C AVERAGE MISS LATENCY: 103.1 cycles
cpu0_STLB TOTAL        ACCESS:      34721 HIT:      14918 MISS:      19803
cpu0_STLB LOAD         ACCESS:      34721 HIT:      14918 MISS:      19803
cpu0_STLB RFO          ACCESS:          0 HIT:          0 MISS:          0
cpu0_STLB PREFETCH     ACCESS:          0 HIT:          0 MISS:          0
cpu0_STLB WRITE        ACCESS:          0 HIT:          0 MISS:          0
cpu0_STLB TRANSLATION  ACCESS:          0 HIT:          0 MISS:          0
cpu0_STLB PREFETCH REQUESTED:          0 ISSUED:          0 USEFUL:          0 USELESS:          0
cpu0_STLB AVERAGE MISS LATENCY: 395.9 cycles

DRAM Statistics

Channel 0 RQ ROW_BUFFER_HIT:      15498
  ROW_BUFFER_MISS:      21600
 AVG DBUS CONGESTED CYCLE: 3.534
WQ ROW_BUFFER_HIT: Channel 0 
  ROW_BUFFER_MISS:        241
  FULL:       1843

Channel 1 RQ ROW_BUFFER_HIT:      15522
  ROW_BUFFER_MISS:      21437
 AVG DBUS CONGESTED CYCLE: 3.596
WQ ROW_BUFFER_HIT: Channel 1 
  ROW_BUFFER_MISS:        251
  FULL:       1850
BERTI TO_L1: 300 TO_L2: 489 TO_L2_BC_MSHR: 0
BERTI AVG_LAT: 42.5387 NUM_TRACK_LATENCY: 101906 NUM_CANT_TRACK_LATENCY: 0
BERTI CROSS_PAGE 10 NO_CROSS_PAGE: 779
BERTI FOUND_BERTI: 574066 NO_FOUND_BERTI: 18857126
BERTI AVERAGE_ISSUED: 1
CPU 0 L1I Entangling prefetcher final stats
IP accesses: 1f8 7e00 70066 / 8199108
IP misses: 8147 2051c0 17304 / 642808
IP hits: 0 0 0 / 0
IP late: 282 a080 5094 / 246547
IP wrong: 142 5080 5325 / 310666
miss rate: 0.0783998
coverage: 0
coverage_late: 0.383547
accuracy: 0
accuracy_late: 0.442465
discarded: 0
evicts entangled j table: 0
evicts entangled k table: 40303
max bb size: 36
formats: 12774 0 6582 1897 17084 16783 0 
hist_lookups: 26680 40618 42799 41259 34986 25451 16491 9895 5645 4400 2541 1654 885 538 207 0 0 16336 
hist_lookups_evict: 0 %
hist_lookups_shortlat: 6.04176 %
bb_found_hist: 0 1268011 906761 698064 491105 366211 180410 232258 85042 146013 142762 108972 114568 50941 64065 67475 67090 50358 34708 1 2 0 0 0 23768 0 18945 0 23308 0 0 0 0 64 7020 24765 16949 0 0 0 0 0 0 0 0 0 0 0 0 0 0 0 0 0 0 0 0 0 0 0 0 0 0 0 
bb_found_summary: 26234001 5189636 5.05508
entangled_found_hist: 0 985116 420959 511834 585897 1779013 419990 0 
entangled_found_summary: 17121129 4702809 3.64062
bb_ent_found_hist: 0 4182569 2334781 1946017 1686315 673557 253772 538189 168540 395291 79655 229683 97695 40402 487377 235880 352534 9778 100278 22 26 0 0 0 21209 0 21008 0 88801 0 0 0 0 29 0 35032 276613 0 0 0 0 0 0 0 0 0 0 0 0 0 0 0 0 0 0 0 0 0 0 0 0 0 0 0 
bb_ent_found_summary: 72720737 14255053 5.10141
