WARNING: physical memory size is smaller than virtual memory size.

*** ChampSim Multicore Out-of-Order Simulator ***
Warmup Instructions: 30000000
Simulation Instructions: 100000000
Number of CPUs: 1
Page size: 4096

BTB:
Basic BTB sets: 1024 ways: 8
Indirect:
history lengths: 0 0 10 16 27 44 60 96 109 219 449 487 714 1313 2146 3881 
ITTAGE tables: 64768 bytes;Region table: 240 bytes;IUM: 384 bytes;Total Storage= 65392 bytes;
RAS:
RAS size: 64
[LLC] Demand IPV: 1 2 2 1 4 Prefetch IPV: 1 2 1 1 4
Berti Prefetcher
CPU 0 Entangling prefetcher
Off-chip DRAM Size: 8 GiB Channels: 2 Width: 64-bit Data Race: 6400 MT/s
Heartbeat CPU 0 instructions: 10000001 cycles: 1726176 heartbeat IPC: 5.793 cumulative IPC: 5.793 (Simulation time: 00 hr 00 min 36 sec)
Heartbeat CPU 0 instructions: 20000009 cycles: 3401164 heartbeat IPC: 5.97 cumulative IPC: 5.88 (Simulation time: 00 hr 01 min 16 sec)
Heartbeat CPU 0 instructions: 30000001 cycles: 5076049 heartbeat IPC: 5.971 cumulative IPC: 5.91 (Simulation time: 00 hr 01 min 52 sec)
Warmup finished CPU 0 instructions: 30000001 cycles: 5076050 cumulative IPC: 5.91 (Simulation time: 00 hr 01 min 52 sec)
Warmup complete CPU 0 instructions: 30000001 cycles: 5076050 cumulative IPC: 5.91 (Simulation time: 00 hr 01 min 52 sec)
Heartbeat CPU 0 instructions: 40000000 cycles: 7628336 heartbeat IPC: 3.918 cumulative IPC: 3.918 (Simulation time: 00 hr 02 min 40 sec)
Heartbeat CPU 0 instructions: 50000003 cycles: 11903690 heartbeat IPC: 2.339 cumulative IPC: 2.929 (Simulation time: 00 hr 03 min 33 sec)
*** Reached end of trace: (0, "../traces/secret_traces/compute_int/compute_int_601.champsimtrace.xz")
Heartbeat CPU 0 instructions: 60000007 cycles: 17673792 heartbeat IPC: 1.733 cumulative IPC: 2.381 (Simulation time: 00 hr 04 min 36 sec)
Heartbeat CPU 0 instructions: 70000000 cycles: 22367520 heartbeat IPC: 2.131 cumulative IPC: 2.313 (Simulation time: 00 hr 05 min 34 sec)
Heartbeat CPU 0 instructions: 80000006 cycles: 25961282 heartbeat IPC: 2.783 cumulative IPC: 2.394 (Simulation time: 00 hr 06 min 25 sec)
Heartbeat CPU 0 instructions: 90000009 cycles: 28359390 heartbeat IPC: 4.17 cumulative IPC: 2.577 (Simulation time: 00 hr 07 min 09 sec)
Heartbeat CPU 0 instructions: 100000000 cycles: 32554565 heartbeat IPC: 2.384 cumulative IPC: 2.547 (Simulation time: 00 hr 08 min 02 sec)
*** Reached end of trace: (0, "../traces/secret_traces/compute_int/compute_int_601.champsimtrace.xz")
Heartbeat CPU 0 instructions: 110000002 cycles: 38098620 heartbeat IPC: 1.804 cumulative IPC: 2.423 (Simulation time: 00 hr 09 min 04 sec)
Heartbeat CPU 0 instructions: 120000001 cycles: 42794572 heartbeat IPC: 2.129 cumulative IPC: 2.386 (Simulation time: 00 hr 10 min 01 sec)
Heartbeat CPU 0 instructions: 130000000 cycles: 46690328 heartbeat IPC: 2.567 cumulative IPC: 2.403 (Simulation time: 00 hr 10 min 52 sec)
Simulation finished CPU 0 instructions: 100000001 cycles: 41614280 cumulative IPC: 2.403 (Simulation time: 00 hr 10 min 52 sec)
Simulation complete CPU 0 instructions: 100000001 cycles: 41614280 cumulative IPC: 2.403 (Simulation time: 00 hr 10 min 52 sec)

ChampSim completed all CPUs

=== Simulation ===
CPU 0 runs ../traces/secret_traces/compute_int/compute_int_601.champsimtrace.xz
Region of Interest Statistics

CPU 0 cumulative IPC: 2.403 instructions: 100000001 cycles: 41614280
CPU 0 Branch Prediction Accuracy: 91.13% MPKI: 13.18 Average ROB Occupancy at Mispredict: 12.48
Branch type MPKI
BRANCH_DIRECT_JUMP: 0.385
BRANCH_INDIRECT: 0.0866
BRANCH_CONDITIONAL: 12.7
BRANCH_DIRECT_CALL: 0.0318
BRANCH_INDIRECT_CALL: 0.00283
BRANCH_RETURN: 0.0181

LLC TOTAL        ACCESS:     427968 HIT:     172197 MISS:     255771
LLC LOAD         ACCESS:      23232 HIT:       9604 MISS:      13628
LLC RFO          ACCESS:     107291 HIT:      64721 MISS:      42570
LLC PREFETCH     ACCESS:     180862 HIT:      19824 MISS:     161038
LLC WRITE        ACCESS:     114900 HIT:      77861 MISS:      37039
LLC TRANSLATION  ACCESS:       1683 HIT:        187 MISS:       1496
LLC PREFETCH REQUESTED:          0 ISSUED:          0 USEFUL:          0 USELESS:          0
LLC AVERAGE MISS LATENCY: 85.32 cycles
cpu0_DTLB TOTAL        ACCESS:   21511688 HIT:   21482996 MISS:      28692
cpu0_DTLB LOAD         ACCESS:   21511688 HIT:   21482996 MISS:      28692
cpu0_DTLB RFO          ACCESS:          0 HIT:          0 MISS:          0
cpu0_DTLB PREFETCH     ACCESS:          0 HIT:          0 MISS:          0
cpu0_DTLB WRITE        ACCESS:          0 HIT:          0 MISS:          0
cpu0_DTLB TRANSLATION  ACCESS:          0 HIT:          0 MISS:          0
cpu0_DTLB PREFETCH REQUESTED:          0 ISSUED:          0 USEFUL:          0 USELESS:          0
cpu0_DTLB AVERAGE MISS LATENCY: 11.49 cycles
cpu0_ITLB TOTAL        ACCESS:     186131 HIT:     183429 MISS:       2702
cpu0_ITLB LOAD         ACCESS:     186131 HIT:     183429 MISS:       2702
cpu0_ITLB RFO          ACCESS:          0 HIT:          0 MISS:          0
cpu0_ITLB PREFETCH     ACCESS:          0 HIT:          0 MISS:          0
cpu0_ITLB WRITE        ACCESS:          0 HIT:          0 MISS:          0
cpu0_ITLB TRANSLATION  ACCESS:          0 HIT:          0 MISS:          0
cpu0_ITLB PREFETCH REQUESTED:          0 ISSUED:          0 USEFUL:          0 USELESS:          0
cpu0_ITLB AVERAGE MISS LATENCY: 49.98 cycles
cpu0_L1D TOTAL        ACCESS:   40950586 HIT:   31749796 MISS:    9200790
cpu0_L1D LOAD         ACCESS:   16203611 HIT:   15702511 MISS:     501100
cpu0_L1D RFO          ACCESS:          0 HIT:          0 MISS:          0
cpu0_L1D PREFETCH     ACCESS:   18829449 HIT:   10860486 MISS:    7968963
cpu0_L1D WRITE        ACCESS:    5911678 HIT:    5184238 MISS:     727440
cpu0_L1D TRANSLATION  ACCESS:       5848 HIT:       2561 MISS:       3287
cpu0_L1D PREFETCH REQUESTED:   51066766 ISSUED:   18829422 USEFUL:     119189 USELESS:       6740
cpu0_L1D AVERAGE MISS LATENCY: 1.32 cycles
cpu0_L1I TOTAL        ACCESS:     271366 HIT:     218857 MISS:      52509
cpu0_L1I LOAD         ACCESS:      93906 HIT:      79339 MISS:      14567
cpu0_L1I RFO          ACCESS:          0 HIT:          0 MISS:          0
cpu0_L1I PREFETCH     ACCESS:     177460 HIT:     139518 MISS:      37942
cpu0_L1I WRITE        ACCESS:          0 HIT:          0 MISS:          0
cpu0_L1I TRANSLATION  ACCESS:          0 HIT:          0 MISS:          0
cpu0_L1I PREFETCH REQUESTED:     280177 ISSUED:     177460 USEFUL:      21495 USELESS:      13720
cpu0_L1I AVERAGE MISS LATENCY: 46.41 cycles
cpu0_L2C TOTAL        ACCESS:   13969186 HIT:   13238028 MISS:     731158
cpu0_L2C LOAD         ACCESS:     284234 HIT:     256085 MISS:      28149
cpu0_L2C RFO          ACCESS:     121768 HIT:      14462 MISS:     107306
cpu0_L2C PREFETCH     ACCESS:   13320053 HIT:   12726054 MISS:     593999
cpu0_L2C WRITE        ACCESS:     239849 HIT:     239828 MISS:         21
cpu0_L2C TRANSLATION  ACCESS:       3282 HIT:       1599 MISS:       1683
cpu0_L2C PREFETCH REQUESTED:    7308020 ISSUED:    6296267 USEFUL:     121041 USELESS:      12399
cpu0_L2C AVERAGE MISS LATENCY: 38.33 cycles
cpu0_STLB TOTAL        ACCESS:      10414 HIT:       4796 MISS:       5618
cpu0_STLB LOAD         ACCESS:      10414 HIT:       4796 MISS:       5618
cpu0_STLB RFO          ACCESS:          0 HIT:          0 MISS:          0
cpu0_STLB PREFETCH     ACCESS:          0 HIT:          0 MISS:          0
cpu0_STLB WRITE        ACCESS:          0 HIT:          0 MISS:          0
cpu0_STLB TRANSLATION  ACCESS:          0 HIT:          0 MISS:          0
cpu0_STLB PREFETCH REQUESTED:          0 ISSUED:          0 USEFUL:          0 USELESS:          0
cpu0_STLB AVERAGE MISS LATENCY: 91.85 cycles

DRAM Statistics

Channel 0 RQ ROW_BUFFER_HIT:      77600
  ROW_BUFFER_MISS:      31924
 AVG DBUS CONGESTED CYCLE: 3.751
WQ ROW_BUFFER_HIT: Channel 0 
  ROW_BUFFER_MISS:       2896
  FULL:      16838

Channel 1 RQ ROW_BUFFER_HIT:      77710
  ROW_BUFFER_MISS:      31498
 AVG DBUS CONGESTED CYCLE: 3.752
WQ ROW_BUFFER_HIT: Channel 1 
  ROW_BUFFER_MISS:       2657
  FULL:      17105
BERTI TO_L1: 31600772 TO_L2: 32050625 TO_L2_BC_MSHR: 564899
BERTI AVG_LAT: 23.8077 NUM_TRACK_LATENCY: 533277 NUM_CANT_TRACK_LATENCY: 0
BERTI CROSS_PAGE 9147302 NO_CROSS_PAGE: 54504095
BERTI FOUND_BERTI: 19927844 NO_FOUND_BERTI: 1262453
BERTI AVERAGE_ISSUED: 3.82013
CPU 0 L1I Entangling prefetcher final stats
IP accesses: 621 18840 660 / 95372
IP misses: 1179 45e40 82 / 16033
IP hits: 0 0 0 / 0
IP late: 587a 161e80 36 / 7530
IP wrong: 64fe 193f80 44 / 13652
miss rate: 0.168111
coverage: 0
coverage_late: 0.469657
accuracy: 0
accuracy_late: 0.355491
discarded: 0
evicts entangled j table: 0
evicts entangled k table: 2106
max bb size: 67
formats: 632 0 1918 996 398 749 0 
hist_lookups: 1371 1591 1392 1277 1173 900 671 553 432 337 229 173 143 78 35 0 9 3642 
hist_lookups_evict: 0.0642582 %
hist_lookups_shortlat: 26.0032 %
bb_found_hist: 0 22389 11552 4327 1889 915 858 170 149 5 0 0 2 4 6 2 0 0 0 0 2 0 12 0 1 0 0 0 0 0 0 0 0 0 0 0 0 0 0 0 0 0 0 0 0 0 0 0 0 0 0 0 0 0 0 0 0 0 0 0 0 0 0 0 
bb_found_summary: 78698 42283 1.86123
entangled_found_hist: 0 13247 8738 15942 3160 285 95 0 
entangled_found_summary: 93184 41467 2.24719
bb_ent_found_hist: 0 32093 17638 8128 4352 2072 979 676 307 4 0 0 4 4 0 0 0 0 0 0 0 0 0 0 3 0 0 0 0 0 0 0 0 0 0 0 0 0 0 0 0 0 0 0 0 0 0 0 0 0 0 0 0 0 0 0 0 0 0 0 0 0 0 0 
bb_ent_found_summary: 132791 66260 2.00409
