WARNING: physical memory size is smaller than virtual memory size.

*** ChampSim Multicore Out-of-Order Simulator ***
Warmup Instructions: 30000000
Simulation Instructions: 100000000
Number of CPUs: 1
Page size: 4096

BTB:
Basic BTB sets: 1024 ways: 8
Indirect:
history lengths: 0 0 10 16 27 44 60 96 109 219 449 487 714 1313 2146 3881 
ITTAGE tables: 64768 bytes;Region table: 240 bytes;IUM: 384 bytes;Total Storage= 65392 bytes;
RAS:
RAS size: 64
[LLC] Demand IPV: 1 2 2 1 4 Prefetch IPV: 1 2 1 1 4
Berti Prefetcher
CPU 0 Entangling prefetcher
Off-chip DRAM Size: 8 GiB Channels: 2 Width: 64-bit Data Race: 6400 MT/s
Heartbeat CPU 0 instructions: 10000003 cycles: 1702733 heartbeat IPC: 5.873 cumulative IPC: 5.873 (Simulation time: 00 hr 00 min 41 sec)
Heartbeat CPU 0 instructions: 20000001 cycles: 3378068 heartbeat IPC: 5.969 cumulative IPC: 5.921 (Simulation time: 00 hr 01 min 21 sec)
Heartbeat CPU 0 instructions: 30000001 cycles: 5044735 heartbeat IPC: 6 cumulative IPC: 5.947 (Simulation time: 00 hr 02 min 03 sec)
Warmup finished CPU 0 instructions: 30000001 cycles: 5044736 cumulative IPC: 5.947 (Simulation time: 00 hr 02 min 03 sec)
Warmup complete CPU 0 instructions: 30000001 cycles: 5044736 cumulative IPC: 5.947 (Simulation time: 00 hr 02 min 03 sec)
Heartbeat CPU 0 instructions: 40000005 cycles: 6896623 heartbeat IPC: 5.4 cumulative IPC: 5.4 (Simulation time: 00 hr 02 min 59 sec)
Heartbeat CPU 0 instructions: 50000004 cycles: 8745759 heartbeat IPC: 5.408 cumulative IPC: 5.404 (Simulation time: 00 hr 03 min 54 sec)
Heartbeat CPU 0 instructions: 60000002 cycles: 10588156 heartbeat IPC: 5.428 cumulative IPC: 5.412 (Simulation time: 00 hr 04 min 53 sec)
Heartbeat CPU 0 instructions: 70000004 cycles: 12419409 heartbeat IPC: 5.461 cumulative IPC: 5.424 (Simulation time: 00 hr 05 min 53 sec)
Heartbeat CPU 0 instructions: 80000003 cycles: 14255751 heartbeat IPC: 5.446 cumulative IPC: 5.428 (Simulation time: 00 hr 06 min 51 sec)
Heartbeat CPU 0 instructions: 90000000 cycles: 16088437 heartbeat IPC: 5.456 cumulative IPC: 5.433 (Simulation time: 00 hr 07 min 48 sec)
Heartbeat CPU 0 instructions: 100000000 cycles: 17922813 heartbeat IPC: 5.451 cumulative IPC: 5.436 (Simulation time: 00 hr 08 min 43 sec)
*** Reached end of trace: (0, "../traces/secret_traces/compute_int/compute_int_81.champsimtrace.xz")
Heartbeat CPU 0 instructions: 110000003 cycles: 20014131 heartbeat IPC: 4.782 cumulative IPC: 5.344 (Simulation time: 00 hr 09 min 45 sec)
Heartbeat CPU 0 instructions: 120000005 cycles: 22332900 heartbeat IPC: 4.313 cumulative IPC: 5.206 (Simulation time: 00 hr 10 min 44 sec)
Heartbeat CPU 0 instructions: 130000004 cycles: 24187114 heartbeat IPC: 5.393 cumulative IPC: 5.224 (Simulation time: 00 hr 11 min 40 sec)
Simulation finished CPU 0 instructions: 100000003 cycles: 19142379 cumulative IPC: 5.224 (Simulation time: 00 hr 11 min 40 sec)
Simulation complete CPU 0 instructions: 100000003 cycles: 19142379 cumulative IPC: 5.224 (Simulation time: 00 hr 11 min 40 sec)

ChampSim completed all CPUs

=== Simulation ===
CPU 0 runs ../traces/secret_traces/compute_int/compute_int_81.champsimtrace.xz
Region of Interest Statistics

CPU 0 cumulative IPC: 5.224 instructions: 100000003 cycles: 19142379
CPU 0 Branch Prediction Accuracy: 99.95% MPKI: 0.08786 Average ROB Occupancy at Mispredict: 41.82
Branch type MPKI
BRANCH_DIRECT_JUMP: 0.00399
BRANCH_INDIRECT: 0.0394
BRANCH_CONDITIONAL: 0.026
BRANCH_DIRECT_CALL: 0.0109
BRANCH_INDIRECT_CALL: 0.00126
BRANCH_RETURN: 0.00624

LLC TOTAL        ACCESS:     582775 HIT:     506399 MISS:      76376
LLC LOAD         ACCESS:      10743 HIT:       5512 MISS:       5231
LLC RFO          ACCESS:      16705 HIT:       9469 MISS:       7236
LLC PREFETCH     ACCESS:     530737 HIT:     475133 MISS:      55604
LLC WRITE        ACCESS:      24011 HIT:      16254 MISS:       7757
LLC TRANSLATION  ACCESS:        579 HIT:         31 MISS:        548
LLC PREFETCH REQUESTED:          0 ISSUED:          0 USEFUL:          0 USELESS:          0
LLC AVERAGE MISS LATENCY: 144.8 cycles
cpu0_DTLB TOTAL        ACCESS:   18317836 HIT:   18276614 MISS:      41222
cpu0_DTLB LOAD         ACCESS:   18317836 HIT:   18276614 MISS:      41222
cpu0_DTLB RFO          ACCESS:          0 HIT:          0 MISS:          0
cpu0_DTLB PREFETCH     ACCESS:          0 HIT:          0 MISS:          0
cpu0_DTLB WRITE        ACCESS:          0 HIT:          0 MISS:          0
cpu0_DTLB TRANSLATION  ACCESS:          0 HIT:          0 MISS:          0
cpu0_DTLB PREFETCH REQUESTED:          0 ISSUED:          0 USEFUL:          0 USELESS:          0
cpu0_DTLB AVERAGE MISS LATENCY: 11.26 cycles
cpu0_ITLB TOTAL        ACCESS:     105999 HIT:     104931 MISS:       1068
cpu0_ITLB LOAD         ACCESS:     105999 HIT:     104931 MISS:       1068
cpu0_ITLB RFO          ACCESS:          0 HIT:          0 MISS:          0
cpu0_ITLB PREFETCH     ACCESS:          0 HIT:          0 MISS:          0
cpu0_ITLB WRITE        ACCESS:          0 HIT:          0 MISS:          0
cpu0_ITLB TRANSLATION  ACCESS:          0 HIT:          0 MISS:          0
cpu0_ITLB PREFETCH REQUESTED:          0 ISSUED:          0 USEFUL:          0 USELESS:          0
cpu0_ITLB AVERAGE MISS LATENCY: 47.09 cycles
cpu0_L1D TOTAL        ACCESS:   41342128 HIT:   38790167 MISS:    2551961
cpu0_L1D LOAD         ACCESS:   31330563 HIT:   30293041 MISS:    1037522
cpu0_L1D RFO          ACCESS:          0 HIT:          0 MISS:          0
cpu0_L1D PREFETCH     ACCESS:    8816056 HIT:    7334740 MISS:    1481316
cpu0_L1D WRITE        ACCESS:    1194467 HIT:    1162146 MISS:      32321
cpu0_L1D TRANSLATION  ACCESS:       1042 HIT:        240 MISS:        802
cpu0_L1D PREFETCH REQUESTED:   57202237 ISSUED:    8816062 USEFUL:     624798 USELESS:       2449
cpu0_L1D AVERAGE MISS LATENCY: 6.199 cycles
cpu0_L1I TOTAL        ACCESS:     154702 HIT:     128404 MISS:      26298
cpu0_L1I LOAD         ACCESS:      55804 HIT:      47603 MISS:       8201
cpu0_L1I RFO          ACCESS:          0 HIT:          0 MISS:          0
cpu0_L1I PREFETCH     ACCESS:      98898 HIT:      80801 MISS:      18097
cpu0_L1I WRITE        ACCESS:          0 HIT:          0 MISS:          0
cpu0_L1I TRANSLATION  ACCESS:          0 HIT:          0 MISS:          0
cpu0_L1I PREFETCH REQUESTED:     164511 ISSUED:      98898 USEFUL:       9796 USELESS:       6563
cpu0_L1I AVERAGE MISS LATENCY: 54.7 cycles
cpu0_L2C TOTAL        ACCESS:    3440527 HIT:    2623225 MISS:     817302
cpu0_L2C LOAD         ACCESS:     207555 HIT:     191452 MISS:      16103
cpu0_L2C RFO          ACCESS:      22430 HIT:       5717 MISS:      16713
cpu0_L2C PREFETCH     ACCESS:    3169078 HIT:    2385173 MISS:     783905
cpu0_L2C WRITE        ACCESS:      40677 HIT:      40675 MISS:          2
cpu0_L2C TRANSLATION  ACCESS:        787 HIT:        208 MISS:        579
cpu0_L2C PREFETCH REQUESTED:    1690593 ISSUED:    1686044 USEFUL:     364530 USELESS:      55247
cpu0_L2C AVERAGE MISS LATENCY: 26.79 cycles
cpu0_STLB TOTAL        ACCESS:      35366 HIT:      34378 MISS:        988
cpu0_STLB LOAD         ACCESS:      35366 HIT:      34378 MISS:        988
cpu0_STLB RFO          ACCESS:          0 HIT:          0 MISS:          0
cpu0_STLB PREFETCH     ACCESS:          0 HIT:          0 MISS:          0
cpu0_STLB WRITE        ACCESS:          0 HIT:          0 MISS:          0
cpu0_STLB TRANSLATION  ACCESS:          0 HIT:          0 MISS:          0
cpu0_STLB PREFETCH REQUESTED:          0 ISSUED:          0 USEFUL:          0 USELESS:          0
cpu0_STLB AVERAGE MISS LATENCY: 267.2 cycles

DRAM Statistics

Channel 0 RQ ROW_BUFFER_HIT:      16228
  ROW_BUFFER_MISS:      16820
 AVG DBUS CONGESTED CYCLE: 3.909
WQ ROW_BUFFER_HIT: Channel 0 
  ROW_BUFFER_MISS:        803
  FULL:       6198

Channel 1 RQ ROW_BUFFER_HIT:      18242
  ROW_BUFFER_MISS:      17147
 AVG DBUS CONGESTED CYCLE: 3.887
WQ ROW_BUFFER_HIT: Channel 1 
  ROW_BUFFER_MISS:        873
  FULL:       5785
BERTI TO_L1: 79092266 TO_L2: 11453623 TO_L2_BC_MSHR: 44466
BERTI AVG_LAT: 77.042 NUM_TRACK_LATENCY: 1091548 NUM_CANT_TRACK_LATENCY: 0
BERTI CROSS_PAGE 11046285 NO_CROSS_PAGE: 79499604
BERTI FOUND_BERTI: 20424961 NO_FOUND_BERTI: 20208330
BERTI AVERAGE_ISSUED: 2.58142
CPU 0 L1I Entangling prefetcher final stats
IP accesses: eebd 3baf40 387 / 56396
IP misses: 4726 11c980 88 / 8793
IP hits: 0 0 0 / 0
IP late: 2125 84940 14 / 4248
IP wrong: eed9 3bb640 28 / 6519
miss rate: 0.155916
coverage: 0
coverage_late: 0.483112
accuracy: 0
accuracy_late: 0.394539
discarded: 0
evicts entangled j table: 0
evicts entangled k table: 1136
max bb size: 65
formats: 293 0 1032 528 183 439 0 
hist_lookups: 724 809 682 622 597 517 391 344 245 181 142 135 89 44 28 0 3 2280 
hist_lookups_evict: 0.0382996 %
hist_lookups_shortlat: 29.1077 %
bb_found_hist: 0 12867 6431 2630 1318 591 188 51 45 87 10 21 9 23 3 0 0 0 0 2 0 2 0 0 0 0 0 0 0 0 0 0 0 0 0 0 0 0 0 0 0 0 0 0 0 0 0 0 0 0 0 0 0 0 0 0 0 0 0 0 0 0 2 0 
bb_found_summary: 45458 24280 1.87225
entangled_found_hist: 0 6838 4023 10021 1663 328 26 0 
entangled_found_summary: 53395 22899 2.33177
bb_ent_found_hist: 0 19346 10330 5391 1792 1501 506 221 58 117 17 1 48 0 0 0 0 0 0 0 0 0 0 0 1 0 0 0 0 0 0 0 0 0 0 0 0 0 0 0 0 0 0 0 0 0 0 0 0 0 0 0 0 0 0 0 0 0 0 0 0 0 1 0 
bb_ent_found_summary: 77795 39330 1.97801
