WARNING: physical memory size is smaller than virtual memory size.

*** ChampSim Multicore Out-of-Order Simulator ***
Warmup Instructions: 30000000
Simulation Instructions: 100000000
Number of CPUs: 1
Page size: 4096

BTB:
Basic BTB sets: 1024 ways: 8
Indirect:
history lengths: 0 0 10 16 27 44 60 96 109 219 449 487 714 1313 2146 3881 
ITTAGE tables: 64768 bytes;Region table: 240 bytes;IUM: 384 bytes;Total Storage= 65392 bytes;
RAS:
RAS size: 64
[LLC] Demand IPV: 1 2 2 1 4 Prefetch IPV: 1 2 1 1 4
Berti Prefetcher
CPU 0 Entangling prefetcher
Off-chip DRAM Size: 8 GiB Channels: 2 Width: 64-bit Data Race: 6400 MT/s
Heartbeat CPU 0 instructions: 10000001 cycles: 1669943 heartbeat IPC: 5.988 cumulative IPC: 5.988 (Simulation time: 00 hr 00 min 34 sec)
Heartbeat CPU 0 instructions: 20000004 cycles: 3339915 heartbeat IPC: 5.988 cumulative IPC: 5.988 (Simulation time: 00 hr 01 min 07 sec)
Heartbeat CPU 0 instructions: 30000005 cycles: 5009570 heartbeat IPC: 5.989 cumulative IPC: 5.989 (Simulation time: 00 hr 01 min 41 sec)
Warmup finished CPU 0 instructions: 30000005 cycles: 5009571 cumulative IPC: 5.989 (Simulation time: 00 hr 01 min 41 sec)
Warmup complete CPU 0 instructions: 30000005 cycles: 5009571 cumulative IPC: 5.989 (Simulation time: 00 hr 01 min 41 sec)
Heartbeat CPU 0 instructions: 40000001 cycles: 9890198 heartbeat IPC: 2.049 cumulative IPC: 2.049 (Simulation time: 00 hr 02 min 38 sec)
*** Reached end of trace: (0, "../traces/secret_traces/compute_int/compute_int_791.champsimtrace.xz")
Heartbeat CPU 0 instructions: 50000001 cycles: 15509471 heartbeat IPC: 1.78 cumulative IPC: 1.905 (Simulation time: 00 hr 03 min 45 sec)
Heartbeat CPU 0 instructions: 60000005 cycles: 18970371 heartbeat IPC: 2.889 cumulative IPC: 2.149 (Simulation time: 00 hr 04 min 39 sec)
Heartbeat CPU 0 instructions: 70000010 cycles: 22325575 heartbeat IPC: 2.98 cumulative IPC: 2.31 (Simulation time: 00 hr 05 min 33 sec)
Heartbeat CPU 0 instructions: 80000002 cycles: 27247954 heartbeat IPC: 2.032 cumulative IPC: 2.248 (Simulation time: 00 hr 06 min 32 sec)
*** Reached end of trace: (0, "../traces/secret_traces/compute_int/compute_int_791.champsimtrace.xz")
Heartbeat CPU 0 instructions: 90000000 cycles: 32854022 heartbeat IPC: 1.784 cumulative IPC: 2.155 (Simulation time: 00 hr 07 min 34 sec)
Heartbeat CPU 0 instructions: 100000005 cycles: 36313044 heartbeat IPC: 2.891 cumulative IPC: 2.236 (Simulation time: 00 hr 08 min 41 sec)
Heartbeat CPU 0 instructions: 110000006 cycles: 39848757 heartbeat IPC: 2.828 cumulative IPC: 2.296 (Simulation time: 00 hr 09 min 42 sec)
Heartbeat CPU 0 instructions: 120000000 cycles: 44765542 heartbeat IPC: 2.034 cumulative IPC: 2.264 (Simulation time: 00 hr 10 min 52 sec)
*** Reached end of trace: (0, "../traces/secret_traces/compute_int/compute_int_791.champsimtrace.xz")
Heartbeat CPU 0 instructions: 130000001 cycles: 50364582 heartbeat IPC: 1.786 cumulative IPC: 2.205 (Simulation time: 00 hr 12 min 07 sec)
Simulation finished CPU 0 instructions: 100000002 cycles: 45355014 cumulative IPC: 2.205 (Simulation time: 00 hr 12 min 07 sec)
Simulation complete CPU 0 instructions: 100000002 cycles: 45355014 cumulative IPC: 2.205 (Simulation time: 00 hr 12 min 07 sec)

ChampSim completed all CPUs

=== Simulation ===
CPU 0 runs ../traces/secret_traces/compute_int/compute_int_791.champsimtrace.xz
Region of Interest Statistics

CPU 0 cumulative IPC: 2.205 instructions: 100000002 cycles: 45355014
CPU 0 Branch Prediction Accuracy: 91.15% MPKI: 18.31 Average ROB Occupancy at Mispredict: 11.8
Branch type MPKI
BRANCH_DIRECT_JUMP: 0
BRANCH_INDIRECT: 6.67
BRANCH_CONDITIONAL: 11.6
BRANCH_DIRECT_CALL: 1e-05
BRANCH_INDIRECT_CALL: 0
BRANCH_RETURN: 7e-05

LLC TOTAL        ACCESS:     432687 HIT:     185211 MISS:     247476
LLC LOAD         ACCESS:      59479 HIT:       2170 MISS:      57309
LLC RFO          ACCESS:     120782 HIT:      74690 MISS:      46092
LLC PREFETCH     ACCESS:      76810 HIT:      17813 MISS:      58997
LLC WRITE        ACCESS:     175566 HIT:      90529 MISS:      85037
LLC TRANSLATION  ACCESS:         50 HIT:          9 MISS:         41
LLC PREFETCH REQUESTED:          0 ISSUED:          0 USEFUL:          0 USELESS:          0
LLC AVERAGE MISS LATENCY: 132.9 cycles
cpu0_DTLB TOTAL        ACCESS:   22778393 HIT:   22763610 MISS:      14783
cpu0_DTLB LOAD         ACCESS:   22778393 HIT:   22763610 MISS:      14783
cpu0_DTLB RFO          ACCESS:          0 HIT:          0 MISS:          0
cpu0_DTLB PREFETCH     ACCESS:          0 HIT:          0 MISS:          0
cpu0_DTLB WRITE        ACCESS:          0 HIT:          0 MISS:          0
cpu0_DTLB TRANSLATION  ACCESS:          0 HIT:          0 MISS:          0
cpu0_DTLB PREFETCH REQUESTED:          0 ISSUED:          0 USEFUL:          0 USELESS:          0
cpu0_DTLB AVERAGE MISS LATENCY: 4.527 cycles
cpu0_ITLB TOTAL        ACCESS:      15150 HIT:      15150 MISS:          0
cpu0_ITLB LOAD         ACCESS:      15150 HIT:      15150 MISS:          0
cpu0_ITLB RFO          ACCESS:          0 HIT:          0 MISS:          0
cpu0_ITLB PREFETCH     ACCESS:          0 HIT:          0 MISS:          0
cpu0_ITLB WRITE        ACCESS:          0 HIT:          0 MISS:          0
cpu0_ITLB TRANSLATION  ACCESS:          0 HIT:          0 MISS:          0
cpu0_ITLB PREFETCH REQUESTED:          0 ISSUED:          0 USEFUL:          0 USELESS:          0
cpu0_ITLB AVERAGE MISS LATENCY: -nan cycles
cpu0_L1D TOTAL        ACCESS:   41442756 HIT:   29175799 MISS:   12266957
cpu0_L1D LOAD         ACCESS:   10635270 HIT:   10449810 MISS:     185460
cpu0_L1D RFO          ACCESS:          0 HIT:          0 MISS:          0
cpu0_L1D PREFETCH     ACCESS:   21663650 HIT:   11591160 MISS:   10072490
cpu0_L1D WRITE        ACCESS:    9143442 HIT:    7134512 MISS:    2008930
cpu0_L1D TRANSLATION  ACCESS:        394 HIT:        317 MISS:         77
cpu0_L1D PREFETCH REQUESTED:   29551846 ISSUED:   21663657 USEFUL:      54471 USELESS:        240
cpu0_L1D AVERAGE MISS LATENCY: 2.277 cycles
cpu0_L1I TOTAL        ACCESS:      22161 HIT:      21357 MISS:        804
cpu0_L1I LOAD         ACCESS:       8996 HIT:       8578 MISS:        418
cpu0_L1I RFO          ACCESS:          0 HIT:          0 MISS:          0
cpu0_L1I PREFETCH     ACCESS:      13165 HIT:      12779 MISS:        386
cpu0_L1I WRITE        ACCESS:          0 HIT:          0 MISS:          0
cpu0_L1I TRANSLATION  ACCESS:          0 HIT:          0 MISS:          0
cpu0_L1I PREFETCH REQUESTED:      15708 ISSUED:      13165 USEFUL:        177 USELESS:          0
cpu0_L1I AVERAGE MISS LATENCY: 19.79 cycles
cpu0_L2C TOTAL        ACCESS:   18017456 HIT:   17575201 MISS:     442255
cpu0_L2C LOAD         ACCESS:     101235 HIT:      24459 MISS:      76776
cpu0_L2C RFO          ACCESS:     176002 HIT:      54090 MISS:     121912
cpu0_L2C PREFETCH     ACCESS:   17562715 HIT:   17319198 MISS:     243517
cpu0_L2C WRITE        ACCESS:     177427 HIT:     177427 MISS:          0
cpu0_L2C TRANSLATION  ACCESS:         77 HIT:         27 MISS:         50
cpu0_L2C PREFETCH REQUESTED:    9478788 ISSUED:    8185130 USEFUL:      49818 USELESS:       1255
cpu0_L2C AVERAGE MISS LATENCY: 83.34 cycles
cpu0_STLB TOTAL        ACCESS:       5374 HIT:       4982 MISS:        392
cpu0_STLB LOAD         ACCESS:       5374 HIT:       4982 MISS:        392
cpu0_STLB RFO          ACCESS:          0 HIT:          0 MISS:          0
cpu0_STLB PREFETCH     ACCESS:          0 HIT:          0 MISS:          0
cpu0_STLB WRITE        ACCESS:          0 HIT:          0 MISS:          0
cpu0_STLB TRANSLATION  ACCESS:          0 HIT:          0 MISS:          0
cpu0_STLB PREFETCH REQUESTED:          0 ISSUED:          0 USEFUL:          0 USELESS:          0
cpu0_STLB AVERAGE MISS LATENCY: 171.8 cycles

DRAM Statistics

Channel 0 RQ ROW_BUFFER_HIT:      48666
  ROW_BUFFER_MISS:      32552
 AVG DBUS CONGESTED CYCLE: 3.939
WQ ROW_BUFFER_HIT: Channel 0 
  ROW_BUFFER_MISS:       6056
  FULL:      37074

Channel 1 RQ ROW_BUFFER_HIT:      48593
  ROW_BUFFER_MISS:      32628
 AVG DBUS CONGESTED CYCLE: 3.941
WQ ROW_BUFFER_HIT: Channel 1 
  ROW_BUFFER_MISS:       6316
  FULL:      36888
BERTI TO_L1: 4333228 TO_L2: 27975595 TO_L2_BC_MSHR: 1591198
BERTI AVG_LAT: 129.055 NUM_TRACK_LATENCY: 217036 NUM_CANT_TRACK_LATENCY: 0
BERTI CROSS_PAGE 4565190 NO_CROSS_PAGE: 27743633
BERTI FOUND_BERTI: 11827863 NO_FOUND_BERTI: 3596190
BERTI AVERAGE_ISSUED: 5.59136
CPU 0 L1I Entangling prefetcher final stats
IP accesses: a1 2840 275 / 8996
IP misses: 4441 111040 54 / 418
IP hits: 0 0 0 / 0
IP late: 2124 84900 10 / 189
IP wrong: 0 0 0 / 0
miss rate: 0.0464651
coverage: 0
coverage_late: 0.452154
accuracy: 0
accuracy_late: 1
discarded: 0
evicts entangled j table: 0
evicts entangled k table: 9
max bb size: 16
formats: 7 0 7 4 5 4 0 
hist_lookups: 2 1 2 4 6 11 3 5 8 7 5 2 0 0 1 0 0 392 
hist_lookups_evict: 0 %
hist_lookups_shortlat: 87.3052 %
bb_found_hist: 0 1947 1004 353 173 96 0 10 0 0 0 94 0 0 0 0 20 0 0 0 0 0 0 0 0 0 0 0 0 0 0 0 0 0 0 0 0 0 0 0 0 0 0 0 0 0 0 0 0 0 0 0 0 0 0 0 0 0 0 0 0 0 0 0 
bb_found_summary: 7610 3697 2.05843
entangled_found_hist: 0 1235 471 459 40 0 0 0 
entangled_found_summary: 3714 2205 1.68436
bb_ent_found_hist: 0 1311 650 448 60 31 0 0 0 0 0 33 0 0 0 0 0 0 0 0 0 0 0 0 0 0 0 0 0 0 0 0 0 0 0 0 0 0 0 0 0 0 0 0 0 0 0 0 0 0 0 0 0 0 0 0 0 0 0 0 0 0 0 0 
bb_ent_found_summary: 4713 2533 1.86064
