WARNING: physical memory size is smaller than virtual memory size.

*** ChampSim Multicore Out-of-Order Simulator ***
Warmup Instructions: 30000000
Simulation Instructions: 100000000
Number of CPUs: 1
Page size: 4096

BTB:
Basic BTB sets: 1024 ways: 8
Indirect:
history lengths: 0 0 10 16 27 44 60 96 109 219 449 487 714 1313 2146 3881 
ITTAGE tables: 64768 bytes;Region table: 240 bytes;IUM: 384 bytes;Total Storage= 65392 bytes;
RAS:
RAS size: 64
[LLC] Demand IPV: 1 2 2 1 4 Prefetch IPV: 1 2 1 1 4
Berti Prefetcher
CPU 0 Entangling prefetcher
Off-chip DRAM Size: 8 GiB Channels: 2 Width: 64-bit Data Race: 6400 MT/s
Heartbeat CPU 0 instructions: 10000001 cycles: 1671326 heartbeat IPC: 5.983 cumulative IPC: 5.983 (Simulation time: 00 hr 00 min 35 sec)
Heartbeat CPU 0 instructions: 20000001 cycles: 3339233 heartbeat IPC: 5.996 cumulative IPC: 5.989 (Simulation time: 00 hr 01 min 09 sec)
Heartbeat CPU 0 instructions: 30000002 cycles: 5006754 heartbeat IPC: 5.997 cumulative IPC: 5.992 (Simulation time: 00 hr 01 min 46 sec)
Warmup finished CPU 0 instructions: 30000002 cycles: 5006755 cumulative IPC: 5.992 (Simulation time: 00 hr 01 min 46 sec)
Warmup complete CPU 0 instructions: 30000002 cycles: 5006755 cumulative IPC: 5.992 (Simulation time: 00 hr 01 min 46 sec)
Heartbeat CPU 0 instructions: 40000001 cycles: 7955437 heartbeat IPC: 3.391 cumulative IPC: 3.391 (Simulation time: 00 hr 02 min 32 sec)
Heartbeat CPU 0 instructions: 50000002 cycles: 9953022 heartbeat IPC: 5.006 cumulative IPC: 4.043 (Simulation time: 00 hr 03 min 12 sec)
Heartbeat CPU 0 instructions: 60000003 cycles: 12738761 heartbeat IPC: 3.59 cumulative IPC: 3.88 (Simulation time: 00 hr 03 min 58 sec)
Heartbeat CPU 0 instructions: 70000001 cycles: 16762076 heartbeat IPC: 2.486 cumulative IPC: 3.403 (Simulation time: 00 hr 04 min 48 sec)
*** Reached end of trace: (0, "../traces/secret_traces/compute_int/compute_int_165.champsimtrace.xz")
Heartbeat CPU 0 instructions: 80000000 cycles: 19988054 heartbeat IPC: 3.1 cumulative IPC: 3.337 (Simulation time: 00 hr 05 min 35 sec)
Heartbeat CPU 0 instructions: 90000004 cycles: 23465497 heartbeat IPC: 2.876 cumulative IPC: 3.25 (Simulation time: 00 hr 06 min 24 sec)
Heartbeat CPU 0 instructions: 100000004 cycles: 27179612 heartbeat IPC: 2.692 cumulative IPC: 3.157 (Simulation time: 00 hr 07 min 12 sec)
Heartbeat CPU 0 instructions: 110000002 cycles: 31302161 heartbeat IPC: 2.426 cumulative IPC: 3.042 (Simulation time: 00 hr 08 min 06 sec)
Heartbeat CPU 0 instructions: 120000005 cycles: 34114827 heartbeat IPC: 3.555 cumulative IPC: 3.092 (Simulation time: 00 hr 08 min 51 sec)
Heartbeat CPU 0 instructions: 130000000 cycles: 36101085 heartbeat IPC: 5.035 cumulative IPC: 3.216 (Simulation time: 00 hr 09 min 31 sec)
Simulation finished CPU 0 instructions: 100000003 cycles: 31094332 cumulative IPC: 3.216 (Simulation time: 00 hr 09 min 31 sec)
Simulation complete CPU 0 instructions: 100000003 cycles: 31094332 cumulative IPC: 3.216 (Simulation time: 00 hr 09 min 31 sec)

ChampSim completed all CPUs

=== Simulation ===
CPU 0 runs ../traces/secret_traces/compute_int/compute_int_165.champsimtrace.xz
Region of Interest Statistics

CPU 0 cumulative IPC: 3.216 instructions: 100000003 cycles: 31094332
CPU 0 Branch Prediction Accuracy: 95.5% MPKI: 8.276 Average ROB Occupancy at Mispredict: 24.84
Branch type MPKI
BRANCH_DIRECT_JUMP: 4e-05
BRANCH_INDIRECT: 0.371
BRANCH_CONDITIONAL: 7.9
BRANCH_DIRECT_CALL: 5e-05
BRANCH_INDIRECT_CALL: 0.00012
BRANCH_RETURN: 0.00035

LLC TOTAL        ACCESS:     170827 HIT:      51159 MISS:     119668
LLC LOAD         ACCESS:       2238 HIT:        522 MISS:       1716
LLC RFO          ACCESS:      39138 HIT:      16704 MISS:      22434
LLC PREFETCH     ACCESS:      88865 HIT:       3596 MISS:      85269
LLC WRITE        ACCESS:      40462 HIT:      30305 MISS:      10157
LLC TRANSLATION  ACCESS:        124 HIT:         32 MISS:         92
LLC PREFETCH REQUESTED:          0 ISSUED:          0 USEFUL:          0 USELESS:          0
LLC AVERAGE MISS LATENCY: 69.76 cycles
cpu0_DTLB TOTAL        ACCESS:   16593176 HIT:   16586599 MISS:       6577
cpu0_DTLB LOAD         ACCESS:   16593176 HIT:   16586599 MISS:       6577
cpu0_DTLB RFO          ACCESS:          0 HIT:          0 MISS:          0
cpu0_DTLB PREFETCH     ACCESS:          0 HIT:          0 MISS:          0
cpu0_DTLB WRITE        ACCESS:          0 HIT:          0 MISS:          0
cpu0_DTLB TRANSLATION  ACCESS:          0 HIT:          0 MISS:          0
cpu0_DTLB PREFETCH REQUESTED:          0 ISSUED:          0 USEFUL:          0 USELESS:          0
cpu0_DTLB AVERAGE MISS LATENCY: 15.66 cycles
cpu0_ITLB TOTAL        ACCESS:      24753 HIT:      24752 MISS:          1
cpu0_ITLB LOAD         ACCESS:      24753 HIT:      24752 MISS:          1
cpu0_ITLB RFO          ACCESS:          0 HIT:          0 MISS:          0
cpu0_ITLB PREFETCH     ACCESS:          0 HIT:          0 MISS:          0
cpu0_ITLB WRITE        ACCESS:          0 HIT:          0 MISS:          0
cpu0_ITLB TRANSLATION  ACCESS:          0 HIT:          0 MISS:          0
cpu0_ITLB PREFETCH REQUESTED:          0 ISSUED:          0 USEFUL:          0 USELESS:          0
cpu0_ITLB AVERAGE MISS LATENCY: 172 cycles
cpu0_L1D TOTAL        ACCESS:   27721771 HIT:   24882403 MISS:    2839368
cpu0_L1D LOAD         ACCESS:   16904990 HIT:   16544536 MISS:     360454
cpu0_L1D RFO          ACCESS:          0 HIT:          0 MISS:          0
cpu0_L1D PREFETCH     ACCESS:    5604932 HIT:    3316793 MISS:    2288139
cpu0_L1D WRITE        ACCESS:    5210614 HIT:    5020661 MISS:     189953
cpu0_L1D TRANSLATION  ACCESS:       1235 HIT:        413 MISS:        822
cpu0_L1D PREFETCH REQUESTED:    7759037 ISSUED:    5604930 USEFUL:      63206 USELESS:        261
cpu0_L1D AVERAGE MISS LATENCY: 2.026 cycles
cpu0_L1I TOTAL        ACCESS:      36281 HIT:      31301 MISS:       4980
cpu0_L1I LOAD         ACCESS:      14239 HIT:      11594 MISS:       2645
cpu0_L1I RFO          ACCESS:          0 HIT:          0 MISS:          0
cpu0_L1I PREFETCH     ACCESS:      22042 HIT:      19707 MISS:       2335
cpu0_L1I WRITE        ACCESS:          0 HIT:          0 MISS:          0
cpu0_L1I TRANSLATION  ACCESS:          0 HIT:          0 MISS:          0
cpu0_L1I PREFETCH REQUESTED:      34575 ISSUED:      22042 USEFUL:       1556 USELESS:        222
cpu0_L1I AVERAGE MISS LATENCY: 28.01 cycles
cpu0_L2C TOTAL        ACCESS:    4999833 HIT:    4748128 MISS:     251705
cpu0_L2C LOAD         ACCESS:     223511 HIT:     220794 MISS:       2717
cpu0_L2C RFO          ACCESS:     103427 HIT:      64286 MISS:      39141
cpu0_L2C PREFETCH     ACCESS:    4467492 HIT:    4257772 MISS:     209720
cpu0_L2C WRITE        ACCESS:     204582 HIT:     204579 MISS:          3
cpu0_L2C TRANSLATION  ACCESS:        821 HIT:        697 MISS:        124
cpu0_L2C PREFETCH REQUESTED:    2387242 ISSUED:    2307407 USEFUL:      70759 USELESS:       1959
cpu0_L2C AVERAGE MISS LATENCY: 43.88 cycles
cpu0_STLB TOTAL        ACCESS:       2667 HIT:       1448 MISS:       1219
cpu0_STLB LOAD         ACCESS:       2667 HIT:       1448 MISS:       1219
cpu0_STLB RFO          ACCESS:          0 HIT:          0 MISS:          0
cpu0_STLB PREFETCH     ACCESS:          0 HIT:          0 MISS:          0
cpu0_STLB WRITE        ACCESS:          0 HIT:          0 MISS:          0
cpu0_STLB TRANSLATION  ACCESS:          0 HIT:          0 MISS:          0
cpu0_STLB PREFETCH REQUESTED:          0 ISSUED:          0 USEFUL:          0 USELESS:          0
cpu0_STLB AVERAGE MISS LATENCY: 138.6 cycles

DRAM Statistics

Channel 0 RQ ROW_BUFFER_HIT:      47457
  ROW_BUFFER_MISS:       7324
 AVG DBUS CONGESTED CYCLE: 3.6
WQ ROW_BUFFER_HIT: Channel 0 
  ROW_BUFFER_MISS:        352
  FULL:       4034

Channel 1 RQ ROW_BUFFER_HIT:      47507
  ROW_BUFFER_MISS:       7222
 AVG DBUS CONGESTED CYCLE: 3.611
WQ ROW_BUFFER_HIT: Channel 1 
  ROW_BUFFER_MISS:        317
  FULL:       3990
BERTI TO_L1: 2772125 TO_L2: 6498294 TO_L2_BC_MSHR: 95953
BERTI AVG_LAT: 12.6788 NUM_TRACK_LATENCY: 396835 NUM_CANT_TRACK_LATENCY: 0
BERTI CROSS_PAGE 1501193 NO_CROSS_PAGE: 7769226
BERTI FOUND_BERTI: 15359756 NO_FOUND_BERTI: 6586130
BERTI AVERAGE_ISSUED: 3.93993
CPU 0 L1I Entangling prefetcher final stats
IP accesses: 3a6c e9b00 565 / 14598
IP misses: 3b23 ec8c0 128 / 3004
IP hits: 0 0 0 / 0
IP late: 36f1 dbc40 8 / 1417
IP wrong: 391b e46c0 5 / 218
miss rate: 0.205782
coverage: 0
coverage_late: 0.471705
accuracy: 0
accuracy_late: 0.866667
discarded: 0
evicts entangled j table: 0
evicts entangled k table: 209
max bb size: 9
formats: 68 0 215 61 47 96 0 
hist_lookups: 48 91 109 133 135 132 113 114 91 59 46 42 22 10 4 0 6 1092 
hist_lookups_evict: 0.267023 %
hist_lookups_shortlat: 48.5982 %
bb_found_hist: 0 3221 1416 534 250 91 33 13 113 68 0 0 0 0 0 0 0 0 0 0 0 0 0 0 0 0 0 0 0 0 0 0 0 0 0 0 0 0 0 0 0 0 0 0 0 0 0 0 0 0 0 0 0 0 0 0 0 0 0 0 0 0 0 0 
bb_found_summary: 10915 5739 1.9019
entangled_found_hist: 0 2083 921 1954 289 117 13 0 
entangled_found_summary: 11606 5377 2.15846
bb_ent_found_hist: 0 4372 1759 839 480 190 13 8 127 94 0 0 0 0 0 0 0 0 0 0 0 0 0 0 0 0 0 0 0 0 0 0 0 0 0 0 0 0 0 0 0 0 0 0 0 0 0 0 0 0 0 0 0 0 0 0 0 0 0 0 0 0 0 0 
bb_ent_found_summary: 15273 7882 1.93771
