WARNING: physical memory size is smaller than virtual memory size.

*** ChampSim Multicore Out-of-Order Simulator ***
Warmup Instructions: 30000000
Simulation Instructions: 100000000
Number of CPUs: 1
Page size: 4096

BTB:
Basic BTB sets: 1024 ways: 8
Indirect:
history lengths: 0 0 10 16 27 44 60 96 109 219 449 487 714 1313 2146 3881 
ITTAGE tables: 64768 bytes;Region table: 240 bytes;IUM: 384 bytes;Total Storage= 65392 bytes;
RAS:
RAS size: 64
[LLC] Demand IPV: 1 2 2 1 4 Prefetch IPV: 1 2 1 1 4
Berti Prefetcher
CPU 0 Entangling prefetcher
Off-chip DRAM Size: 8 GiB Channels: 2 Width: 64-bit Data Race: 6400 MT/s
Heartbeat CPU 0 instructions: 10000001 cycles: 1796472 heartbeat IPC: 5.566 cumulative IPC: 5.566 (Simulation time: 00 hr 00 min 40 sec)
Heartbeat CPU 0 instructions: 20000005 cycles: 3554623 heartbeat IPC: 5.688 cumulative IPC: 5.626 (Simulation time: 00 hr 01 min 21 sec)
Heartbeat CPU 0 instructions: 30000002 cycles: 5404120 heartbeat IPC: 5.407 cumulative IPC: 5.551 (Simulation time: 00 hr 02 min 04 sec)
Warmup finished CPU 0 instructions: 30000002 cycles: 5404121 cumulative IPC: 5.551 (Simulation time: 00 hr 02 min 04 sec)
Warmup complete CPU 0 instructions: 30000002 cycles: 5404121 cumulative IPC: 5.551 (Simulation time: 00 hr 02 min 04 sec)
Heartbeat CPU 0 instructions: 40000006 cycles: 9143696 heartbeat IPC: 2.674 cumulative IPC: 2.674 (Simulation time: 00 hr 03 min 00 sec)
Heartbeat CPU 0 instructions: 50000003 cycles: 12612284 heartbeat IPC: 2.883 cumulative IPC: 2.775 (Simulation time: 00 hr 03 min 55 sec)
Heartbeat CPU 0 instructions: 60000006 cycles: 15672836 heartbeat IPC: 3.267 cumulative IPC: 2.921 (Simulation time: 00 hr 04 min 51 sec)
Heartbeat CPU 0 instructions: 70000002 cycles: 19635238 heartbeat IPC: 2.524 cumulative IPC: 2.811 (Simulation time: 00 hr 05 min 51 sec)
Heartbeat CPU 0 instructions: 80000004 cycles: 23343632 heartbeat IPC: 2.697 cumulative IPC: 2.787 (Simulation time: 00 hr 06 min 51 sec)
Heartbeat CPU 0 instructions: 90000005 cycles: 27089902 heartbeat IPC: 2.669 cumulative IPC: 2.767 (Simulation time: 00 hr 07 min 49 sec)
Heartbeat CPU 0 instructions: 100000011 cycles: 30158770 heartbeat IPC: 3.259 cumulative IPC: 2.828 (Simulation time: 00 hr 08 min 39 sec)
*** Reached end of trace: (0, "../traces/secret_traces/compute_int/compute_int_124.champsimtrace.xz")
Heartbeat CPU 0 instructions: 110000001 cycles: 33888497 heartbeat IPC: 2.681 cumulative IPC: 2.809 (Simulation time: 00 hr 09 min 34 sec)
Heartbeat CPU 0 instructions: 120000003 cycles: 37468041 heartbeat IPC: 2.794 cumulative IPC: 2.807 (Simulation time: 00 hr 10 min 30 sec)
Heartbeat CPU 0 instructions: 130000002 cycles: 40778643 heartbeat IPC: 3.021 cumulative IPC: 2.827 (Simulation time: 00 hr 11 min 27 sec)
Simulation finished CPU 0 instructions: 100000000 cycles: 35374523 cumulative IPC: 2.827 (Simulation time: 00 hr 11 min 27 sec)
Simulation complete CPU 0 instructions: 100000000 cycles: 35374523 cumulative IPC: 2.827 (Simulation time: 00 hr 11 min 27 sec)

ChampSim completed all CPUs

=== Simulation ===
CPU 0 runs ../traces/secret_traces/compute_int/compute_int_124.champsimtrace.xz
Region of Interest Statistics

CPU 0 cumulative IPC: 2.827 instructions: 100000000 cycles: 35374523
CPU 0 Branch Prediction Accuracy: 97.13% MPKI: 5.845 Average ROB Occupancy at Mispredict: 30.21
Branch type MPKI
BRANCH_DIRECT_JUMP: 0.274
BRANCH_INDIRECT: 1.89
BRANCH_CONDITIONAL: 1.85
BRANCH_DIRECT_CALL: 0.536
BRANCH_INDIRECT_CALL: 0.935
BRANCH_RETURN: 0.364

LLC TOTAL        ACCESS:     574081 HIT:     233334 MISS:     340747
LLC LOAD         ACCESS:      53788 HIT:      20684 MISS:      33104
LLC RFO          ACCESS:     156573 HIT:      45751 MISS:     110822
LLC PREFETCH     ACCESS:     175603 HIT:      81082 MISS:      94521
LLC WRITE        ACCESS:     183955 HIT:      85107 MISS:      98848
LLC TRANSLATION  ACCESS:       4162 HIT:        710 MISS:       3452
LLC PREFETCH REQUESTED:          0 ISSUED:          0 USEFUL:          0 USELESS:          0
LLC AVERAGE MISS LATENCY: 119.7 cycles
cpu0_DTLB TOTAL        ACCESS:   18222634 HIT:   17888667 MISS:     333967
cpu0_DTLB LOAD         ACCESS:   18222634 HIT:   17888667 MISS:     333967
cpu0_DTLB RFO          ACCESS:          0 HIT:          0 MISS:          0
cpu0_DTLB PREFETCH     ACCESS:          0 HIT:          0 MISS:          0
cpu0_DTLB WRITE        ACCESS:          0 HIT:          0 MISS:          0
cpu0_DTLB TRANSLATION  ACCESS:          0 HIT:          0 MISS:          0
cpu0_DTLB PREFETCH REQUESTED:          0 ISSUED:          0 USEFUL:          0 USELESS:          0
cpu0_DTLB AVERAGE MISS LATENCY: 7.055 cycles
cpu0_ITLB TOTAL        ACCESS:   10225291 HIT:   10147141 MISS:      78150
cpu0_ITLB LOAD         ACCESS:   10225291 HIT:   10147141 MISS:      78150
cpu0_ITLB RFO          ACCESS:          0 HIT:          0 MISS:          0
cpu0_ITLB PREFETCH     ACCESS:          0 HIT:          0 MISS:          0
cpu0_ITLB WRITE        ACCESS:          0 HIT:          0 MISS:          0
cpu0_ITLB TRANSLATION  ACCESS:          0 HIT:          0 MISS:          0
cpu0_ITLB PREFETCH REQUESTED:          0 ISSUED:          0 USEFUL:          0 USELESS:          0
cpu0_ITLB AVERAGE MISS LATENCY: 7.962 cycles
cpu0_L1D TOTAL        ACCESS:   29709029 HIT:   27279822 MISS:    2429207
cpu0_L1D LOAD         ACCESS:   16635416 HIT:   15631789 MISS:    1003627
cpu0_L1D RFO          ACCESS:          0 HIT:          0 MISS:          0
cpu0_L1D PREFETCH     ACCESS:     728639 HIT:     501799 MISS:     226840
cpu0_L1D WRITE        ACCESS:   12336605 HIT:   11144902 MISS:    1191703
cpu0_L1D TRANSLATION  ACCESS:       8369 HIT:       1332 MISS:       7037
cpu0_L1D PREFETCH REQUESTED:    2134565 ISSUED:     728639 USEFUL:      28308 USELESS:       7632
cpu0_L1D AVERAGE MISS LATENCY: 13.46 cycles
cpu0_L1I TOTAL        ACCESS:   15114465 HIT:   12713115 MISS:    2401350
cpu0_L1I LOAD         ACCESS:    5716585 HIT:    4696593 MISS:    1019992
cpu0_L1I RFO          ACCESS:          0 HIT:          0 MISS:          0
cpu0_L1I PREFETCH     ACCESS:    9397880 HIT:    8016522 MISS:    1381358
cpu0_L1I WRITE        ACCESS:          0 HIT:          0 MISS:          0
cpu0_L1I TRANSLATION  ACCESS:          0 HIT:          0 MISS:          0
cpu0_L1I PREFETCH REQUESTED:   25445203 ISSUED:    9397914 USEFUL:     731603 USELESS:     565741
cpu0_L1I AVERAGE MISS LATENCY: 12.52 cycles
cpu0_L2C TOTAL        ACCESS:    6214576 HIT:    5740404 MISS:     474172
cpu0_L2C LOAD         ACCESS:    1345077 HIT:    1285864 MISS:      59213
cpu0_L2C RFO          ACCESS:     259410 HIT:     102406 MISS:     157004
cpu0_L2C PREFETCH     ACCESS:    4251771 HIT:    3998075 MISS:     253696
cpu0_L2C WRITE        ACCESS:     351297 HIT:     351200 MISS:         97
cpu0_L2C TRANSLATION  ACCESS:       7021 HIT:       2859 MISS:       4162
cpu0_L2C PREFETCH REQUESTED:    2851702 ISSUED:    2745361 USEFUL:      48178 USELESS:      45847
cpu0_L2C AVERAGE MISS LATENCY: 102.3 cycles
cpu0_STLB TOTAL        ACCESS:     284830 HIT:     276996 MISS:       7834
cpu0_STLB LOAD         ACCESS:     284830 HIT:     276996 MISS:       7834
cpu0_STLB RFO          ACCESS:          0 HIT:          0 MISS:          0
cpu0_STLB PREFETCH     ACCESS:          0 HIT:          0 MISS:          0
cpu0_STLB WRITE        ACCESS:          0 HIT:          0 MISS:          0
cpu0_STLB TRANSLATION  ACCESS:          0 HIT:          0 MISS:          0
cpu0_STLB PREFETCH REQUESTED:          0 ISSUED:          0 USEFUL:          0 USELESS:          0
cpu0_STLB AVERAGE MISS LATENCY: 144.1 cycles

DRAM Statistics

Channel 0 RQ ROW_BUFFER_HIT:      35876
  ROW_BUFFER_MISS:      86124
 AVG DBUS CONGESTED CYCLE: 3.869
WQ ROW_BUFFER_HIT: Channel 0 
  ROW_BUFFER_MISS:      11085
  FULL:      51490

Channel 1 RQ ROW_BUFFER_HIT:      35080
  ROW_BUFFER_MISS:      84797
 AVG DBUS CONGESTED CYCLE: 3.863
WQ ROW_BUFFER_HIT: Channel 1 
  ROW_BUFFER_MISS:      11265
  FULL:      51070
BERTI TO_L1: 895346 TO_L2: 1419471 TO_L2_BC_MSHR: 470250
BERTI AVG_LAT: 20.8915 NUM_TRACK_LATENCY: 877048 NUM_CANT_TRACK_LATENCY: 0
BERTI CROSS_PAGE 355476 NO_CROSS_PAGE: 1959341
BERTI FOUND_BERTI: 2273501 NO_FOUND_BERTI: 19420860
BERTI AVERAGE_ISSUED: 4.10466
CPU 0 L1I Entangling prefetcher final stats
IP accesses: 19a0 66800 19056 / 5720557
IP misses: 75c8 1d7200 2878 / 1023964
IP hits: 0 0 0 / 0
IP late: 37d1 df440 800 / 437228
IP wrong: b55b 2d56c0 1392 / 559394
miss rate: 0.178998
coverage: 0
coverage_late: 0.426996
accuracy: 0
accuracy_late: 0.43871
discarded: 0
evicts entangled j table: 0
evicts entangled k table: 138456
max bb size: 33
formats: 13544 39495 87664 28782 10813 24661 0 
hist_lookups: 53372 71963 80389 88934 80682 66698 50545 36370 27666 22381 17301 11813 7107 3336 1408 0 3 90560 
hist_lookups_evict: 0.000422222 %
hist_lookups_shortlat: 12.7455 %
bb_found_hist: 0 1374488 764889 392181 161513 87716 44728 27459 19080 15859 17871 3840 8282 1604 2069 2391 1361 47 469 440 373 476 733 1297 14 0 0 0 0 0 0 0 0 62 0 0 0 0 0 0 0 0 0 0 0 0 0 0 0 0 0 0 0 0 0 0 0 0 0 0 0 0 0 0 
bb_found_summary: 6432582 2929242 2.19599
entangled_found_hist: 0 669271 978310 1280653 153311 27343 14212 0 
entangled_found_summary: 7303081 3123100 2.33841
bb_ent_found_hist: 0 2155964 1326382 824659 420005 261024 116742 68238 64296 34963 66680 2749 14994 91 146 3160 0 74 0 797 447 160 5526 0 0 0 0 0 0 0 0 0 0 269 0 0 0 0 0 0 0 0 0 0 0 0 0 0 0 0 0 0 0 0 0 0 0 0 0 0 0 0 0 0 
bb_ent_found_summary: 13361742 5367366 2.48945
