WARNING: physical memory size is smaller than virtual memory size.

*** ChampSim Multicore Out-of-Order Simulator ***
Warmup Instructions: 30000000
Simulation Instructions: 100000000
Number of CPUs: 1
Page size: 4096

BTB:
Basic BTB sets: 1024 ways: 8
Indirect:
history lengths: 0 0 10 16 27 44 60 96 109 219 449 487 714 1313 2146 3881 
ITTAGE tables: 64768 bytes;Region table: 240 bytes;IUM: 384 bytes;Total Storage= 65392 bytes;
RAS:
RAS size: 64
[LLC] Demand IPV: 1 2 2 1 4 Prefetch IPV: 1 2 1 1 4
Berti Prefetcher
CPU 0 Entangling prefetcher
Off-chip DRAM Size: 8 GiB Channels: 2 Width: 64-bit Data Race: 6400 MT/s
Heartbeat CPU 0 instructions: 10000011 cycles: 1715432 heartbeat IPC: 5.829 cumulative IPC: 5.829 (Simulation time: 00 hr 00 min 34 sec)
Heartbeat CPU 0 instructions: 20000007 cycles: 3431564 heartbeat IPC: 5.827 cumulative IPC: 5.828 (Simulation time: 00 hr 01 min 08 sec)
Heartbeat CPU 0 instructions: 30000002 cycles: 5098283 heartbeat IPC: 6 cumulative IPC: 5.884 (Simulation time: 00 hr 01 min 40 sec)
Warmup finished CPU 0 instructions: 30000002 cycles: 5098284 cumulative IPC: 5.884 (Simulation time: 00 hr 01 min 40 sec)
Warmup complete CPU 0 instructions: 30000002 cycles: 5098284 cumulative IPC: 5.884 (Simulation time: 00 hr 01 min 40 sec)
Heartbeat CPU 0 instructions: 40000000 cycles: 6766269 heartbeat IPC: 5.995 cumulative IPC: 5.995 (Simulation time: 00 hr 02 min 21 sec)
Heartbeat CPU 0 instructions: 50000005 cycles: 8432932 heartbeat IPC: 6 cumulative IPC: 5.998 (Simulation time: 00 hr 03 min 03 sec)
Heartbeat CPU 0 instructions: 60000003 cycles: 10101082 heartbeat IPC: 5.995 cumulative IPC: 5.997 (Simulation time: 00 hr 03 min 41 sec)
*** Reached end of trace: (0, "../traces/secret_traces/crypto/crypto37.champsimtrace.xz")
Heartbeat CPU 0 instructions: 70000004 cycles: 12422067 heartbeat IPC: 4.309 cumulative IPC: 5.462 (Simulation time: 00 hr 04 min 28 sec)
Heartbeat CPU 0 instructions: 80000000 cycles: 14144188 heartbeat IPC: 5.807 cumulative IPC: 5.527 (Simulation time: 00 hr 05 min 07 sec)
Heartbeat CPU 0 instructions: 90000001 cycles: 16289024 heartbeat IPC: 4.662 cumulative IPC: 5.362 (Simulation time: 00 hr 05 min 49 sec)
Heartbeat CPU 0 instructions: 100000000 cycles: 17968150 heartbeat IPC: 5.955 cumulative IPC: 5.439 (Simulation time: 00 hr 06 min 26 sec)
Heartbeat CPU 0 instructions: 110000000 cycles: 19635927 heartbeat IPC: 5.996 cumulative IPC: 5.503 (Simulation time: 00 hr 07 min 04 sec)
Heartbeat CPU 0 instructions: 120000001 cycles: 21303811 heartbeat IPC: 5.996 cumulative IPC: 5.554 (Simulation time: 00 hr 07 min 41 sec)
*** Reached end of trace: (0, "../traces/secret_traces/crypto/crypto37.champsimtrace.xz")
Heartbeat CPU 0 instructions: 130000006 cycles: 23276787 heartbeat IPC: 5.068 cumulative IPC: 5.501 (Simulation time: 00 hr 08 min 21 sec)
Simulation finished CPU 0 instructions: 100000004 cycles: 18178504 cumulative IPC: 5.501 (Simulation time: 00 hr 08 min 21 sec)
Simulation complete CPU 0 instructions: 100000004 cycles: 18178504 cumulative IPC: 5.501 (Simulation time: 00 hr 08 min 21 sec)

ChampSim completed all CPUs

=== Simulation ===
CPU 0 runs ../traces/secret_traces/crypto/crypto37.champsimtrace.xz
Region of Interest Statistics

CPU 0 cumulative IPC: 5.501 instructions: 100000004 cycles: 18178504
CPU 0 Branch Prediction Accuracy: 99.71% MPKI: 0.4045 Average ROB Occupancy at Mispredict: 27.41
Branch type MPKI
BRANCH_DIRECT_JUMP: 0.0209
BRANCH_INDIRECT: 0.193
BRANCH_CONDITIONAL: 0.0902
BRANCH_DIRECT_CALL: 0.0598
BRANCH_INDIRECT_CALL: 0.00745
BRANCH_RETURN: 0.0328

LLC TOTAL        ACCESS:     142462 HIT:     103519 MISS:      38943
LLC LOAD         ACCESS:      15516 HIT:       7397 MISS:       8119
LLC RFO          ACCESS:      41746 HIT:      35773 MISS:       5973
LLC PREFETCH     ACCESS:      34836 HIT:      17687 MISS:      17149
LLC WRITE        ACCESS:      49428 HIT:      42494 MISS:       6934
LLC TRANSLATION  ACCESS:        936 HIT:        168 MISS:        768
LLC PREFETCH REQUESTED:          0 ISSUED:          0 USEFUL:          0 USELESS:          0
LLC AVERAGE MISS LATENCY: 131 cycles
cpu0_DTLB TOTAL        ACCESS:   13332504 HIT:   13318726 MISS:      13778
cpu0_DTLB LOAD         ACCESS:   13332504 HIT:   13318726 MISS:      13778
cpu0_DTLB RFO          ACCESS:          0 HIT:          0 MISS:          0
cpu0_DTLB PREFETCH     ACCESS:          0 HIT:          0 MISS:          0
cpu0_DTLB WRITE        ACCESS:          0 HIT:          0 MISS:          0
cpu0_DTLB TRANSLATION  ACCESS:          0 HIT:          0 MISS:          0
cpu0_DTLB PREFETCH REQUESTED:          0 ISSUED:          0 USEFUL:          0 USELESS:          0
cpu0_DTLB AVERAGE MISS LATENCY: 11.48 cycles
cpu0_ITLB TOTAL        ACCESS:     270801 HIT:     264895 MISS:       5906
cpu0_ITLB LOAD         ACCESS:     270801 HIT:     264895 MISS:       5906
cpu0_ITLB RFO          ACCESS:          0 HIT:          0 MISS:          0
cpu0_ITLB PREFETCH     ACCESS:          0 HIT:          0 MISS:          0
cpu0_ITLB WRITE        ACCESS:          0 HIT:          0 MISS:          0
cpu0_ITLB TRANSLATION  ACCESS:          0 HIT:          0 MISS:          0
cpu0_ITLB PREFETCH REQUESTED:          0 ISSUED:          0 USEFUL:          0 USELESS:          0
cpu0_ITLB AVERAGE MISS LATENCY: 21.06 cycles
cpu0_L1D TOTAL        ACCESS:   21632424 HIT:   21445222 MISS:     187202
cpu0_L1D LOAD         ACCESS:   13936185 HIT:   13886069 MISS:      50116
cpu0_L1D RFO          ACCESS:          0 HIT:          0 MISS:          0
cpu0_L1D PREFETCH     ACCESS:     150228 HIT:     122336 MISS:      27892
cpu0_L1D WRITE        ACCESS:    7544219 HIT:    7436217 MISS:     108002
cpu0_L1D TRANSLATION  ACCESS:       1792 HIT:        600 MISS:       1192
cpu0_L1D PREFETCH REQUESTED:     941119 ISSUED:     150238 USEFUL:       3242 USELESS:        354
cpu0_L1D AVERAGE MISS LATENCY: 23.88 cycles
cpu0_L1I TOTAL        ACCESS:     394217 HIT:     325174 MISS:      69043
cpu0_L1I LOAD         ACCESS:     130362 HIT:     112452 MISS:      17910
cpu0_L1I RFO          ACCESS:          0 HIT:          0 MISS:          0
cpu0_L1I PREFETCH     ACCESS:     263855 HIT:     212722 MISS:      51133
cpu0_L1I WRITE        ACCESS:          0 HIT:          0 MISS:          0
cpu0_L1I TRANSLATION  ACCESS:          0 HIT:          0 MISS:          0
cpu0_L1I PREFETCH REQUESTED:     405421 ISSUED:     263855 USEFUL:      26724 USELESS:      21574
cpu0_L1I AVERAGE MISS LATENCY: 28 cycles
cpu0_L2C TOTAL        ACCESS:     325538 HIT:     204999 MISS:     120539
cpu0_L2C LOAD         ACCESS:      45415 HIT:      26455 MISS:      18960
cpu0_L2C RFO          ACCESS:      45215 HIT:       3459 MISS:      41756
cpu0_L2C PREFETCH     ACCESS:     182029 HIT:     123142 MISS:      58887
cpu0_L2C WRITE        ACCESS:      51716 HIT:      51716 MISS:          0
cpu0_L2C TRANSLATION  ACCESS:       1163 HIT:        227 MISS:        936
cpu0_L2C PREFETCH REQUESTED:     115713 ISSUED:     111773 USEFUL:       8391 USELESS:       7763
cpu0_L2C AVERAGE MISS LATENCY: 56.03 cycles
cpu0_STLB TOTAL        ACCESS:       9084 HIT:       7441 MISS:       1643
cpu0_STLB LOAD         ACCESS:       9084 HIT:       7441 MISS:       1643
cpu0_STLB RFO          ACCESS:          0 HIT:          0 MISS:          0
cpu0_STLB PREFETCH     ACCESS:          0 HIT:          0 MISS:          0
cpu0_STLB WRITE        ACCESS:          0 HIT:          0 MISS:          0
cpu0_STLB TRANSLATION  ACCESS:          0 HIT:          0 MISS:          0
cpu0_STLB PREFETCH REQUESTED:          0 ISSUED:          0 USEFUL:          0 USELESS:          0
cpu0_STLB AVERAGE MISS LATENCY: 145.4 cycles

DRAM Statistics

Channel 0 RQ ROW_BUFFER_HIT:       7921
  ROW_BUFFER_MISS:       8267
 AVG DBUS CONGESTED CYCLE: 3.837
WQ ROW_BUFFER_HIT: Channel 0 
  ROW_BUFFER_MISS:        707
  FULL:       2675

Channel 1 RQ ROW_BUFFER_HIT:       7720
  ROW_BUFFER_MISS:       8095
 AVG DBUS CONGESTED CYCLE: 3.831
WQ ROW_BUFFER_HIT: Channel 1 
  ROW_BUFFER_MISS:        614
  FULL:       2575
BERTI TO_L1: 608766 TO_L2: 844656 TO_L2_BC_MSHR: 391877
BERTI AVG_LAT: 48.6855 NUM_TRACK_LATENCY: 67883 NUM_CANT_TRACK_LATENCY: 0
BERTI CROSS_PAGE 287758 NO_CROSS_PAGE: 1165664
BERTI FOUND_BERTI: 315766 NO_FOUND_BERTI: 18097733
BERTI AVERAGE_ISSUED: 4.39928
CPU 0 L1I Entangling prefetcher final stats
IP accesses: 1f30 7cc00 800 / 130981
IP misses: 5dd9 177640 83 / 18529
IP hits: 0 0 0 / 0
IP late: 20a3 828c0 21 / 8559
IP wrong: 7cde 1f3780 75 / 21485
miss rate: 0.141464
coverage: 0
coverage_late: 0.461925
accuracy: 0
accuracy_late: 0.284883
discarded: 0
evicts entangled j table: 0
evicts entangled k table: 2926
max bb size: 53
formats: 757 0 2506 1314 590 1330 0 
hist_lookups: 2731 2666 1871 1692 1388 1161 888 693 487 388 303 198 120 52 31 0 3 3452 
hist_lookups_evict: 0.0165527 %
hist_lookups_shortlat: 19.0466 %
bb_found_hist: 0 32137 12864 7087 2969 1574 713 465 174 46 0 51 35 20 11 13 1 0 0 0 1 3 0 0 0 0 0 0 0 0 0 1 1 0 1 0 0 0 0 0 0 0 0 0 0 0 0 0 0 0 0 0 0 0 0 0 0 0 0 0 0 0 0 0 
bb_found_summary: 109997 58167 1.89106
entangled_found_hist: 0 16680 11633 24313 3825 841 391 0 
entangled_found_summary: 134736 57683 2.33581
bb_ent_found_hist: 0 43944 20696 13803 5477 3185 1424 578 654 26 0 172 50 24 11 35 130 0 0 0 1 6 0 0 0 0 0 0 0 0 0 1 1 0 1 0 0 0 0 0 0 0 0 0 0 0 0 0 0 0 0 0 0 0 0 0 0 0 0 0 0 0 0 0 
bb_ent_found_summary: 188440 90219 2.0887
