WARNING: physical memory size is smaller than virtual memory size.

*** ChampSim Multicore Out-of-Order Simulator ***
Warmup Instructions: 30000000
Simulation Instructions: 100000000
Number of CPUs: 1
Page size: 4096

BTB:
Basic BTB sets: 1024 ways: 8
Indirect:
history lengths: 0 0 10 16 27 44 60 96 109 219 449 487 714 1313 2146 3881 
ITTAGE tables: 64768 bytes;Region table: 240 bytes;IUM: 384 bytes;Total Storage= 65392 bytes;
RAS:
RAS size: 64
[LLC] Demand IPV: 1 2 2 1 4 Prefetch IPV: 1 2 1 1 4
Berti Prefetcher
CPU 0 Entangling prefetcher
Off-chip DRAM Size: 8 GiB Channels: 2 Width: 64-bit Data Race: 6400 MT/s
Heartbeat CPU 0 instructions: 10000005 cycles: 1714784 heartbeat IPC: 5.832 cumulative IPC: 5.832 (Simulation time: 00 hr 00 min 32 sec)
Heartbeat CPU 0 instructions: 20000005 cycles: 3431539 heartbeat IPC: 5.825 cumulative IPC: 5.828 (Simulation time: 00 hr 01 min 05 sec)
Heartbeat CPU 0 instructions: 30000006 cycles: 5098275 heartbeat IPC: 6 cumulative IPC: 5.884 (Simulation time: 00 hr 01 min 36 sec)
Warmup finished CPU 0 instructions: 30000006 cycles: 5098276 cumulative IPC: 5.884 (Simulation time: 00 hr 01 min 36 sec)
Warmup complete CPU 0 instructions: 30000006 cycles: 5098276 cumulative IPC: 5.884 (Simulation time: 00 hr 01 min 36 sec)
Heartbeat CPU 0 instructions: 40000004 cycles: 6766025 heartbeat IPC: 5.996 cumulative IPC: 5.996 (Simulation time: 00 hr 02 min 11 sec)
Heartbeat CPU 0 instructions: 50000004 cycles: 8432692 heartbeat IPC: 6 cumulative IPC: 5.998 (Simulation time: 00 hr 02 min 46 sec)
*** Reached end of trace: (0, "../traces/secret_traces/crypto/crypto41.champsimtrace.xz")
Heartbeat CPU 0 instructions: 60000004 cycles: 10548491 heartbeat IPC: 4.726 cumulative IPC: 5.504 (Simulation time: 00 hr 03 min 24 sec)
Heartbeat CPU 0 instructions: 70000000 cycles: 12423378 heartbeat IPC: 5.334 cumulative IPC: 5.461 (Simulation time: 00 hr 04 min 02 sec)
Heartbeat CPU 0 instructions: 80000000 cycles: 14552162 heartbeat IPC: 4.698 cumulative IPC: 5.289 (Simulation time: 00 hr 04 min 41 sec)
Heartbeat CPU 0 instructions: 90000000 cycles: 16231802 heartbeat IPC: 5.954 cumulative IPC: 5.389 (Simulation time: 00 hr 05 min 18 sec)
Heartbeat CPU 0 instructions: 100000000 cycles: 17899527 heartbeat IPC: 5.996 cumulative IPC: 5.468 (Simulation time: 00 hr 05 min 53 sec)
Heartbeat CPU 0 instructions: 110000001 cycles: 19567453 heartbeat IPC: 5.995 cumulative IPC: 5.529 (Simulation time: 00 hr 06 min 28 sec)
*** Reached end of trace: (0, "../traces/secret_traces/crypto/crypto41.champsimtrace.xz")
Heartbeat CPU 0 instructions: 120000000 cycles: 21704741 heartbeat IPC: 4.679 cumulative IPC: 5.42 (Simulation time: 00 hr 07 min 08 sec)
Heartbeat CPU 0 instructions: 130000000 cycles: 23419092 heartbeat IPC: 5.833 cumulative IPC: 5.458 (Simulation time: 00 hr 07 min 43 sec)
Simulation finished CPU 0 instructions: 100000006 cycles: 18320818 cumulative IPC: 5.458 (Simulation time: 00 hr 07 min 43 sec)
Simulation complete CPU 0 instructions: 100000006 cycles: 18320818 cumulative IPC: 5.458 (Simulation time: 00 hr 07 min 43 sec)

ChampSim completed all CPUs

=== Simulation ===
CPU 0 runs ../traces/secret_traces/crypto/crypto41.champsimtrace.xz
Region of Interest Statistics

CPU 0 cumulative IPC: 5.458 instructions: 100000006 cycles: 18320818
CPU 0 Branch Prediction Accuracy: 99.65% MPKI: 0.4342 Average ROB Occupancy at Mispredict: 27.79
Branch type MPKI
BRANCH_DIRECT_JUMP: 0.0225
BRANCH_INDIRECT: 0.214
BRANCH_CONDITIONAL: 0.0929
BRANCH_DIRECT_CALL: 0.062
BRANCH_INDIRECT_CALL: 0.00828
BRANCH_RETURN: 0.0341

LLC TOTAL        ACCESS:     153997 HIT:     114133 MISS:      39864
LLC LOAD         ACCESS:      16717 HIT:       8357 MISS:       8360
LLC RFO          ACCESS:      46520 HIT:      40595 MISS:       5925
LLC PREFETCH     ACCESS:      37230 HIT:      19136 MISS:      18094
LLC WRITE        ACCESS:      52568 HIT:      45867 MISS:       6701
LLC TRANSLATION  ACCESS:        962 HIT:        178 MISS:        784
LLC PREFETCH REQUESTED:          0 ISSUED:          0 USEFUL:          0 USELESS:          0
LLC AVERAGE MISS LATENCY: 136.3 cycles
cpu0_DTLB TOTAL        ACCESS:   12320793 HIT:   12305369 MISS:      15424
cpu0_DTLB LOAD         ACCESS:   12320793 HIT:   12305369 MISS:      15424
cpu0_DTLB RFO          ACCESS:          0 HIT:          0 MISS:          0
cpu0_DTLB PREFETCH     ACCESS:          0 HIT:          0 MISS:          0
cpu0_DTLB WRITE        ACCESS:          0 HIT:          0 MISS:          0
cpu0_DTLB TRANSLATION  ACCESS:          0 HIT:          0 MISS:          0
cpu0_DTLB PREFETCH REQUESTED:          0 ISSUED:          0 USEFUL:          0 USELESS:          0
cpu0_DTLB AVERAGE MISS LATENCY: 11.66 cycles
cpu0_ITLB TOTAL        ACCESS:     297838 HIT:     291704 MISS:       6134
cpu0_ITLB LOAD         ACCESS:     297838 HIT:     291704 MISS:       6134
cpu0_ITLB RFO          ACCESS:          0 HIT:          0 MISS:          0
cpu0_ITLB PREFETCH     ACCESS:          0 HIT:          0 MISS:          0
cpu0_ITLB WRITE        ACCESS:          0 HIT:          0 MISS:          0
cpu0_ITLB TRANSLATION  ACCESS:          0 HIT:          0 MISS:          0
cpu0_ITLB PREFETCH REQUESTED:          0 ISSUED:          0 USEFUL:          0 USELESS:          0
cpu0_ITLB AVERAGE MISS LATENCY: 20.36 cycles
cpu0_L1D TOTAL        ACCESS:   19470766 HIT:   19257964 MISS:     212802
cpu0_L1D LOAD         ACCESS:    9325836 HIT:    9267875 MISS:      57961
cpu0_L1D RFO          ACCESS:          0 HIT:          0 MISS:          0
cpu0_L1D PREFETCH     ACCESS:     256299 HIT:     216820 MISS:      39479
cpu0_L1D WRITE        ACCESS:    9886597 HIT:    9772543 MISS:     114054
cpu0_L1D TRANSLATION  ACCESS:       2034 HIT:        726 MISS:       1308
cpu0_L1D PREFETCH REQUESTED:    1195374 ISSUED:     256299 USEFUL:       3767 USELESS:        564
cpu0_L1D AVERAGE MISS LATENCY: 22.91 cycles
cpu0_L1I TOTAL        ACCESS:     432288 HIT:     360990 MISS:      71298
cpu0_L1I LOAD         ACCESS:     142714 HIT:     124304 MISS:      18410
cpu0_L1I RFO          ACCESS:          0 HIT:          0 MISS:          0
cpu0_L1I PREFETCH     ACCESS:     289574 HIT:     236686 MISS:      52888
cpu0_L1I WRITE        ACCESS:          0 HIT:          0 MISS:          0
cpu0_L1I TRANSLATION  ACCESS:          0 HIT:          0 MISS:          0
cpu0_L1I PREFETCH REQUESTED:     437568 ISSUED:     289574 USEFUL:      28624 USELESS:      21448
cpu0_L1I AVERAGE MISS LATENCY: 28.33 cycles
cpu0_L2C TOTAL        ACCESS:     369416 HIT:     238928 MISS:     130488
cpu0_L2C LOAD         ACCESS:      51115 HIT:      30765 MISS:      20350
cpu0_L2C RFO          ACCESS:      49661 HIT:       3123 MISS:      46538
cpu0_L2C PREFETCH     ACCESS:     209497 HIT:     146859 MISS:      62638
cpu0_L2C WRITE        ACCESS:      57905 HIT:      57905 MISS:          0
cpu0_L2C TRANSLATION  ACCESS:       1238 HIT:        276 MISS:        962
cpu0_L2C PREFETCH REQUESTED:     133333 ISSUED:     127279 USEFUL:       9098 USELESS:       8775
cpu0_L2C AVERAGE MISS LATENCY: 55.33 cycles
cpu0_STLB TOTAL        ACCESS:      10125 HIT:       8246 MISS:       1879
cpu0_STLB LOAD         ACCESS:      10125 HIT:       8246 MISS:       1879
cpu0_STLB RFO          ACCESS:          0 HIT:          0 MISS:          0
cpu0_STLB PREFETCH     ACCESS:          0 HIT:          0 MISS:          0
cpu0_STLB WRITE        ACCESS:          0 HIT:          0 MISS:          0
cpu0_STLB TRANSLATION  ACCESS:          0 HIT:          0 MISS:          0
cpu0_STLB PREFETCH REQUESTED:          0 ISSUED:          0 USEFUL:          0 USELESS:          0
cpu0_STLB AVERAGE MISS LATENCY: 136.4 cycles

DRAM Statistics

Channel 0 RQ ROW_BUFFER_HIT:       7895
  ROW_BUFFER_MISS:       8931
 AVG DBUS CONGESTED CYCLE: 3.834
WQ ROW_BUFFER_HIT: Channel 0 
  ROW_BUFFER_MISS:        684
  FULL:       2800

Channel 1 RQ ROW_BUFFER_HIT:       7730
  ROW_BUFFER_MISS:       8602
 AVG DBUS CONGESTED CYCLE: 3.831
WQ ROW_BUFFER_HIT: Channel 1 
  ROW_BUFFER_MISS:        606
  FULL:       2684
BERTI TO_L1: 797222 TO_L2: 888204 TO_L2_BC_MSHR: 383799
BERTI AVG_LAT: 48.6045 NUM_TRACK_LATENCY: 73888 NUM_CANT_TRACK_LATENCY: 0
BERTI CROSS_PAGE 316830 NO_CROSS_PAGE: 1368596
BERTI FOUND_BERTI: 386301 NO_FOUND_BERTI: 12265573
BERTI AVERAGE_ISSUED: 4.23003
CPU 0 L1I Entangling prefetcher final stats
IP accesses: 6f71 1bdc40 887 / 143219
IP misses: 20b9 82e40 116 / 18915
IP hits: 0 0 0 / 0
IP late: 381c e0700 26 / 8851
IP wrong: f801 3e0040 47 / 21349
miss rate: 0.132071
coverage: 0
coverage_late: 0.467936
accuracy: 0
accuracy_late: 0.29308
discarded: 0
evicts entangled j table: 0
evicts entangled k table: 2982
max bb size: 53
formats: 662 0 2684 1398 572 1362 0 
hist_lookups: 2617 2662 1892 1730 1473 1224 972 707 492 388 283 212 120 58 17 0 12 3245 
hist_lookups_evict: 0.0662837 %
hist_lookups_shortlat: 17.9243 %
bb_found_hist: 0 35325 14646 7773 3303 1681 748 526 185 47 0 53 36 20 12 15 2 4 0 0 0 2 0 0 0 0 0 0 0 0 0 2 0 0 2 0 0 0 0 0 0 0 0 0 0 0 0 0 0 0 0 0 0 2 0 0 0 0 0 0 0 0 0 0 
bb_found_summary: 121672 64384 1.88979
entangled_found_hist: 0 19896 12751 24211 5206 743 224 0 
entangled_found_summary: 143914 63031 2.28323
bb_ent_found_hist: 0 48958 20620 14801 5912 3541 1226 792 714 24 0 44 46 25 10 34 130 2 0 0 0 6 0 0 0 0 0 0 0 0 0 2 0 0 3 0 0 0 0 0 0 0 0 0 0 0 0 0 0 0 0 0 0 3 0 0 0 0 0 0 0 0 0 0 
bb_ent_found_summary: 199356 96893 2.05749
