WARNING: physical memory size is smaller than virtual memory size.

*** ChampSim Multicore Out-of-Order Simulator ***
Warmup Instructions: 30000000
Simulation Instructions: 100000000
Number of CPUs: 1
Page size: 4096

BTB:
Basic BTB sets: 1024 ways: 8
Indirect:
history lengths: 0 0 10 16 27 44 60 96 109 219 449 487 714 1313 2146 3881 
ITTAGE tables: 64768 bytes;Region table: 240 bytes;IUM: 384 bytes;Total Storage= 65392 bytes;
RAS:
RAS size: 64
[LLC] Demand IPV: 1 2 2 1 4 Prefetch IPV: 1 2 1 1 4
Berti Prefetcher
CPU 0 Entangling prefetcher
Off-chip DRAM Size: 8 GiB Channels: 2 Width: 64-bit Data Race: 6400 MT/s
Heartbeat CPU 0 instructions: 10000003 cycles: 1715536 heartbeat IPC: 5.829 cumulative IPC: 5.829 (Simulation time: 00 hr 00 min 32 sec)
Heartbeat CPU 0 instructions: 20000002 cycles: 3431844 heartbeat IPC: 5.826 cumulative IPC: 5.828 (Simulation time: 00 hr 01 min 04 sec)
Heartbeat CPU 0 instructions: 30000006 cycles: 5098613 heartbeat IPC: 6 cumulative IPC: 5.884 (Simulation time: 00 hr 01 min 35 sec)
Warmup finished CPU 0 instructions: 30000006 cycles: 5098614 cumulative IPC: 5.884 (Simulation time: 00 hr 01 min 35 sec)
Warmup complete CPU 0 instructions: 30000006 cycles: 5098614 cumulative IPC: 5.884 (Simulation time: 00 hr 01 min 35 sec)
Heartbeat CPU 0 instructions: 40000004 cycles: 6766223 heartbeat IPC: 5.997 cumulative IPC: 5.997 (Simulation time: 00 hr 02 min 10 sec)
Heartbeat CPU 0 instructions: 50000000 cycles: 8432884 heartbeat IPC: 6 cumulative IPC: 5.998 (Simulation time: 00 hr 02 min 45 sec)
*** Reached end of trace: (0, "../traces/secret_traces/crypto/crypto3.champsimtrace.xz")
Heartbeat CPU 0 instructions: 60000004 cycles: 10805969 heartbeat IPC: 4.214 cumulative IPC: 5.256 (Simulation time: 00 hr 03 min 26 sec)
Heartbeat CPU 0 instructions: 70000007 cycles: 12472637 heartbeat IPC: 6 cumulative IPC: 5.424 (Simulation time: 00 hr 04 min 01 sec)
Heartbeat CPU 0 instructions: 80000003 cycles: 14613774 heartbeat IPC: 4.67 cumulative IPC: 5.255 (Simulation time: 00 hr 04 min 41 sec)
Heartbeat CPU 0 instructions: 90000000 cycles: 16294477 heartbeat IPC: 5.95 cumulative IPC: 5.359 (Simulation time: 00 hr 05 min 16 sec)
Heartbeat CPU 0 instructions: 100000004 cycles: 17961928 heartbeat IPC: 5.997 cumulative IPC: 5.442 (Simulation time: 00 hr 05 min 51 sec)
*** Reached end of trace: (0, "../traces/secret_traces/crypto/crypto3.champsimtrace.xz")
Heartbeat CPU 0 instructions: 110000004 cycles: 20138116 heartbeat IPC: 4.595 cumulative IPC: 5.319 (Simulation time: 00 hr 06 min 31 sec)
Heartbeat CPU 0 instructions: 120000000 cycles: 21853446 heartbeat IPC: 5.83 cumulative IPC: 5.372 (Simulation time: 00 hr 07 min 06 sec)
Heartbeat CPU 0 instructions: 130000003 cycles: 23923502 heartbeat IPC: 4.831 cumulative IPC: 5.312 (Simulation time: 00 hr 07 min 46 sec)
Simulation finished CPU 0 instructions: 100000008 cycles: 18824891 cumulative IPC: 5.312 (Simulation time: 00 hr 07 min 46 sec)
Simulation complete CPU 0 instructions: 100000008 cycles: 18824891 cumulative IPC: 5.312 (Simulation time: 00 hr 07 min 46 sec)

ChampSim completed all CPUs

=== Simulation ===
CPU 0 runs ../traces/secret_traces/crypto/crypto3.champsimtrace.xz
Region of Interest Statistics

CPU 0 cumulative IPC: 5.312 instructions: 100000008 cycles: 18824891
CPU 0 Branch Prediction Accuracy: 99.49% MPKI: 0.5588 Average ROB Occupancy at Mispredict: 29.68
Branch type MPKI
BRANCH_DIRECT_JUMP: 0.0293
BRANCH_INDIRECT: 0.273
BRANCH_CONDITIONAL: 0.112
BRANCH_DIRECT_CALL: 0.0859
BRANCH_INDIRECT_CALL: 0.011
BRANCH_RETURN: 0.0471

LLC TOTAL        ACCESS:     230286 HIT:     170838 MISS:      59448
LLC LOAD         ACCESS:      25421 HIT:      12297 MISS:      13124
LLC RFO          ACCESS:      71293 HIT:      61685 MISS:       9608
LLC PREFETCH     ACCESS:      54160 HIT:      27652 MISS:      26508
LLC WRITE        ACCESS:      78049 HIT:      68961 MISS:       9088
LLC TRANSLATION  ACCESS:       1363 HIT:        243 MISS:       1120
LLC PREFETCH REQUESTED:          0 ISSUED:          0 USEFUL:          0 USELESS:          0
LLC AVERAGE MISS LATENCY: 130.7 cycles
cpu0_DTLB TOTAL        ACCESS:   11168985 HIT:   11146577 MISS:      22408
cpu0_DTLB LOAD         ACCESS:   11168985 HIT:   11146577 MISS:      22408
cpu0_DTLB RFO          ACCESS:          0 HIT:          0 MISS:          0
cpu0_DTLB PREFETCH     ACCESS:          0 HIT:          0 MISS:          0
cpu0_DTLB WRITE        ACCESS:          0 HIT:          0 MISS:          0
cpu0_DTLB TRANSLATION  ACCESS:          0 HIT:          0 MISS:          0
cpu0_DTLB PREFETCH REQUESTED:          0 ISSUED:          0 USEFUL:          0 USELESS:          0
cpu0_DTLB AVERAGE MISS LATENCY: 10.62 cycles
cpu0_ITLB TOTAL        ACCESS:     386380 HIT:     378138 MISS:       8242
cpu0_ITLB LOAD         ACCESS:     386380 HIT:     378138 MISS:       8242
cpu0_ITLB RFO          ACCESS:          0 HIT:          0 MISS:          0
cpu0_ITLB PREFETCH     ACCESS:          0 HIT:          0 MISS:          0
cpu0_ITLB WRITE        ACCESS:          0 HIT:          0 MISS:          0
cpu0_ITLB TRANSLATION  ACCESS:          0 HIT:          0 MISS:          0
cpu0_ITLB PREFETCH REQUESTED:          0 ISSUED:          0 USEFUL:          0 USELESS:          0
cpu0_ITLB AVERAGE MISS LATENCY: 19.84 cycles
cpu0_L1D TOTAL        ACCESS:   17302227 HIT:   16977747 MISS:     324480
cpu0_L1D LOAD         ACCESS:   11146186 HIT:   11060384 MISS:      85802
cpu0_L1D RFO          ACCESS:          0 HIT:          0 MISS:          0
cpu0_L1D PREFETCH     ACCESS:     281587 HIT:     231620 MISS:      49967
cpu0_L1D WRITE        ACCESS:    5871673 HIT:    5684758 MISS:     186915
cpu0_L1D TRANSLATION  ACCESS:       2781 HIT:        985 MISS:       1796
cpu0_L1D PREFETCH REQUESTED:    1591467 ISSUED:     281587 USEFUL:       5629 USELESS:        623
cpu0_L1D AVERAGE MISS LATENCY: 22.57 cycles
cpu0_L1I TOTAL        ACCESS:     562038 HIT:     465598 MISS:      96440
cpu0_L1I LOAD         ACCESS:     186868 HIT:     162380 MISS:      24488
cpu0_L1I RFO          ACCESS:          0 HIT:          0 MISS:          0
cpu0_L1I PREFETCH     ACCESS:     375170 HIT:     303218 MISS:      71952
cpu0_L1I WRITE        ACCESS:          0 HIT:          0 MISS:          0
cpu0_L1I TRANSLATION  ACCESS:          0 HIT:          0 MISS:          0
cpu0_L1I PREFETCH REQUESTED:     584148 ISSUED:     375170 USEFUL:      39057 USELESS:      29193
cpu0_L1I AVERAGE MISS LATENCY: 28.62 cycles
cpu0_L2C TOTAL        ACCESS:     522002 HIT:     322725 MISS:     199277
cpu0_L2C LOAD         ACCESS:      72306 HIT:      41120 MISS:      31186
cpu0_L2C RFO          ACCESS:      77512 HIT:       6201 MISS:      71311
cpu0_L2C PREFETCH     ACCESS:     281982 HIT:     186565 MISS:      95417
cpu0_L2C WRITE        ACCESS:      88465 HIT:      88465 MISS:          0
cpu0_L2C TRANSLATION  ACCESS:       1737 HIT:        374 MISS:       1363
cpu0_L2C PREFETCH REQUESTED:     180395 ISSUED:     173893 USEFUL:      13012 USELESS:      13530
cpu0_L2C AVERAGE MISS LATENCY: 52.61 cycles
cpu0_STLB TOTAL        ACCESS:      13573 HIT:      11041 MISS:       2532
cpu0_STLB LOAD         ACCESS:      13573 HIT:      11041 MISS:       2532
cpu0_STLB RFO          ACCESS:          0 HIT:          0 MISS:          0
cpu0_STLB PREFETCH     ACCESS:          0 HIT:          0 MISS:          0
cpu0_STLB WRITE        ACCESS:          0 HIT:          0 MISS:          0
cpu0_STLB TRANSLATION  ACCESS:          0 HIT:          0 MISS:          0
cpu0_STLB PREFETCH REQUESTED:          0 ISSUED:          0 USEFUL:          0 USELESS:          0
cpu0_STLB AVERAGE MISS LATENCY: 134.6 cycles

DRAM Statistics

Channel 0 RQ ROW_BUFFER_HIT:      13190
  ROW_BUFFER_MISS:      12325
 AVG DBUS CONGESTED CYCLE: 3.835
WQ ROW_BUFFER_HIT: Channel 0 
  ROW_BUFFER_MISS:        935
  FULL:       3915

Channel 1 RQ ROW_BUFFER_HIT:      12641
  ROW_BUFFER_MISS:      12193
 AVG DBUS CONGESTED CYCLE: 3.828
WQ ROW_BUFFER_HIT: Channel 1 
  ROW_BUFFER_MISS:        863
  FULL:       3699
BERTI TO_L1: 809295 TO_L2: 1274858 TO_L2_BC_MSHR: 625129
BERTI AVG_LAT: 53.0559 NUM_TRACK_LATENCY: 93562 NUM_CANT_TRACK_LATENCY: 0
BERTI CROSS_PAGE 404387 NO_CROSS_PAGE: 1679766
BERTI FOUND_BERTI: 452212 NO_FOUND_BERTI: 14423304
BERTI AVERAGE_ISSUED: 4.116
CPU 0 L1I Entangling prefetcher final stats
IP accesses: 6f71 1bdc40 887 / 187662
IP misses: 683f 1a0fc0 138 / 25282
IP hits: 0 0 0 / 0
IP late: f800 3e0000 27 / 11845
IP wrong: f801 3e0040 63 / 29081
miss rate: 0.134721
coverage: 0
coverage_late: 0.468516
accuracy: 0
accuracy_late: 0.289425
discarded: 0
evicts entangled j table: 0
evicts entangled k table: 4038
max bb size: 53
formats: 1002 0 3532 1700 732 1606 0 
hist_lookups: 3149 3360 2468 2261 1918 1667 1260 954 785 625 438 278 157 91 53 0 3 3895 
hist_lookups_evict: 0.0128414 %
hist_lookups_shortlat: 16.6724 %
bb_found_hist: 0 46431 19504 10128 4271 2250 1014 715 264 48 15 70 60 46 15 20 2 0 0 0 0 4 0 0 0 0 0 0 0 0 0 2 0 0 2 0 0 0 0 0 0 0 0 0 0 0 0 0 0 0 0 0 0 2 0 0 0 0 0 0 0 0 0 0 
bb_found_summary: 160890 84863 1.89588
entangled_found_hist: 0 25415 17823 33204 6539 1168 211 0 
entangled_found_summary: 193935 84360 2.2989
bb_ent_found_hist: 0 65459 28216 19029 7673 5069 2460 1043 983 22 57 82 80 21 17 52 85 0 0 0 0 9 0 0 0 0 0 0 0 0 0 2 0 0 3 0 0 0 0 0 0 0 0 0 0 0 0 0 0 0 0 0 0 2 0 0 0 0 0 0 0 0 0 0 
bb_ent_found_summary: 270680 130364 2.07635
