WARNING: physical memory size is smaller than virtual memory size.

*** ChampSim Multicore Out-of-Order Simulator ***
Warmup Instructions: 30000000
Simulation Instructions: 100000000
Number of CPUs: 1
Page size: 4096

BTB:
Basic BTB sets: 1024 ways: 8
Indirect:
history lengths: 0 0 10 16 27 44 60 96 109 219 449 487 714 1313 2146 3881 
ITTAGE tables: 64768 bytes;Region table: 240 bytes;IUM: 384 bytes;Total Storage= 65392 bytes;
RAS:
RAS size: 64
[LLC] Demand IPV: 1 2 2 1 4 Prefetch IPV: 1 2 1 1 4
Berti Prefetcher
CPU 0 Entangling prefetcher
Off-chip DRAM Size: 8 GiB Channels: 2 Width: 64-bit Data Race: 6400 MT/s
Heartbeat CPU 0 instructions: 10000001 cycles: 1716618 heartbeat IPC: 5.825 cumulative IPC: 5.825 (Simulation time: 00 hr 00 min 33 sec)
*** Reached end of trace: (0, "../traces/secret_traces/crypto/crypto35.champsimtrace.xz")
Heartbeat CPU 0 instructions: 20000009 cycles: 3409764 heartbeat IPC: 5.906 cumulative IPC: 5.866 (Simulation time: 00 hr 01 min 05 sec)
Heartbeat CPU 0 instructions: 30000001 cycles: 5105363 heartbeat IPC: 5.898 cumulative IPC: 5.876 (Simulation time: 00 hr 01 min 37 sec)
Warmup finished CPU 0 instructions: 30000001 cycles: 5105364 cumulative IPC: 5.876 (Simulation time: 00 hr 01 min 37 sec)
Warmup complete CPU 0 instructions: 30000001 cycles: 5105364 cumulative IPC: 5.876 (Simulation time: 00 hr 01 min 37 sec)
*** Reached end of trace: (0, "../traces/secret_traces/crypto/crypto35.champsimtrace.xz")
Heartbeat CPU 0 instructions: 40000008 cycles: 7270437 heartbeat IPC: 4.619 cumulative IPC: 4.619 (Simulation time: 00 hr 02 min 22 sec)
Heartbeat CPU 0 instructions: 50000005 cycles: 9132774 heartbeat IPC: 5.37 cumulative IPC: 4.966 (Simulation time: 00 hr 03 min 11 sec)
*** Reached end of trace: (0, "../traces/secret_traces/crypto/crypto35.champsimtrace.xz")
Heartbeat CPU 0 instructions: 60000003 cycles: 11284788 heartbeat IPC: 4.647 cumulative IPC: 4.855 (Simulation time: 00 hr 03 min 57 sec)
Heartbeat CPU 0 instructions: 70000002 cycles: 13123109 heartbeat IPC: 5.44 cumulative IPC: 4.989 (Simulation time: 00 hr 04 min 40 sec)
*** Reached end of trace: (0, "../traces/secret_traces/crypto/crypto35.champsimtrace.xz")
Heartbeat CPU 0 instructions: 80000000 cycles: 15261389 heartbeat IPC: 4.677 cumulative IPC: 4.923 (Simulation time: 00 hr 05 min 25 sec)
*** Reached end of trace: (0, "../traces/secret_traces/crypto/crypto35.champsimtrace.xz")
Heartbeat CPU 0 instructions: 90000002 cycles: 17262042 heartbeat IPC: 4.998 cumulative IPC: 4.936 (Simulation time: 00 hr 06 min 09 sec)
Heartbeat CPU 0 instructions: 100000001 cycles: 19233245 heartbeat IPC: 5.073 cumulative IPC: 4.955 (Simulation time: 00 hr 06 min 53 sec)
*** Reached end of trace: (0, "../traces/secret_traces/crypto/crypto35.champsimtrace.xz")
Heartbeat CPU 0 instructions: 110000008 cycles: 21344048 heartbeat IPC: 4.738 cumulative IPC: 4.927 (Simulation time: 00 hr 07 min 38 sec)
Heartbeat CPU 0 instructions: 120000000 cycles: 23203585 heartbeat IPC: 5.378 cumulative IPC: 4.973 (Simulation time: 00 hr 08 min 22 sec)
*** Reached end of trace: (0, "../traces/secret_traces/crypto/crypto35.champsimtrace.xz")
Heartbeat CPU 0 instructions: 130000001 cycles: 25312011 heartbeat IPC: 4.743 cumulative IPC: 4.949 (Simulation time: 00 hr 09 min 06 sec)
Simulation finished CPU 0 instructions: 100000000 cycles: 20206648 cumulative IPC: 4.949 (Simulation time: 00 hr 09 min 06 sec)
Simulation complete CPU 0 instructions: 100000000 cycles: 20206648 cumulative IPC: 4.949 (Simulation time: 00 hr 09 min 06 sec)

ChampSim completed all CPUs

=== Simulation ===
CPU 0 runs ../traces/secret_traces/crypto/crypto35.champsimtrace.xz
Region of Interest Statistics

CPU 0 cumulative IPC: 4.949 instructions: 100000000 cycles: 20206648
CPU 0 Branch Prediction Accuracy: 98.42% MPKI: 0.8771 Average ROB Occupancy at Mispredict: 28.54
Branch type MPKI
BRANCH_DIRECT_JUMP: 0.0452
BRANCH_INDIRECT: 0.5
BRANCH_CONDITIONAL: 0.0893
BRANCH_DIRECT_CALL: 0.145
BRANCH_INDIRECT_CALL: 0.0205
BRANCH_RETURN: 0.0773

LLC TOTAL        ACCESS:     198695 HIT:     196701 MISS:       1994
LLC LOAD         ACCESS:      25254 HIT:      25200 MISS:         54
LLC RFO          ACCESS:      55915 HIT:      55904 MISS:         11
LLC PREFETCH     ACCESS:      55069 HIT:      53361 MISS:       1708
LLC WRITE        ACCESS:      61615 HIT:      61608 MISS:          7
LLC TRANSLATION  ACCESS:        842 HIT:        628 MISS:        214
LLC PREFETCH REQUESTED:          0 ISSUED:          0 USEFUL:          0 USELESS:          0
LLC AVERAGE MISS LATENCY: 156.5 cycles
cpu0_DTLB TOTAL        ACCESS:   17027135 HIT:   17005359 MISS:      21776
cpu0_DTLB LOAD         ACCESS:   17027135 HIT:   17005359 MISS:      21776
cpu0_DTLB RFO          ACCESS:          0 HIT:          0 MISS:          0
cpu0_DTLB PREFETCH     ACCESS:          0 HIT:          0 MISS:          0
cpu0_DTLB WRITE        ACCESS:          0 HIT:          0 MISS:          0
cpu0_DTLB TRANSLATION  ACCESS:          0 HIT:          0 MISS:          0
cpu0_DTLB PREFETCH REQUESTED:          0 ISSUED:          0 USEFUL:          0 USELESS:          0
cpu0_DTLB AVERAGE MISS LATENCY: 5.403 cycles
cpu0_ITLB TOTAL        ACCESS:    1305534 HIT:    1293460 MISS:      12074
cpu0_ITLB LOAD         ACCESS:    1305534 HIT:    1293460 MISS:      12074
cpu0_ITLB RFO          ACCESS:          0 HIT:          0 MISS:          0
cpu0_ITLB PREFETCH     ACCESS:          0 HIT:          0 MISS:          0
cpu0_ITLB WRITE        ACCESS:          0 HIT:          0 MISS:          0
cpu0_ITLB TRANSLATION  ACCESS:          0 HIT:          0 MISS:          0
cpu0_ITLB PREFETCH REQUESTED:          0 ISSUED:          0 USEFUL:          0 USELESS:          0
cpu0_ITLB AVERAGE MISS LATENCY: 7.979 cycles
cpu0_L1D TOTAL        ACCESS:   33248184 HIT:   32928520 MISS:     319664
cpu0_L1D LOAD         ACCESS:   12930661 HIT:   12833385 MISS:      97276
cpu0_L1D RFO          ACCESS:          0 HIT:          0 MISS:          0
cpu0_L1D PREFETCH     ACCESS:   17379555 HIT:   17294322 MISS:      85233
cpu0_L1D WRITE        ACCESS:    2935873 HIT:    2799970 MISS:     135903
cpu0_L1D TRANSLATION  ACCESS:       2095 HIT:        843 MISS:       1252
cpu0_L1D PREFETCH REQUESTED:   18765685 ISSUED:   17379555 USEFUL:       6416 USELESS:       1839
cpu0_L1D AVERAGE MISS LATENCY: 10.51 cycles
cpu0_L1I TOTAL        ACCESS:    1853682 HIT:    1735279 MISS:     118403
cpu0_L1I LOAD         ACCESS:     496872 HIT:     473793 MISS:      23079
cpu0_L1I RFO          ACCESS:          0 HIT:          0 MISS:          0
cpu0_L1I PREFETCH     ACCESS:    1356810 HIT:    1261486 MISS:      95324
cpu0_L1I WRITE        ACCESS:          0 HIT:          0 MISS:          0
cpu0_L1I TRANSLATION  ACCESS:          0 HIT:          0 MISS:          0
cpu0_L1I PREFETCH REQUESTED:    1620373 ISSUED:    1356821 USEFUL:      59390 USELESS:      32569
cpu0_L1I AVERAGE MISS LATENCY: 15.72 cycles
cpu0_L2C TOTAL        ACCESS:     640737 HIT:     482427 MISS:     158310
cpu0_L2C LOAD         ACCESS:      79495 HIT:      53945 MISS:      25550
cpu0_L2C RFO          ACCESS:      69146 HIT:      13214 MISS:      55932
cpu0_L2C PREFETCH     ACCESS:     406645 HIT:     330659 MISS:      75986
cpu0_L2C WRITE        ACCESS:      84270 HIT:      84270 MISS:          0
cpu0_L2C TRANSLATION  ACCESS:       1181 HIT:        339 MISS:        842
cpu0_L2C PREFETCH REQUESTED:     251266 ISSUED:     234874 USEFUL:      11178 USELESS:      17118
cpu0_L2C AVERAGE MISS LATENCY: 19.49 cycles
cpu0_STLB TOTAL        ACCESS:      19225 HIT:      17283 MISS:       1942
cpu0_STLB LOAD         ACCESS:      19225 HIT:      17283 MISS:       1942
cpu0_STLB RFO          ACCESS:          0 HIT:          0 MISS:          0
cpu0_STLB PREFETCH     ACCESS:          0 HIT:          0 MISS:          0
cpu0_STLB WRITE        ACCESS:          0 HIT:          0 MISS:          0
cpu0_STLB TRANSLATION  ACCESS:          0 HIT:          0 MISS:          0
cpu0_STLB PREFETCH REQUESTED:          0 ISSUED:          0 USEFUL:          0 USELESS:          0
cpu0_STLB AVERAGE MISS LATENCY: 48.12 cycles

DRAM Statistics

Channel 0 RQ ROW_BUFFER_HIT:        126
  ROW_BUFFER_MISS:        948
 AVG DBUS CONGESTED CYCLE: 3.558
WQ ROW_BUFFER_HIT: Channel 0 
  ROW_BUFFER_MISS:          1
  FULL:         15

Channel 1 RQ ROW_BUFFER_HIT:        138
  ROW_BUFFER_MISS:        775
 AVG DBUS CONGESTED CYCLE: 3.65
WQ ROW_BUFFER_HIT: Channel 1 
  ROW_BUFFER_MISS:          0
  FULL:          1
BERTI TO_L1: 23275215 TO_L2: 1128723 TO_L2_BC_MSHR: 177356
BERTI AVG_LAT: 19.4562 NUM_TRACK_LATENCY: 98329 NUM_CANT_TRACK_LATENCY: 0
BERTI CROSS_PAGE 3451753 NO_CROSS_PAGE: 20952185
BERTI FOUND_BERTI: 2192471 NO_FOUND_BERTI: 14938477
BERTI AVERAGE_ISSUED: 13.5043
CPU 0 L1I Entangling prefetcher final stats
IP accesses: 1f30 7cc00 28158 / 497501
IP misses: f7cb 3df2c0 238 / 23708
IP hits: 0 0 0 / 0
IP late: 20a2 82880 58 / 11318
IP wrong: 251e 94780 89 / 32418
miss rate: 0.0476542
coverage: 0
coverage_late: 0.477392
accuracy: 0
accuracy_late: 0.25878
discarded: 0
evicts entangled j table: 0
evicts entangled k table: 4048
max bb size: 53
formats: 1166 0 3138 1575 585 1206 0 
hist_lookups: 2775 3055 2325 1995 1806 1620 1230 943 758 595 420 272 147 72 37 0 24 4750 
hist_lookups_evict: 0.105153 %
hist_lookups_shortlat: 20.8115 %
bb_found_hist: 0 141136 39884 19585 6908 15897 1467 1075 313 139 0 39 24 0 24 27 6 0 0 0 0 12 0 0 0 0 0 0 0 0 0 6 6 0 6 0 0 0 0 0 0 0 0 0 0 0 0 0 0 0 0 0 0 6 0 0 0 0 0 0 0 0 0 0 
bb_found_summary: 409564 226560 1.80776
entangled_found_hist: 0 64979 51432 116043 10717 1522 817 0 
entangled_found_summary: 571352 245510 2.32721
bb_ent_found_hist: 0 211484 66187 44835 19566 10875 1861 5450 1213 75 0 53 76 0 6 152 406 0 0 0 0 33 0 0 0 0 0 0 0 0 0 12 6 0 6 0 0 0 0 0 0 0 0 0 0 0 0 0 0 0 0 0 0 10 0 0 0 0 0 0 0 0 0 0 
bb_ent_found_summary: 683043 362306 1.88527
