WARNING: physical memory size is smaller than virtual memory size.

*** ChampSim Multicore Out-of-Order Simulator ***
Warmup Instructions: 30000000
Simulation Instructions: 100000000
Number of CPUs: 1
Page size: 4096

BTB:
Basic BTB sets: 1024 ways: 8
Indirect:
history lengths: 0 0 10 16 27 44 60 96 109 219 449 487 714 1313 2146 3881 
ITTAGE tables: 64768 bytes;Region table: 240 bytes;IUM: 384 bytes;Total Storage= 65392 bytes;
RAS:
RAS size: 64
[LLC] Demand IPV: 1 2 2 1 4 Prefetch IPV: 1 2 1 1 4
Berti Prefetcher
CPU 0 Entangling prefetcher
Off-chip DRAM Size: 8 GiB Channels: 2 Width: 64-bit Data Race: 6400 MT/s
Heartbeat CPU 0 instructions: 10000000 cycles: 1724511 heartbeat IPC: 5.799 cumulative IPC: 5.799 (Simulation time: 00 hr 00 min 32 sec)
Heartbeat CPU 0 instructions: 20000000 cycles: 3453208 heartbeat IPC: 5.785 cumulative IPC: 5.792 (Simulation time: 00 hr 01 min 12 sec)
Heartbeat CPU 0 instructions: 30000007 cycles: 5133593 heartbeat IPC: 5.951 cumulative IPC: 5.844 (Simulation time: 00 hr 01 min 52 sec)
Warmup finished CPU 0 instructions: 30000007 cycles: 5133594 cumulative IPC: 5.844 (Simulation time: 00 hr 01 min 52 sec)
Warmup complete CPU 0 instructions: 30000007 cycles: 5133594 cumulative IPC: 5.844 (Simulation time: 00 hr 01 min 52 sec)
Heartbeat CPU 0 instructions: 40000003 cycles: 6815857 heartbeat IPC: 5.944 cumulative IPC: 5.944 (Simulation time: 00 hr 02 min 34 sec)
Heartbeat CPU 0 instructions: 50000000 cycles: 8498699 heartbeat IPC: 5.942 cumulative IPC: 5.943 (Simulation time: 00 hr 03 min 11 sec)
Heartbeat CPU 0 instructions: 60000003 cycles: 10187862 heartbeat IPC: 5.92 cumulative IPC: 5.936 (Simulation time: 00 hr 03 min 48 sec)
Heartbeat CPU 0 instructions: 70000001 cycles: 11869370 heartbeat IPC: 5.947 cumulative IPC: 5.938 (Simulation time: 00 hr 04 min 25 sec)
Heartbeat CPU 0 instructions: 80000001 cycles: 13551279 heartbeat IPC: 5.946 cumulative IPC: 5.94 (Simulation time: 00 hr 04 min 58 sec)
Heartbeat CPU 0 instructions: 90000001 cycles: 15232610 heartbeat IPC: 5.948 cumulative IPC: 5.941 (Simulation time: 00 hr 05 min 30 sec)
Heartbeat CPU 0 instructions: 100000002 cycles: 16913779 heartbeat IPC: 5.948 cumulative IPC: 5.942 (Simulation time: 00 hr 06 min 03 sec)
Heartbeat CPU 0 instructions: 110000009 cycles: 18595261 heartbeat IPC: 5.947 cumulative IPC: 5.943 (Simulation time: 00 hr 06 min 39 sec)
Heartbeat CPU 0 instructions: 120000005 cycles: 20276608 heartbeat IPC: 5.948 cumulative IPC: 5.943 (Simulation time: 00 hr 07 min 12 sec)
Heartbeat CPU 0 instructions: 130000000 cycles: 21957757 heartbeat IPC: 5.948 cumulative IPC: 5.944 (Simulation time: 00 hr 07 min 48 sec)
Simulation finished CPU 0 instructions: 100000003 cycles: 16824165 cumulative IPC: 5.944 (Simulation time: 00 hr 07 min 48 sec)
Simulation complete CPU 0 instructions: 100000003 cycles: 16824165 cumulative IPC: 5.944 (Simulation time: 00 hr 07 min 48 sec)

ChampSim completed all CPUs

=== Simulation ===
CPU 0 runs ../traces/secret_traces/crypto/crypto69.champsimtrace.xz
Region of Interest Statistics

CPU 0 cumulative IPC: 5.944 instructions: 100000003 cycles: 16824165
CPU 0 Branch Prediction Accuracy: 99.99% MPKI: 0.00206 Average ROB Occupancy at Mispredict: 55.4
Branch type MPKI
BRANCH_DIRECT_JUMP: 7e-05
BRANCH_INDIRECT: 0.00083
BRANCH_CONDITIONAL: 0.00055
BRANCH_DIRECT_CALL: 0.00024
BRANCH_INDIRECT_CALL: 3e-05
BRANCH_RETURN: 0.00034

LLC TOTAL        ACCESS:        501 HIT:        236 MISS:        265
LLC LOAD         ACCESS:         91 HIT:         33 MISS:         58
LLC RFO          ACCESS:          4 HIT:          2 MISS:          2
LLC PREFETCH     ACCESS:        202 HIT:         67 MISS:        135
LLC WRITE        ACCESS:        194 HIT:        132 MISS:         62
LLC TRANSLATION  ACCESS:         10 HIT:          2 MISS:          8
LLC PREFETCH REQUESTED:          0 ISSUED:          0 USEFUL:          0 USELESS:          0
LLC AVERAGE MISS LATENCY: 129.7 cycles
cpu0_DTLB TOTAL        ACCESS:    8429113 HIT:    8428883 MISS:        230
cpu0_DTLB LOAD         ACCESS:    8429113 HIT:    8428883 MISS:        230
cpu0_DTLB RFO          ACCESS:          0 HIT:          0 MISS:          0
cpu0_DTLB PREFETCH     ACCESS:          0 HIT:          0 MISS:          0
cpu0_DTLB WRITE        ACCESS:          0 HIT:          0 MISS:          0
cpu0_DTLB TRANSLATION  ACCESS:          0 HIT:          0 MISS:          0
cpu0_DTLB PREFETCH REQUESTED:          0 ISSUED:          0 USEFUL:          0 USELESS:          0
cpu0_DTLB AVERAGE MISS LATENCY: 12.2 cycles
cpu0_ITLB TOTAL        ACCESS:    2376667 HIT:    2376645 MISS:         22
cpu0_ITLB LOAD         ACCESS:    2376667 HIT:    2376645 MISS:         22
cpu0_ITLB RFO          ACCESS:          0 HIT:          0 MISS:          0
cpu0_ITLB PREFETCH     ACCESS:          0 HIT:          0 MISS:          0
cpu0_ITLB WRITE        ACCESS:          0 HIT:          0 MISS:          0
cpu0_ITLB TRANSLATION  ACCESS:          0 HIT:          0 MISS:          0
cpu0_ITLB PREFETCH REQUESTED:          0 ISSUED:          0 USEFUL:          0 USELESS:          0
cpu0_ITLB AVERAGE MISS LATENCY: 36.45 cycles
cpu0_L1D TOTAL        ACCESS:    9281381 HIT:    9281204 MISS:        177
cpu0_L1D LOAD         ACCESS:    5478681 HIT:    5478518 MISS:        163
cpu0_L1D RFO          ACCESS:          0 HIT:          0 MISS:          0
cpu0_L1D PREFETCH     ACCESS:          0 HIT:          0 MISS:          0
cpu0_L1D WRITE        ACCESS:    3802690 HIT:    3802686 MISS:          4
cpu0_L1D TRANSLATION  ACCESS:         10 HIT:          0 MISS:         10
cpu0_L1D PREFETCH REQUESTED:          0 ISSUED:          0 USEFUL:          0 USELESS:          0
cpu0_L1D AVERAGE MISS LATENCY: 51.12 cycles
cpu0_L1I TOTAL        ACCESS:    3517099 HIT:    3511741 MISS:       5358
cpu0_L1I LOAD         ACCESS:    1467894 HIT:    1464580 MISS:       3314
cpu0_L1I RFO          ACCESS:          0 HIT:          0 MISS:          0
cpu0_L1I PREFETCH     ACCESS:    2049205 HIT:    2047161 MISS:       2044
cpu0_L1I WRITE        ACCESS:          0 HIT:          0 MISS:          0
cpu0_L1I TRANSLATION  ACCESS:          0 HIT:          0 MISS:          0
cpu0_L1I PREFETCH REQUESTED:    6285016 ISSUED:    2049236 USEFUL:       1131 USELESS:        766
cpu0_L1I AVERAGE MISS LATENCY: 8.543 cycles
cpu0_L2C TOTAL        ACCESS:       8219 HIT:       7870 MISS:        349
cpu0_L2C LOAD         ACCESS:       2301 HIT:       2206 MISS:         95
cpu0_L2C RFO          ACCESS:          4 HIT:          0 MISS:          4
cpu0_L2C PREFETCH     ACCESS:       5839 HIT:       5599 MISS:        240
cpu0_L2C WRITE        ACCESS:         65 HIT:         65 MISS:          0
cpu0_L2C TRANSLATION  ACCESS:         10 HIT:          0 MISS:         10
cpu0_L2C PREFETCH REQUESTED:       4166 ISSUED:       3974 USEFUL:         26 USELESS:         17
cpu0_L2C AVERAGE MISS LATENCY: 115.8 cycles
cpu0_STLB TOTAL        ACCESS:        160 HIT:        153 MISS:          7
cpu0_STLB LOAD         ACCESS:        160 HIT:        153 MISS:          7
cpu0_STLB RFO          ACCESS:          0 HIT:          0 MISS:          0
cpu0_STLB PREFETCH     ACCESS:          0 HIT:          0 MISS:          0
cpu0_STLB WRITE        ACCESS:          0 HIT:          0 MISS:          0
cpu0_STLB TRANSLATION  ACCESS:          0 HIT:          0 MISS:          0
cpu0_STLB PREFETCH REQUESTED:          0 ISSUED:          0 USEFUL:          0 USELESS:          0
cpu0_STLB AVERAGE MISS LATENCY: 367.3 cycles

DRAM Statistics

Channel 0 RQ ROW_BUFFER_HIT:         16
  ROW_BUFFER_MISS:         85
 AVG DBUS CONGESTED CYCLE: 3.867
WQ ROW_BUFFER_HIT: Channel 0 
  ROW_BUFFER_MISS:         12
  FULL:         14

Channel 1 RQ ROW_BUFFER_HIT:         16
  ROW_BUFFER_MISS:         86
 AVG DBUS CONGESTED CYCLE: 3.826
WQ ROW_BUFFER_HIT: Channel 1 
  ROW_BUFFER_MISS:          3
  FULL:         15
BERTI TO_L1: 352231 TO_L2: 119850 TO_L2_BC_MSHR: 7333
BERTI AVG_LAT: 20.3761 NUM_TRACK_LATENCY: 31536 NUM_CANT_TRACK_LATENCY: 0
BERTI CROSS_PAGE 93579 NO_CROSS_PAGE: 378502
BERTI FOUND_BERTI: 646142 NO_FOUND_BERTI: 7207649
BERTI AVERAGE_ISSUED: 4.41655
CPU 0 L1I Entangling prefetcher final stats
IP accesses: 1f31 7cc40 75263 / 1467894
IP misses: 3cb9 f2e40 36 / 3314
IP hits: 0 0 0 / 0
IP late: 20b1 82c40 9 / 1318
IP wrong: f9e8 3e7a00 10 / 746
miss rate: 0.00225766
coverage: 0
coverage_late: 0.397707
accuracy: 0
accuracy_late: 0.638566
discarded: 0
evicts entangled j table: 0
evicts entangled k table: 328
max bb size: 56
formats: 41 0 295 68 80 74 0 
hist_lookups: 66 164 229 289 261 210 157 101 76 66 46 43 31 7 1 0 0 2689 
hist_lookups_evict: 0 %
hist_lookups_shortlat: 60.6177 %
bb_found_hist: 0 296108 77891 78959 16503 4276 57 6 3 463 8373 4089 0 0 0 0 6782 0 0 0 0 0 2947 0 0 0 1136 0 0 3172 0 0 0 8374 0 0 0 0 0 0 0 0 0 0 4189 0 0 0 0 0 0 0 0 0 0 0 4196 0 0 0 0 0 0 0 
bb_found_summary: 1899947 517524 3.67123
entangled_found_hist: 0 94224 106424 259200 33705 8464 16765 0 
entangled_found_summary: 1362402 518782 2.62616
bb_ent_found_hist: 0 608967 66645 159933 42141 8962 166 44 8 0 8377 28 0 0 0 0 0 0 0 0 0 0 0 0 0 0 0 0 0 0 0 0 0 4193 0 0 0 0 0 0 0 0 0 0 0 0 0 0 0 0 0 0 0 0 0 0 24419 0 0 0 0 0 0 0 
bb_ent_found_summary: 3026709 923883 3.27608
