WARNING: physical memory size is smaller than virtual memory size.

*** ChampSim Multicore Out-of-Order Simulator ***
Warmup Instructions: 30000000
Simulation Instructions: 100000000
Number of CPUs: 1
Page size: 4096

BTB:
Basic BTB sets: 1024 ways: 8
Indirect:
history lengths: 0 0 10 16 27 44 60 96 109 219 449 487 714 1313 2146 3881 
ITTAGE tables: 64768 bytes;Region table: 240 bytes;IUM: 384 bytes;Total Storage= 65392 bytes;
RAS:
RAS size: 64
[LLC] Demand IPV: 1 2 2 1 4 Prefetch IPV: 1 2 1 1 4
Berti Prefetcher
CPU 0 Entangling prefetcher
Off-chip DRAM Size: 8 GiB Channels: 2 Width: 64-bit Data Race: 6400 MT/s
Heartbeat CPU 0 instructions: 10000004 cycles: 1749484 heartbeat IPC: 5.716 cumulative IPC: 5.716 (Simulation time: 00 hr 00 min 33 sec)
Heartbeat CPU 0 instructions: 20000000 cycles: 3454977 heartbeat IPC: 5.863 cumulative IPC: 5.789 (Simulation time: 00 hr 01 min 16 sec)
Heartbeat CPU 0 instructions: 30000003 cycles: 5129787 heartbeat IPC: 5.971 cumulative IPC: 5.848 (Simulation time: 00 hr 02 min 02 sec)
Warmup finished CPU 0 instructions: 30000003 cycles: 5129788 cumulative IPC: 5.848 (Simulation time: 00 hr 02 min 02 sec)
Warmup complete CPU 0 instructions: 30000003 cycles: 5129788 cumulative IPC: 5.848 (Simulation time: 00 hr 02 min 02 sec)
Heartbeat CPU 0 instructions: 40000002 cycles: 8929810 heartbeat IPC: 2.632 cumulative IPC: 2.632 (Simulation time: 00 hr 03 min 14 sec)
Heartbeat CPU 0 instructions: 50000000 cycles: 12642719 heartbeat IPC: 2.693 cumulative IPC: 2.662 (Simulation time: 00 hr 04 min 17 sec)
Heartbeat CPU 0 instructions: 60000003 cycles: 15017579 heartbeat IPC: 4.211 cumulative IPC: 3.034 (Simulation time: 00 hr 05 min 09 sec)
Heartbeat CPU 0 instructions: 70000000 cycles: 19949267 heartbeat IPC: 2.028 cumulative IPC: 2.699 (Simulation time: 00 hr 06 min 25 sec)
Heartbeat CPU 0 instructions: 80000002 cycles: 24080933 heartbeat IPC: 2.42 cumulative IPC: 2.638 (Simulation time: 00 hr 07 min 25 sec)
Heartbeat CPU 0 instructions: 90000001 cycles: 28169520 heartbeat IPC: 2.446 cumulative IPC: 2.604 (Simulation time: 00 hr 08 min 24 sec)
Heartbeat CPU 0 instructions: 100000002 cycles: 32545218 heartbeat IPC: 2.285 cumulative IPC: 2.553 (Simulation time: 00 hr 09 min 27 sec)
*** Reached end of trace: (0, "../traces/secret_traces/crypto/crypto96.champsimtrace.xz")
Heartbeat CPU 0 instructions: 110000001 cycles: 35818934 heartbeat IPC: 3.055 cumulative IPC: 2.607 (Simulation time: 00 hr 10 min 16 sec)
Heartbeat CPU 0 instructions: 120000000 cycles: 39421901 heartbeat IPC: 2.775 cumulative IPC: 2.625 (Simulation time: 00 hr 11 min 10 sec)
Heartbeat CPU 0 instructions: 130000005 cycles: 42422686 heartbeat IPC: 3.332 cumulative IPC: 2.681 (Simulation time: 00 hr 11 min 55 sec)
Simulation finished CPU 0 instructions: 100000002 cycles: 37292899 cumulative IPC: 2.681 (Simulation time: 00 hr 11 min 55 sec)
Simulation complete CPU 0 instructions: 100000002 cycles: 37292899 cumulative IPC: 2.681 (Simulation time: 00 hr 11 min 55 sec)

ChampSim completed all CPUs

=== Simulation ===
CPU 0 runs ../traces/secret_traces/crypto/crypto96.champsimtrace.xz
Region of Interest Statistics

CPU 0 cumulative IPC: 2.681 instructions: 100000002 cycles: 37292899
CPU 0 Branch Prediction Accuracy: 96.54% MPKI: 5.621 Average ROB Occupancy at Mispredict: 30.31
Branch type MPKI
BRANCH_DIRECT_JUMP: 0.155
BRANCH_INDIRECT: 1.73
BRANCH_CONDITIONAL: 2.4
BRANCH_DIRECT_CALL: 0.253
BRANCH_INDIRECT_CALL: 0.866
BRANCH_RETURN: 0.214

LLC TOTAL        ACCESS:     490602 HIT:     242246 MISS:     248356
LLC LOAD         ACCESS:      55089 HIT:      29559 MISS:      25530
LLC RFO          ACCESS:     121507 HIT:      49388 MISS:      72119
LLC PREFETCH     ACCESS:     166048 HIT:      75978 MISS:      90070
LLC WRITE        ACCESS:     144801 HIT:      86863 MISS:      57938
LLC TRANSLATION  ACCESS:       3157 HIT:        458 MISS:       2699
LLC PREFETCH REQUESTED:          0 ISSUED:          0 USEFUL:          0 USELESS:          0
LLC AVERAGE MISS LATENCY: 144.5 cycles
cpu0_DTLB TOTAL        ACCESS:   17193624 HIT:   16953804 MISS:     239820
cpu0_DTLB LOAD         ACCESS:   17193624 HIT:   16953804 MISS:     239820
cpu0_DTLB RFO          ACCESS:          0 HIT:          0 MISS:          0
cpu0_DTLB PREFETCH     ACCESS:          0 HIT:          0 MISS:          0
cpu0_DTLB WRITE        ACCESS:          0 HIT:          0 MISS:          0
cpu0_DTLB TRANSLATION  ACCESS:          0 HIT:          0 MISS:          0
cpu0_DTLB PREFETCH REQUESTED:          0 ISSUED:          0 USEFUL:          0 USELESS:          0
cpu0_DTLB AVERAGE MISS LATENCY: 6.501 cycles
cpu0_ITLB TOTAL        ACCESS:    4497108 HIT:    4472376 MISS:      24732
cpu0_ITLB LOAD         ACCESS:    4497108 HIT:    4472376 MISS:      24732
cpu0_ITLB RFO          ACCESS:          0 HIT:          0 MISS:          0
cpu0_ITLB PREFETCH     ACCESS:          0 HIT:          0 MISS:          0
cpu0_ITLB WRITE        ACCESS:          0 HIT:          0 MISS:          0
cpu0_ITLB TRANSLATION  ACCESS:          0 HIT:          0 MISS:          0
cpu0_ITLB PREFETCH REQUESTED:          0 ISSUED:          0 USEFUL:          0 USELESS:          0
cpu0_ITLB AVERAGE MISS LATENCY: 15.03 cycles
cpu0_L1D TOTAL        ACCESS:   26966755 HIT:   24853582 MISS:    2113173
cpu0_L1D LOAD         ACCESS:   18340353 HIT:   17174464 MISS:    1165889
cpu0_L1D RFO          ACCESS:          0 HIT:          0 MISS:          0
cpu0_L1D PREFETCH     ACCESS:    2008774 HIT:    1645180 MISS:     363594
cpu0_L1D WRITE        ACCESS:    6611956 HIT:    6032445 MISS:     579511
cpu0_L1D TRANSLATION  ACCESS:       5672 HIT:       1493 MISS:       4179
cpu0_L1D PREFETCH REQUESTED:    3373967 ISSUED:    2008744 USEFUL:      35310 USELESS:       7720
cpu0_L1D AVERAGE MISS LATENCY: 14.71 cycles
cpu0_L1I TOTAL        ACCESS:    6684745 HIT:    5723209 MISS:     961536
cpu0_L1I LOAD         ACCESS:    2019578 HIT:    1732873 MISS:     286705
cpu0_L1I RFO          ACCESS:          0 HIT:          0 MISS:          0
cpu0_L1I PREFETCH     ACCESS:    4665167 HIT:    3990336 MISS:     674831
cpu0_L1I WRITE        ACCESS:          0 HIT:          0 MISS:          0
cpu0_L1I TRANSLATION  ACCESS:          0 HIT:          0 MISS:          0
cpu0_L1I PREFETCH REQUESTED:    8143398 ISSUED:    4665167 USEFUL:     307133 USELESS:     329677
cpu0_L1I AVERAGE MISS LATENCY: 15.91 cycles
cpu0_L2C TOTAL        ACCESS:    4106944 HIT:    3538553 MISS:     568391
cpu0_L2C LOAD         ACCESS:     883798 HIT:     822243 MISS:      61555
cpu0_L2C RFO          ACCESS:     194727 HIT:      72623 MISS:     122104
cpu0_L2C PREFETCH     ACCESS:    2737939 HIT:    2356386 MISS:     381553
cpu0_L2C WRITE        ACCESS:     286305 HIT:     286283 MISS:         22
cpu0_L2C TRANSLATION  ACCESS:       4175 HIT:       1018 MISS:       3157
cpu0_L2C PREFETCH REQUESTED:    1846442 ISSUED:    1775477 USEFUL:      60650 USELESS:      47674
cpu0_L2C AVERAGE MISS LATENCY: 74.94 cycles
cpu0_STLB TOTAL        ACCESS:     173630 HIT:     168194 MISS:       5436
cpu0_STLB LOAD         ACCESS:     173630 HIT:     168194 MISS:       5436
cpu0_STLB RFO          ACCESS:          0 HIT:          0 MISS:          0
cpu0_STLB PREFETCH     ACCESS:          0 HIT:          0 MISS:          0
cpu0_STLB WRITE        ACCESS:          0 HIT:          0 MISS:          0
cpu0_STLB TRANSLATION  ACCESS:          0 HIT:          0 MISS:          0
cpu0_STLB PREFETCH REQUESTED:          0 ISSUED:          0 USEFUL:          0 USELESS:          0
cpu0_STLB AVERAGE MISS LATENCY: 164.2 cycles

DRAM Statistics

Channel 0 RQ ROW_BUFFER_HIT:      32924
  ROW_BUFFER_MISS:      62903
 AVG DBUS CONGESTED CYCLE: 3.85
WQ ROW_BUFFER_HIT: Channel 0 
  ROW_BUFFER_MISS:       5118
  FULL:      27546

Channel 1 RQ ROW_BUFFER_HIT:      33602
  ROW_BUFFER_MISS:      60670
 AVG DBUS CONGESTED CYCLE: 3.845
WQ ROW_BUFFER_HIT: Channel 1 
  ROW_BUFFER_MISS:       5108
  FULL:      27293
BERTI TO_L1: 2407344 TO_L2: 1515805 TO_L2_BC_MSHR: 202475
BERTI AVG_LAT: 20.8243 NUM_TRACK_LATENCY: 859989 NUM_CANT_TRACK_LATENCY: 0
BERTI CROSS_PAGE 481925 NO_CROSS_PAGE: 3441224
BERTI FOUND_BERTI: 3557335 NO_FOUND_BERTI: 20365960
BERTI AVERAGE_ISSUED: 5.05258
CPU 0 L1I Entangling prefetcher final stats
IP accesses: e7e5 39f940 11939 / 2021136
IP misses: 80f0 203c00 991 / 288263
IP hits: 0 0 0 / 0
IP late: e2a0 38a800 365 / 123477
IP wrong: e220 388800 1004 / 327321
miss rate: 0.142625
coverage: 0
coverage_late: 0.428349
accuracy: 0
accuracy_late: 0.273908
discarded: 0
evicts entangled j table: 0
evicts entangled k table: 37318
max bb size: 67
formats: 120 1209 46454 9866 7252 14280 0 
hist_lookups: 31973 32751 25994 24576 20993 15934 11515 8456 6505 4820 3407 2206 1288 599 287 0 6 18685 
hist_lookups_evict: 0.00285722 %
hist_lookups_shortlat: 8.89784 %
bb_found_hist: 0 413460 230254 123356 81906 41289 22104 13241 8736 4949 3818 1806 1080 262 630 602 33 154 158 2 53 6 2 53 0 0 15 0 0 159 0 0 0 0 0 0 0 0 0 0 0 0 0 0 0 0 0 0 5 0 0 0 0 0 0 0 0 0 0 0 0 0 0 0 
bb_found_summary: 2223825 948133 2.34548
entangled_found_hist: 0 216996 217300 449503 56243 15271 1112 0 
entangled_found_summary: 2308104 956425 2.41327
bb_ent_found_hist: 0 687162 370208 208466 125758 89435 44308 28585 38699 4727 7935 4528 2723 362 518 2833 100 398 217 0 36 7 2 119 0 0 27 0 0 170 0 0 0 0 0 0 0 0 0 0 0 0 0 0 0 0 0 0 7 0 0 0 0 0 0 0 0 0 0 0 0 0 0 0 
bb_ent_found_summary: 4059436 1617330 2.50997
