WARNING: physical memory size is smaller than virtual memory size.

*** ChampSim Multicore Out-of-Order Simulator ***
Warmup Instructions: 30000000
Simulation Instructions: 100000000
Number of CPUs: 1
Page size: 4096

BTB:
Basic BTB sets: 1024 ways: 8
Indirect:
history lengths: 0 0 10 16 27 44 60 96 109 219 449 487 714 1313 2146 3881 
ITTAGE tables: 64768 bytes;Region table: 240 bytes;IUM: 384 bytes;Total Storage= 65392 bytes;
RAS:
RAS size: 64
[LLC] Demand IPV: 1 2 2 1 4 Prefetch IPV: 1 2 1 1 4
Berti Prefetcher
CPU 0 Entangling prefetcher
Off-chip DRAM Size: 8 GiB Channels: 2 Width: 64-bit Data Race: 6400 MT/s
Heartbeat CPU 0 instructions: 10000005 cycles: 1715383 heartbeat IPC: 5.83 cumulative IPC: 5.83 (Simulation time: 00 hr 00 min 32 sec)
Heartbeat CPU 0 instructions: 20000001 cycles: 3431670 heartbeat IPC: 5.827 cumulative IPC: 5.828 (Simulation time: 00 hr 01 min 03 sec)
*** Reached end of trace: (0, "../traces/secret_traces/crypto/crypto24.champsimtrace.xz")
Heartbeat CPU 0 instructions: 30000002 cycles: 5151576 heartbeat IPC: 5.814 cumulative IPC: 5.823 (Simulation time: 00 hr 01 min 36 sec)
Warmup finished CPU 0 instructions: 30000002 cycles: 5151577 cumulative IPC: 5.823 (Simulation time: 00 hr 01 min 36 sec)
Warmup complete CPU 0 instructions: 30000002 cycles: 5151577 cumulative IPC: 5.823 (Simulation time: 00 hr 01 min 36 sec)
Heartbeat CPU 0 instructions: 40000007 cycles: 6818249 heartbeat IPC: 6 cumulative IPC: 6 (Simulation time: 00 hr 02 min 10 sec)
*** Reached end of trace: (0, "../traces/secret_traces/crypto/crypto24.champsimtrace.xz")
Heartbeat CPU 0 instructions: 50000002 cycles: 9474365 heartbeat IPC: 3.765 cumulative IPC: 4.627 (Simulation time: 00 hr 02 min 54 sec)
Heartbeat CPU 0 instructions: 60000001 cycles: 11196815 heartbeat IPC: 5.806 cumulative IPC: 4.963 (Simulation time: 00 hr 03 min 28 sec)
*** Reached end of trace: (0, "../traces/secret_traces/crypto/crypto24.champsimtrace.xz")
Heartbeat CPU 0 instructions: 70000010 cycles: 13617432 heartbeat IPC: 4.131 cumulative IPC: 4.725 (Simulation time: 00 hr 04 min 09 sec)
Heartbeat CPU 0 instructions: 80000009 cycles: 15447112 heartbeat IPC: 5.465 cumulative IPC: 4.856 (Simulation time: 00 hr 04 min 45 sec)
Heartbeat CPU 0 instructions: 90000001 cycles: 17542352 heartbeat IPC: 4.773 cumulative IPC: 4.842 (Simulation time: 00 hr 05 min 24 sec)
*** Reached end of trace: (0, "../traces/secret_traces/crypto/crypto24.champsimtrace.xz")
Heartbeat CPU 0 instructions: 100000002 cycles: 19654323 heartbeat IPC: 4.735 cumulative IPC: 4.827 (Simulation time: 00 hr 06 min 03 sec)
Heartbeat CPU 0 instructions: 110000006 cycles: 21693755 heartbeat IPC: 4.903 cumulative IPC: 4.836 (Simulation time: 00 hr 06 min 40 sec)
*** Reached end of trace: (0, "../traces/secret_traces/crypto/crypto24.champsimtrace.xz")
Heartbeat CPU 0 instructions: 120000006 cycles: 23848368 heartbeat IPC: 4.641 cumulative IPC: 4.814 (Simulation time: 00 hr 07 min 20 sec)
Heartbeat CPU 0 instructions: 130000006 cycles: 25515033 heartbeat IPC: 6 cumulative IPC: 4.911 (Simulation time: 00 hr 07 min 54 sec)
Simulation finished CPU 0 instructions: 100000004 cycles: 20363457 cumulative IPC: 4.911 (Simulation time: 00 hr 07 min 54 sec)
Simulation complete CPU 0 instructions: 100000004 cycles: 20363457 cumulative IPC: 4.911 (Simulation time: 00 hr 07 min 54 sec)

ChampSim completed all CPUs

=== Simulation ===
CPU 0 runs ../traces/secret_traces/crypto/crypto24.champsimtrace.xz
Region of Interest Statistics

CPU 0 cumulative IPC: 4.911 instructions: 100000004 cycles: 20363457
CPU 0 Branch Prediction Accuracy: 98.41% MPKI: 0.9674 Average ROB Occupancy at Mispredict: 31.56
Branch type MPKI
BRANCH_DIRECT_JUMP: 0.0576
BRANCH_INDIRECT: 0.512
BRANCH_CONDITIONAL: 0.12
BRANCH_DIRECT_CALL: 0.167
BRANCH_INDIRECT_CALL: 0.0203
BRANCH_RETURN: 0.0907

LLC TOTAL        ACCESS:     463284 HIT:     357911 MISS:     105373
LLC LOAD         ACCESS:      50443 HIT:      24959 MISS:      25484
LLC RFO          ACCESS:     142036 HIT:     127822 MISS:      14214
LLC PREFETCH     ACCESS:     109646 HIT:      58162 MISS:      51484
LLC WRITE        ACCESS:     158573 HIT:     146454 MISS:      12119
LLC TRANSLATION  ACCESS:       2586 HIT:        514 MISS:       2072
LLC PREFETCH REQUESTED:          0 ISSUED:          0 USEFUL:          0 USELESS:          0
LLC AVERAGE MISS LATENCY: 138 cycles
cpu0_DTLB TOTAL        ACCESS:   15895295 HIT:   15850577 MISS:      44718
cpu0_DTLB LOAD         ACCESS:   15895295 HIT:   15850577 MISS:      44718
cpu0_DTLB RFO          ACCESS:          0 HIT:          0 MISS:          0
cpu0_DTLB PREFETCH     ACCESS:          0 HIT:          0 MISS:          0
cpu0_DTLB WRITE        ACCESS:          0 HIT:          0 MISS:          0
cpu0_DTLB TRANSLATION  ACCESS:          0 HIT:          0 MISS:          0
cpu0_DTLB PREFETCH REQUESTED:          0 ISSUED:          0 USEFUL:          0 USELESS:          0
cpu0_DTLB AVERAGE MISS LATENCY: 9.933 cycles
cpu0_ITLB TOTAL        ACCESS:     762882 HIT:     747755 MISS:      15127
cpu0_ITLB LOAD         ACCESS:     762882 HIT:     747755 MISS:      15127
cpu0_ITLB RFO          ACCESS:          0 HIT:          0 MISS:          0
cpu0_ITLB PREFETCH     ACCESS:          0 HIT:          0 MISS:          0
cpu0_ITLB WRITE        ACCESS:          0 HIT:          0 MISS:          0
cpu0_ITLB TRANSLATION  ACCESS:          0 HIT:          0 MISS:          0
cpu0_ITLB PREFETCH REQUESTED:          0 ISSUED:          0 USEFUL:          0 USELESS:          0
cpu0_ITLB AVERAGE MISS LATENCY: 18.44 cycles
cpu0_L1D TOTAL        ACCESS:   32596560 HIT:   31933292 MISS:     663268
cpu0_L1D LOAD         ACCESS:   10202418 HIT:   10027412 MISS:     175006
cpu0_L1D RFO          ACCESS:          0 HIT:          0 MISS:          0
cpu0_L1D PREFETCH     ACCESS:   18610214 HIT:   18499834 MISS:     110380
cpu0_L1D WRITE        ACCESS:    3778574 HIT:    3404113 MISS:     374461
cpu0_L1D TRANSLATION  ACCESS:       5354 HIT:       1933 MISS:       3421
cpu0_L1D PREFETCH REQUESTED:   21143869 ISSUED:   18610212 USEFUL:      13404 USELESS:       1702
cpu0_L1D AVERAGE MISS LATENCY: 20.89 cycles
cpu0_L1I TOTAL        ACCESS:    1110703 HIT:     931856 MISS:     178847
cpu0_L1I LOAD         ACCESS:     360661 HIT:     320844 MISS:      39817
cpu0_L1I RFO          ACCESS:          0 HIT:          0 MISS:          0
cpu0_L1I PREFETCH     ACCESS:     750042 HIT:     611012 MISS:     139030
cpu0_L1I WRITE        ACCESS:          0 HIT:          0 MISS:          0
cpu0_L1I TRANSLATION  ACCESS:          0 HIT:          0 MISS:          0
cpu0_L1I PREFETCH REQUESTED:    1195521 ISSUED:     750042 USEFUL:      78335 USELESS:      55128
cpu0_L1I AVERAGE MISS LATENCY: 30.77 cycles
cpu0_L2C TOTAL        ACCESS:    1042620 HIT:     647134 MISS:     395486
cpu0_L2C LOAD         ACCESS:     138472 HIT:      76850 MISS:      61622
cpu0_L2C RFO          ACCESS:     154990 HIT:      12920 MISS:     142070
cpu0_L2C PREFETCH     ACCESS:     566068 HIT:     376860 MISS:     189208
cpu0_L2C WRITE        ACCESS:     179769 HIT:     179769 MISS:          0
cpu0_L2C TRANSLATION  ACCESS:       3321 HIT:        735 MISS:       2586
cpu0_L2C PREFETCH REQUESTED:     361748 ISSUED:     342796 USEFUL:      27172 USELESS:      26648
cpu0_L2C AVERAGE MISS LATENCY: 50.7 cycles
cpu0_STLB TOTAL        ACCESS:      26096 HIT:      21157 MISS:       4939
cpu0_STLB LOAD         ACCESS:      26096 HIT:      21157 MISS:       4939
cpu0_STLB RFO          ACCESS:          0 HIT:          0 MISS:          0
cpu0_STLB PREFETCH     ACCESS:          0 HIT:          0 MISS:          0
cpu0_STLB WRITE        ACCESS:          0 HIT:          0 MISS:          0
cpu0_STLB TRANSLATION  ACCESS:          0 HIT:          0 MISS:          0
cpu0_STLB PREFETCH REQUESTED:          0 ISSUED:          0 USEFUL:          0 USELESS:          0
cpu0_STLB AVERAGE MISS LATENCY: 123.4 cycles

DRAM Statistics

Channel 0 RQ ROW_BUFFER_HIT:      24268
  ROW_BUFFER_MISS:      23121
 AVG DBUS CONGESTED CYCLE: 3.839
WQ ROW_BUFFER_HIT: Channel 0 
  ROW_BUFFER_MISS:       1551
  FULL:       5944

Channel 1 RQ ROW_BUFFER_HIT:      23258
  ROW_BUFFER_MISS:      22586
 AVG DBUS CONGESTED CYCLE: 3.806
WQ ROW_BUFFER_HIT: Channel 1 
  ROW_BUFFER_MISS:       1391
  FULL:       5321
BERTI TO_L1: 23647991 TO_L2: 3672954 TO_L2_BC_MSHR: 1161732
BERTI AVG_LAT: 53.5567 NUM_TRACK_LATENCY: 172691 NUM_CANT_TRACK_LATENCY: 0
BERTI CROSS_PAGE 7346589 NO_CROSS_PAGE: 19974356
BERTI FOUND_BERTI: 3970080 NO_FOUND_BERTI: 9767348
BERTI AVERAGE_ISSUED: 9.63874
CPU 0 L1I Entangling prefetcher final stats
IP accesses: 6f71 1bdc40 1814 / 362424
IP misses: 5d9b 1766c0 263 / 41580
IP hits: 0 0 0 / 0
IP late: 3ffa ffe80 50 / 19675
IP wrong: f801 3e0040 134 / 54841
miss rate: 0.114728
coverage: 0
coverage_late: 0.473185
accuracy: 0
accuracy_late: 0.264038
discarded: 0
evicts entangled j table: 0
evicts entangled k table: 6895
max bb size: 53
formats: 1739 0 5706 2625 1079 2017 0 
hist_lookups: 4421 5023 4146 3779 3333 2755 2160 1604 1213 987 756 507 316 183 96 0 6 7250 
hist_lookups_evict: 0.0155703 %
hist_lookups_shortlat: 18.8141 %
bb_found_hist: 0 93488 39493 18884 8607 4202 2041 1716 574 109 6 109 120 98 28 0 4 0 0 0 0 8 0 0 0 0 0 0 0 0 0 4 0 0 4 0 0 0 0 0 0 0 0 0 0 0 0 0 0 0 0 0 0 4 0 0 0 0 0 0 0 0 0 0 
bb_found_summary: 319464 169499 1.88476
entangled_found_hist: 0 49098 36414 68579 12770 3145 537 0 
entangled_found_summary: 397690 170543 2.33191
bb_ent_found_hist: 0 134993 59632 38531 16520 10187 4340 2381 1715 120 0 242 99 41 16 0 271 0 0 0 0 16 0 0 0 0 0 0 0 0 0 7 0 0 8 0 0 0 0 0 0 0 0 0 0 0 0 0 0 0 0 0 0 4 0 0 0 0 0 0 0 0 0 0 
bb_ent_found_summary: 554352 269123 2.05985
