WARNING: physical memory size is smaller than virtual memory size.

*** ChampSim Multicore Out-of-Order Simulator ***
Warmup Instructions: 30000000
Simulation Instructions: 100000000
Number of CPUs: 1
Page size: 4096

BTB:
Basic BTB sets: 1024 ways: 8
Indirect:
history lengths: 0 0 10 16 27 44 60 96 109 219 449 487 714 1313 2146 3881 
ITTAGE tables: 64768 bytes;Region table: 240 bytes;IUM: 384 bytes;Total Storage= 65392 bytes;
RAS:
RAS size: 64
[LLC] Demand IPV: 1 2 2 1 4 Prefetch IPV: 1 2 1 1 4
Berti Prefetcher
CPU 0 Entangling prefetcher
Off-chip DRAM Size: 8 GiB Channels: 2 Width: 64-bit Data Race: 6400 MT/s
Heartbeat CPU 0 instructions: 10000008 cycles: 1715541 heartbeat IPC: 5.829 cumulative IPC: 5.829 (Simulation time: 00 hr 00 min 34 sec)
Heartbeat CPU 0 instructions: 20000004 cycles: 3431957 heartbeat IPC: 5.826 cumulative IPC: 5.828 (Simulation time: 00 hr 01 min 11 sec)
Heartbeat CPU 0 instructions: 30000006 cycles: 5098719 heartbeat IPC: 6 cumulative IPC: 5.884 (Simulation time: 00 hr 01 min 46 sec)
Warmup finished CPU 0 instructions: 30000006 cycles: 5098720 cumulative IPC: 5.884 (Simulation time: 00 hr 01 min 46 sec)
Warmup complete CPU 0 instructions: 30000006 cycles: 5098720 cumulative IPC: 5.884 (Simulation time: 00 hr 01 min 46 sec)
*** Reached end of trace: (0, "../traces/secret_traces/crypto/crypto94.champsimtrace.xz")
Heartbeat CPU 0 instructions: 40000002 cycles: 7834811 heartbeat IPC: 3.655 cumulative IPC: 3.655 (Simulation time: 00 hr 02 min 52 sec)
Heartbeat CPU 0 instructions: 50000006 cycles: 10350771 heartbeat IPC: 3.975 cumulative IPC: 3.808 (Simulation time: 00 hr 03 min 51 sec)
Heartbeat CPU 0 instructions: 60000002 cycles: 13168309 heartbeat IPC: 3.549 cumulative IPC: 3.718 (Simulation time: 00 hr 04 min 52 sec)
Heartbeat CPU 0 instructions: 70000009 cycles: 15582032 heartbeat IPC: 4.143 cumulative IPC: 3.816 (Simulation time: 00 hr 05 min 49 sec)
*** Reached end of trace: (0, "../traces/secret_traces/crypto/crypto94.champsimtrace.xz")
Heartbeat CPU 0 instructions: 80000002 cycles: 18246528 heartbeat IPC: 3.753 cumulative IPC: 3.803 (Simulation time: 00 hr 06 min 47 sec)
Heartbeat CPU 0 instructions: 90000001 cycles: 20689991 heartbeat IPC: 4.093 cumulative IPC: 3.848 (Simulation time: 00 hr 07 min 43 sec)
Heartbeat CPU 0 instructions: 100000009 cycles: 23435440 heartbeat IPC: 3.642 cumulative IPC: 3.817 (Simulation time: 00 hr 08 min 34 sec)
Heartbeat CPU 0 instructions: 110000008 cycles: 25847568 heartbeat IPC: 4.146 cumulative IPC: 3.856 (Simulation time: 00 hr 09 min 28 sec)
*** Reached end of trace: (0, "../traces/secret_traces/crypto/crypto94.champsimtrace.xz")
Heartbeat CPU 0 instructions: 120000002 cycles: 28507081 heartbeat IPC: 3.76 cumulative IPC: 3.845 (Simulation time: 00 hr 10 min 23 sec)
Heartbeat CPU 0 instructions: 130000008 cycles: 31229017 heartbeat IPC: 3.674 cumulative IPC: 3.827 (Simulation time: 00 hr 11 min 13 sec)
Simulation finished CPU 0 instructions: 100000002 cycles: 26130298 cumulative IPC: 3.827 (Simulation time: 00 hr 11 min 13 sec)
Simulation complete CPU 0 instructions: 100000002 cycles: 26130298 cumulative IPC: 3.827 (Simulation time: 00 hr 11 min 13 sec)

ChampSim completed all CPUs

=== Simulation ===
CPU 0 runs ../traces/secret_traces/crypto/crypto94.champsimtrace.xz
Region of Interest Statistics

CPU 0 cumulative IPC: 3.827 instructions: 100000002 cycles: 26130298
CPU 0 Branch Prediction Accuracy: 99.33% MPKI: 0.8014 Average ROB Occupancy at Mispredict: 30.47
Branch type MPKI
BRANCH_DIRECT_JUMP: 0.044
BRANCH_INDIRECT: 0.403
BRANCH_CONDITIONAL: 0.14
BRANCH_DIRECT_CALL: 0.129
BRANCH_INDIRECT_CALL: 0.0163
BRANCH_RETURN: 0.07

LLC TOTAL        ACCESS:     343899 HIT:     258727 MISS:      85172
LLC LOAD         ACCESS:      37859 HIT:      18799 MISS:      19060
LLC RFO          ACCESS:     106460 HIT:      92976 MISS:      13484
LLC PREFETCH     ACCESS:      81233 HIT:      42897 MISS:      38336
LLC WRITE        ACCESS:     116307 HIT:     103667 MISS:      12640
LLC TRANSLATION  ACCESS:       2040 HIT:        388 MISS:       1652
LLC PREFETCH REQUESTED:          0 ISSUED:          0 USEFUL:          0 USELESS:          0
LLC AVERAGE MISS LATENCY: 128.6 cycles
cpu0_DTLB TOTAL        ACCESS:   12689235 HIT:   12655962 MISS:      33273
cpu0_DTLB LOAD         ACCESS:   12689235 HIT:   12655962 MISS:      33273
cpu0_DTLB RFO          ACCESS:          0 HIT:          0 MISS:          0
cpu0_DTLB PREFETCH     ACCESS:          0 HIT:          0 MISS:          0
cpu0_DTLB WRITE        ACCESS:          0 HIT:          0 MISS:          0
cpu0_DTLB TRANSLATION  ACCESS:          0 HIT:          0 MISS:          0
cpu0_DTLB PREFETCH REQUESTED:          0 ISSUED:          0 USEFUL:          0 USELESS:          0
cpu0_DTLB AVERAGE MISS LATENCY: 10.15 cycles
cpu0_ITLB TOTAL        ACCESS:     571343 HIT:     559563 MISS:      11780
cpu0_ITLB LOAD         ACCESS:     571343 HIT:     559563 MISS:      11780
cpu0_ITLB RFO          ACCESS:          0 HIT:          0 MISS:          0
cpu0_ITLB PREFETCH     ACCESS:          0 HIT:          0 MISS:          0
cpu0_ITLB WRITE        ACCESS:          0 HIT:          0 MISS:          0
cpu0_ITLB TRANSLATION  ACCESS:          0 HIT:          0 MISS:          0
cpu0_ITLB PREFETCH REQUESTED:          0 ISSUED:          0 USEFUL:          0 USELESS:          0
cpu0_ITLB AVERAGE MISS LATENCY: 20.61 cycles
cpu0_L1D TOTAL        ACCESS:   17373593 HIT:   16886184 MISS:     487409
cpu0_L1D LOAD         ACCESS:   10759207 HIT:   10629731 MISS:     129476
cpu0_L1D RFO          ACCESS:          0 HIT:          0 MISS:          0
cpu0_L1D PREFETCH     ACCESS:     418426 HIT:     343636 MISS:      74790
cpu0_L1D WRITE        ACCESS:    6191851 HIT:    5911353 MISS:     280498
cpu0_L1D TRANSLATION  ACCESS:       4109 HIT:       1464 MISS:       2645
cpu0_L1D PREFETCH REQUESTED:    2281619 ISSUED:     418426 USEFUL:       8648 USELESS:       1099
cpu0_L1D AVERAGE MISS LATENCY: 21.74 cycles
cpu0_L1I TOTAL        ACCESS:     832579 HIT:     694138 MISS:     138441
cpu0_L1I LOAD         ACCESS:     273107 HIT:     241084 MISS:      32023
cpu0_L1I RFO          ACCESS:          0 HIT:          0 MISS:          0
cpu0_L1I PREFETCH     ACCESS:     559472 HIT:     453054 MISS:     106418
cpu0_L1I WRITE        ACCESS:          0 HIT:          0 MISS:          0
cpu0_L1I TRANSLATION  ACCESS:          0 HIT:          0 MISS:          0
cpu0_L1I PREFETCH REQUESTED:     853585 ISSUED:     559472 USEFUL:      58876 USELESS:      42622
cpu0_L1I AVERAGE MISS LATENCY: 29.37 cycles
cpu0_L2C TOTAL        ACCESS:     769822 HIT:     474560 MISS:     295262
cpu0_L2C LOAD         ACCESS:     104551 HIT:      58541 MISS:      46010
cpu0_L2C RFO          ACCESS:     116247 HIT:       9759 MISS:     106488
cpu0_L2C PREFETCH     ACCESS:     413769 HIT:     273045 MISS:     140724
cpu0_L2C WRITE        ACCESS:     132692 HIT:     132692 MISS:          0
cpu0_L2C TRANSLATION  ACCESS:       2563 HIT:        523 MISS:       2040
cpu0_L2C PREFETCH REQUESTED:     265418 ISSUED:     252902 USEFUL:      19185 USELESS:      20217
cpu0_L2C AVERAGE MISS LATENCY: 51.16 cycles
cpu0_STLB TOTAL        ACCESS:      19894 HIT:      16151 MISS:       3743
cpu0_STLB LOAD         ACCESS:      19894 HIT:      16151 MISS:       3743
cpu0_STLB RFO          ACCESS:          0 HIT:          0 MISS:          0
cpu0_STLB PREFETCH     ACCESS:          0 HIT:          0 MISS:          0
cpu0_STLB WRITE        ACCESS:          0 HIT:          0 MISS:          0
cpu0_STLB TRANSLATION  ACCESS:          0 HIT:          0 MISS:          0
cpu0_STLB PREFETCH REQUESTED:          0 ISSUED:          0 USEFUL:          0 USELESS:          0
cpu0_STLB AVERAGE MISS LATENCY: 131.9 cycles

DRAM Statistics

Channel 0 RQ ROW_BUFFER_HIT:      18814
  ROW_BUFFER_MISS:      18107
 AVG DBUS CONGESTED CYCLE: 3.835
WQ ROW_BUFFER_HIT: Channel 0 
  ROW_BUFFER_MISS:       1372
  FULL:       5580

Channel 1 RQ ROW_BUFFER_HIT:      18012
  ROW_BUFFER_MISS:      17577
 AVG DBUS CONGESTED CYCLE: 3.82
WQ ROW_BUFFER_HIT: Channel 1 
  ROW_BUFFER_MISS:       1188
  FULL:       5354
BERTI TO_L1: 1045333 TO_L2: 1697585 TO_L2_BC_MSHR: 840103
BERTI AVG_LAT: 54.8569 NUM_TRACK_LATENCY: 124837 NUM_CANT_TRACK_LATENCY: 0
BERTI CROSS_PAGE 533671 NO_CROSS_PAGE: 2209247
BERTI FOUND_BERTI: 624316 NO_FOUND_BERTI: 14809809
BERTI AVERAGE_ISSUED: 4.20685
CPU 0 L1I Entangling prefetcher final stats
IP accesses: 6f71 1bdc40 1341 / 273638
IP misses: 25bf 96fc0 162 / 32554
IP hits: 0 0 0 / 0
IP late: 77e3 1df8c0 45 / 15825
IP wrong: f801 3e0040 93 / 42452
miss rate: 0.118968
coverage: 0
coverage_late: 0.486116
accuracy: 0
accuracy_late: 0.271548
discarded: 0
evicts entangled j table: 0
evicts entangled k table: 5270
max bb size: 53
formats: 1378 0 4626 2229 996 1949 0 
hist_lookups: 4078 4358 3324 2915 2575 2103 1592 1185 898 805 579 384 240 155 90 0 3 4981 
hist_lookups_evict: 0.00991245 %
hist_lookups_shortlat: 16.458 %
bb_found_hist: 0 69549 27986 14489 6264 3303 1428 1111 392 72 4 92 91 72 22 29 3 0 0 0 0 6 0 0 0 0 0 0 0 0 0 3 0 0 3 0 0 0 0 0 0 0 0 0 0 0 0 0 0 0 0 0 0 3 0 0 0 0 0 0 0 0 0 0 
bb_found_summary: 235039 124922 1.88149
entangled_found_hist: 0 37937 27710 46881 9334 1654 240 0 
entangled_found_summary: 281046 123756 2.27097
bb_ent_found_hist: 0 94919 41518 27771 10913 7239 2758 1608 1374 90 0 89 113 95 20 218 158 0 0 0 0 44 0 0 0 0 0 0 0 0 0 3 0 0 5 0 0 0 0 0 0 0 0 0 0 0 0 0 0 0 0 0 0 7 0 0 0 0 0 0 0 0 0 0 
bb_ent_found_summary: 391927 188942 2.07433
