WARNING: physical memory size is smaller than virtual memory size.

*** ChampSim Multicore Out-of-Order Simulator ***
Warmup Instructions: 30000000
Simulation Instructions: 100000000
Number of CPUs: 1
Page size: 4096

BTB:
Basic BTB sets: 1024 ways: 8
Indirect:
history lengths: 0 0 10 16 27 44 60 96 109 219 449 487 714 1313 2146 3881 
ITTAGE tables: 64768 bytes;Region table: 240 bytes;IUM: 384 bytes;Total Storage= 65392 bytes;
RAS:
RAS size: 64
[LLC] Demand IPV: 1 2 2 1 4 Prefetch IPV: 1 2 1 1 4
Berti Prefetcher
CPU 0 Entangling prefetcher
Off-chip DRAM Size: 8 GiB Channels: 2 Width: 64-bit Data Race: 6400 MT/s
Heartbeat CPU 0 instructions: 10000009 cycles: 1716685 heartbeat IPC: 5.825 cumulative IPC: 5.825 (Simulation time: 00 hr 00 min 30 sec)
Heartbeat CPU 0 instructions: 20000001 cycles: 3434733 heartbeat IPC: 5.821 cumulative IPC: 5.823 (Simulation time: 00 hr 01 min 00 sec)
Heartbeat CPU 0 instructions: 30000000 cycles: 5103470 heartbeat IPC: 5.993 cumulative IPC: 5.878 (Simulation time: 00 hr 01 min 27 sec)
Warmup finished CPU 0 instructions: 30000000 cycles: 5103471 cumulative IPC: 5.878 (Simulation time: 00 hr 01 min 27 sec)
Warmup complete CPU 0 instructions: 30000000 cycles: 5103471 cumulative IPC: 5.878 (Simulation time: 00 hr 01 min 27 sec)
Heartbeat CPU 0 instructions: 40000000 cycles: 6773653 heartbeat IPC: 5.987 cumulative IPC: 5.987 (Simulation time: 00 hr 01 min 58 sec)
Heartbeat CPU 0 instructions: 50000000 cycles: 8443754 heartbeat IPC: 5.988 cumulative IPC: 5.988 (Simulation time: 00 hr 02 min 29 sec)
Heartbeat CPU 0 instructions: 60000002 cycles: 10120021 heartbeat IPC: 5.966 cumulative IPC: 5.98 (Simulation time: 00 hr 03 min 01 sec)
Heartbeat CPU 0 instructions: 70000000 cycles: 11788801 heartbeat IPC: 5.992 cumulative IPC: 5.983 (Simulation time: 00 hr 03 min 32 sec)
Heartbeat CPU 0 instructions: 80000000 cycles: 13457986 heartbeat IPC: 5.991 cumulative IPC: 5.985 (Simulation time: 00 hr 04 min 03 sec)
Heartbeat CPU 0 instructions: 90000005 cycles: 15126977 heartbeat IPC: 5.992 cumulative IPC: 5.986 (Simulation time: 00 hr 04 min 35 sec)
Heartbeat CPU 0 instructions: 100000003 cycles: 16795875 heartbeat IPC: 5.992 cumulative IPC: 5.987 (Simulation time: 00 hr 05 min 06 sec)
Heartbeat CPU 0 instructions: 110000002 cycles: 18464743 heartbeat IPC: 5.992 cumulative IPC: 5.987 (Simulation time: 00 hr 05 min 39 sec)
Heartbeat CPU 0 instructions: 120000009 cycles: 20133660 heartbeat IPC: 5.992 cumulative IPC: 5.988 (Simulation time: 00 hr 06 min 14 sec)
Heartbeat CPU 0 instructions: 130000003 cycles: 21802524 heartbeat IPC: 5.992 cumulative IPC: 5.988 (Simulation time: 00 hr 06 min 45 sec)
Simulation finished CPU 0 instructions: 100000003 cycles: 16699054 cumulative IPC: 5.988 (Simulation time: 00 hr 06 min 45 sec)
Simulation complete CPU 0 instructions: 100000003 cycles: 16699054 cumulative IPC: 5.988 (Simulation time: 00 hr 06 min 45 sec)

ChampSim completed all CPUs

=== Simulation ===
CPU 0 runs ../traces/secret_traces/crypto/crypto15.champsimtrace.xz
Region of Interest Statistics

CPU 0 cumulative IPC: 5.988 instructions: 100000003 cycles: 16699054
CPU 0 Branch Prediction Accuracy: 99.96% MPKI: 0.00198 Average ROB Occupancy at Mispredict: 53.75
Branch type MPKI
BRANCH_DIRECT_JUMP: 7e-05
BRANCH_INDIRECT: 0.00075
BRANCH_CONDITIONAL: 0.00055
BRANCH_DIRECT_CALL: 0.00024
BRANCH_INDIRECT_CALL: 3e-05
BRANCH_RETURN: 0.00034

LLC TOTAL        ACCESS:        530 HIT:        245 MISS:        285
LLC LOAD         ACCESS:         88 HIT:         31 MISS:         57
LLC RFO          ACCESS:          4 HIT:          2 MISS:          2
LLC PREFETCH     ACCESS:        210 HIT:         56 MISS:        154
LLC WRITE        ACCESS:        219 HIT:        153 MISS:         66
LLC TRANSLATION  ACCESS:          9 HIT:          3 MISS:          6
LLC PREFETCH REQUESTED:          0 ISSUED:          0 USEFUL:          0 USELESS:          0
LLC AVERAGE MISS LATENCY: 159.9 cycles
cpu0_DTLB TOTAL        ACCESS:    8475561 HIT:    8475317 MISS:        244
cpu0_DTLB LOAD         ACCESS:    8475561 HIT:    8475317 MISS:        244
cpu0_DTLB RFO          ACCESS:          0 HIT:          0 MISS:          0
cpu0_DTLB PREFETCH     ACCESS:          0 HIT:          0 MISS:          0
cpu0_DTLB WRITE        ACCESS:          0 HIT:          0 MISS:          0
cpu0_DTLB TRANSLATION  ACCESS:          0 HIT:          0 MISS:          0
cpu0_DTLB PREFETCH REQUESTED:          0 ISSUED:          0 USEFUL:          0 USELESS:          0
cpu0_DTLB AVERAGE MISS LATENCY: 12.28 cycles
cpu0_ITLB TOTAL        ACCESS:     365645 HIT:     365618 MISS:         27
cpu0_ITLB LOAD         ACCESS:     365645 HIT:     365618 MISS:         27
cpu0_ITLB RFO          ACCESS:          0 HIT:          0 MISS:          0
cpu0_ITLB PREFETCH     ACCESS:          0 HIT:          0 MISS:          0
cpu0_ITLB WRITE        ACCESS:          0 HIT:          0 MISS:          0
cpu0_ITLB TRANSLATION  ACCESS:          0 HIT:          0 MISS:          0
cpu0_ITLB PREFETCH REQUESTED:          0 ISSUED:          0 USEFUL:          0 USELESS:          0
cpu0_ITLB AVERAGE MISS LATENCY: 11.7 cycles
cpu0_L1D TOTAL        ACCESS:    9664215 HIT:    9664012 MISS:        203
cpu0_L1D LOAD         ACCESS:    5250782 HIT:    5250610 MISS:        172
cpu0_L1D RFO          ACCESS:          0 HIT:          0 MISS:          0
cpu0_L1D PREFETCH     ACCESS:    1285600 HIT:    1285592 MISS:          8
cpu0_L1D WRITE        ACCESS:    3127824 HIT:    3127810 MISS:         14
cpu0_L1D TRANSLATION  ACCESS:          9 HIT:          0 MISS:          9
cpu0_L1D PREFETCH REQUESTED:    1285600 ISSUED:    1285600 USEFUL:          5 USELESS:          3
cpu0_L1D AVERAGE MISS LATENCY: 47.89 cycles
cpu0_L1I TOTAL        ACCESS:     545231 HIT:     539900 MISS:       5331
cpu0_L1I LOAD         ACCESS:     223775 HIT:     220397 MISS:       3378
cpu0_L1I RFO          ACCESS:          0 HIT:          0 MISS:          0
cpu0_L1I PREFETCH     ACCESS:     321456 HIT:     319503 MISS:       1953
cpu0_L1I WRITE        ACCESS:          0 HIT:          0 MISS:          0
cpu0_L1I TRANSLATION  ACCESS:          0 HIT:          0 MISS:          0
cpu0_L1I PREFETCH REQUESTED:     933035 ISSUED:     321456 USEFUL:       1085 USELESS:        702
cpu0_L1I AVERAGE MISS LATENCY: 8.656 cycles
cpu0_L2C TOTAL        ACCESS:       8062 HIT:       7706 MISS:        356
cpu0_L2C LOAD         ACCESS:       2349 HIT:       2256 MISS:         93
cpu0_L2C RFO          ACCESS:          5 HIT:          1 MISS:          4
cpu0_L2C PREFETCH     ACCESS:       5650 HIT:       5400 MISS:        250
cpu0_L2C WRITE        ACCESS:         49 HIT:         49 MISS:          0
cpu0_L2C TRANSLATION  ACCESS:          9 HIT:          0 MISS:          9
cpu0_L2C PREFETCH REQUESTED:       4096 ISSUED:       3903 USEFUL:         28 USELESS:         10
cpu0_L2C AVERAGE MISS LATENCY: 145 cycles
cpu0_STLB TOTAL        ACCESS:        172 HIT:        166 MISS:          6
cpu0_STLB LOAD         ACCESS:        172 HIT:        166 MISS:          6
cpu0_STLB RFO          ACCESS:          0 HIT:          0 MISS:          0
cpu0_STLB PREFETCH     ACCESS:          0 HIT:          0 MISS:          0
cpu0_STLB WRITE        ACCESS:          0 HIT:          0 MISS:          0
cpu0_STLB TRANSLATION  ACCESS:          0 HIT:          0 MISS:          0
cpu0_STLB PREFETCH REQUESTED:          0 ISSUED:          0 USEFUL:          0 USELESS:          0
cpu0_STLB AVERAGE MISS LATENCY: 364.7 cycles

DRAM Statistics

Channel 0 RQ ROW_BUFFER_HIT:         20
  ROW_BUFFER_MISS:         85
 AVG DBUS CONGESTED CYCLE: 3.918
WQ ROW_BUFFER_HIT: Channel 0 
  ROW_BUFFER_MISS:          4
  FULL:         15

Channel 1 RQ ROW_BUFFER_HIT:         18
  ROW_BUFFER_MISS:         96
 AVG DBUS CONGESTED CYCLE: 3.773
WQ ROW_BUFFER_HIT: Channel 1 
  ROW_BUFFER_MISS:          3
  FULL:          6
BERTI TO_L1: 1897992 TO_L2: 147853 TO_L2_BC_MSHR: 9909
BERTI AVG_LAT: 19.8268 NUM_TRACK_LATENCY: 32035 NUM_CANT_TRACK_LATENCY: 0
BERTI CROSS_PAGE 495760 NO_CROSS_PAGE: 1550085
BERTI FOUND_BERTI: 545129 NO_FOUND_BERTI: 7024718
BERTI AVERAGE_ISSUED: 11.5521
CPU 0 L1I Entangling prefetcher final stats
IP accesses: 1f31 7cc40 11275 / 223798
IP misses: 3cb9 f2e40 36 / 3401
IP hits: 0 0 0 / 0
IP late: 20b1 82c40 9 / 1425
IP wrong: 386d e1b40 9 / 675
miss rate: 0.0151968
coverage: 0
coverage_late: 0.418995
accuracy: 0
accuracy_late: 0.678572
discarded: 0
evicts entangled j table: 0
evicts entangled k table: 343
max bb size: 56
formats: 60 0 278 75 70 74 0 
hist_lookups: 64 154 208 250 280 222 185 128 88 83 80 50 37 12 1 0 0 2543 
hist_lookups_evict: 0 %
hist_lookups_shortlat: 57.9932 %
bb_found_hist: 0 44881 9500 13215 3202 718 51 243 1248 1000 618 15 0 333 1236 1 0 584 0 103 0 0 0 0 1 1 377 1682 0 0 0 0 0 0 0 0 305 0 0 0 0 0 0 0 0 0 0 0 0 0 0 0 0 0 0 0 636 0 0 0 0 0 0 0 
bb_found_summary: 282654 79950 3.53539
entangled_found_hist: 0 14768 15243 37545 4389 3275 513 0 
entangled_found_summary: 194898 75733 2.57349
bb_ent_found_hist: 0 78942 12826 22125 6438 2109 141 41 33 5 1251 39 0 0 0 0 0 0 0 0 0 0 0 0 0 0 0 2868 0 0 0 0 0 0 0 0 0 0 0 0 0 0 0 0 0 0 0 0 0 0 0 0 0 0 0 0 2860 0 0 0 0 0 0 0 
bb_ent_found_summary: 459243 129678 3.54142
