WARNING: physical memory size is smaller than virtual memory size.

*** ChampSim Multicore Out-of-Order Simulator ***
Warmup Instructions: 30000000
Simulation Instructions: 100000000
Number of CPUs: 1
Page size: 4096

BTB:
Basic BTB sets: 1024 ways: 8
Indirect:
history lengths: 0 0 10 16 27 44 60 96 109 219 449 487 714 1313 2146 3881 
ITTAGE tables: 64768 bytes;Region table: 240 bytes;IUM: 384 bytes;Total Storage= 65392 bytes;
RAS:
RAS size: 64
[LLC] Demand IPV: 1 2 2 1 4 Prefetch IPV: 1 2 1 1 4
Berti Prefetcher
CPU 0 Entangling prefetcher
Off-chip DRAM Size: 8 GiB Channels: 2 Width: 64-bit Data Race: 6400 MT/s
Heartbeat CPU 0 instructions: 10000006 cycles: 1715602 heartbeat IPC: 5.829 cumulative IPC: 5.829 (Simulation time: 00 hr 00 min 33 sec)
Heartbeat CPU 0 instructions: 20000001 cycles: 3432085 heartbeat IPC: 5.826 cumulative IPC: 5.827 (Simulation time: 00 hr 01 min 07 sec)
Heartbeat CPU 0 instructions: 30000000 cycles: 5098824 heartbeat IPC: 6 cumulative IPC: 5.884 (Simulation time: 00 hr 01 min 39 sec)
Warmup finished CPU 0 instructions: 30000000 cycles: 5098825 cumulative IPC: 5.884 (Simulation time: 00 hr 01 min 39 sec)
Warmup complete CPU 0 instructions: 30000000 cycles: 5098825 cumulative IPC: 5.884 (Simulation time: 00 hr 01 min 39 sec)
Heartbeat CPU 0 instructions: 40000000 cycles: 6766294 heartbeat IPC: 5.997 cumulative IPC: 5.997 (Simulation time: 00 hr 02 min 16 sec)
Heartbeat CPU 0 instructions: 50000000 cycles: 8432960 heartbeat IPC: 6 cumulative IPC: 5.999 (Simulation time: 00 hr 02 min 54 sec)
Heartbeat CPU 0 instructions: 60000003 cycles: 10101012 heartbeat IPC: 5.995 cumulative IPC: 5.997 (Simulation time: 00 hr 03 min 36 sec)
Heartbeat CPU 0 instructions: 70000003 cycles: 11905822 heartbeat IPC: 5.541 cumulative IPC: 5.876 (Simulation time: 00 hr 04 min 15 sec)
*** Reached end of trace: (0, "../traces/secret_traces/crypto/crypto65.champsimtrace.xz")
Heartbeat CPU 0 instructions: 80000001 cycles: 14152531 heartbeat IPC: 4.451 cumulative IPC: 5.523 (Simulation time: 00 hr 04 min 57 sec)
Heartbeat CPU 0 instructions: 90000007 cycles: 16302835 heartbeat IPC: 4.651 cumulative IPC: 5.355 (Simulation time: 00 hr 05 min 38 sec)
Heartbeat CPU 0 instructions: 100000008 cycles: 17983706 heartbeat IPC: 5.949 cumulative IPC: 5.433 (Simulation time: 00 hr 06 min 16 sec)
Heartbeat CPU 0 instructions: 110000001 cycles: 19651396 heartbeat IPC: 5.996 cumulative IPC: 5.497 (Simulation time: 00 hr 06 min 53 sec)
Heartbeat CPU 0 instructions: 120000000 cycles: 21318070 heartbeat IPC: 6 cumulative IPC: 5.549 (Simulation time: 00 hr 07 min 31 sec)
Heartbeat CPU 0 instructions: 130000008 cycles: 22986150 heartbeat IPC: 5.995 cumulative IPC: 5.591 (Simulation time: 00 hr 08 min 08 sec)
Simulation finished CPU 0 instructions: 100000008 cycles: 17887326 cumulative IPC: 5.591 (Simulation time: 00 hr 08 min 08 sec)
Simulation complete CPU 0 instructions: 100000008 cycles: 17887326 cumulative IPC: 5.591 (Simulation time: 00 hr 08 min 08 sec)

ChampSim completed all CPUs

=== Simulation ===
CPU 0 runs ../traces/secret_traces/crypto/crypto65.champsimtrace.xz
Region of Interest Statistics

CPU 0 cumulative IPC: 5.591 instructions: 100000008 cycles: 17887326
CPU 0 Branch Prediction Accuracy: 99.77% MPKI: 0.303 Average ROB Occupancy at Mispredict: 28.59
Branch type MPKI
BRANCH_DIRECT_JUMP: 0.0149
BRANCH_INDIRECT: 0.143
BRANCH_CONDITIONAL: 0.0714
BRANCH_DIRECT_CALL: 0.0438
BRANCH_INDIRECT_CALL: 0.00551
BRANCH_RETURN: 0.0244

LLC TOTAL        ACCESS:     117240 HIT:      84219 MISS:      33021
LLC LOAD         ACCESS:      13322 HIT:       6374 MISS:       6948
LLC RFO          ACCESS:      36271 HIT:      30190 MISS:       6081
LLC PREFETCH     ACCESS:      27118 HIT:      13358 MISS:      13760
LLC WRITE        ACCESS:      39817 HIT:      34151 MISS:       5666
LLC TRANSLATION  ACCESS:        712 HIT:        146 MISS:        566
LLC PREFETCH REQUESTED:          0 ISSUED:          0 USEFUL:          0 USELESS:          0
LLC AVERAGE MISS LATENCY: 135.9 cycles
cpu0_DTLB TOTAL        ACCESS:   13107011 HIT:   13095762 MISS:      11249
cpu0_DTLB LOAD         ACCESS:   13107011 HIT:   13095762 MISS:      11249
cpu0_DTLB RFO          ACCESS:          0 HIT:          0 MISS:          0
cpu0_DTLB PREFETCH     ACCESS:          0 HIT:          0 MISS:          0
cpu0_DTLB WRITE        ACCESS:          0 HIT:          0 MISS:          0
cpu0_DTLB TRANSLATION  ACCESS:          0 HIT:          0 MISS:          0
cpu0_DTLB PREFETCH REQUESTED:          0 ISSUED:          0 USEFUL:          0 USELESS:          0
cpu0_DTLB AVERAGE MISS LATENCY: 10.56 cycles
cpu0_ITLB TOTAL        ACCESS:     199078 HIT:     195093 MISS:       3985
cpu0_ITLB LOAD         ACCESS:     199078 HIT:     195093 MISS:       3985
cpu0_ITLB RFO          ACCESS:          0 HIT:          0 MISS:          0
cpu0_ITLB PREFETCH     ACCESS:          0 HIT:          0 MISS:          0
cpu0_ITLB WRITE        ACCESS:          0 HIT:          0 MISS:          0
cpu0_ITLB TRANSLATION  ACCESS:          0 HIT:          0 MISS:          0
cpu0_ITLB PREFETCH REQUESTED:          0 ISSUED:          0 USEFUL:          0 USELESS:          0
cpu0_ITLB AVERAGE MISS LATENCY: 22.37 cycles
cpu0_L1D TOTAL        ACCESS:   20917333 HIT:   20755091 MISS:     162242
cpu0_L1D LOAD         ACCESS:   13587339 HIT:   13544510 MISS:      42829
cpu0_L1D RFO          ACCESS:          0 HIT:          0 MISS:          0
cpu0_L1D PREFETCH     ACCESS:     144235 HIT:     119117 MISS:      25118
cpu0_L1D WRITE        ACCESS:    7184308 HIT:    7090931 MISS:      93377
cpu0_L1D TRANSLATION  ACCESS:       1451 HIT:        533 MISS:        918
cpu0_L1D PREFETCH REQUESTED:     870698 ISSUED:     144235 USEFUL:       2819 USELESS:        338
cpu0_L1D AVERAGE MISS LATENCY: 24.75 cycles
cpu0_L1I TOTAL        ACCESS:     289370 HIT:     237129 MISS:      52241
cpu0_L1I LOAD         ACCESS:      97466 HIT:      82777 MISS:      14689
cpu0_L1I RFO          ACCESS:          0 HIT:          0 MISS:          0
cpu0_L1I PREFETCH     ACCESS:     191904 HIT:     154352 MISS:      37552
cpu0_L1I WRITE        ACCESS:          0 HIT:          0 MISS:          0
cpu0_L1I TRANSLATION  ACCESS:          0 HIT:          0 MISS:          0
cpu0_L1I PREFETCH REQUESTED:     302870 ISSUED:     191904 USEFUL:      19286 USELESS:      16060
cpu0_L1I AVERAGE MISS LATENCY: 28.73 cycles
cpu0_L2C TOTAL        ACCESS:     268332 HIT:     168218 MISS:     100114
cpu0_L2C LOAD         ACCESS:      38479 HIT:      22254 MISS:      16225
cpu0_L2C RFO          ACCESS:      38783 HIT:       2505 MISS:      36278
cpu0_L2C PREFETCH     ACCESS:     145796 HIT:      98897 MISS:      46899
cpu0_L2C WRITE        ACCESS:      44373 HIT:      44373 MISS:          0
cpu0_L2C TRANSLATION  ACCESS:        901 HIT:        189 MISS:        712
cpu0_L2C PREFETCH REQUESTED:      94170 ISSUED:      90105 USEFUL:       6784 USELESS:       6630
cpu0_L2C AVERAGE MISS LATENCY: 58.47 cycles
cpu0_STLB TOTAL        ACCESS:       6850 HIT:       5529 MISS:       1321
cpu0_STLB LOAD         ACCESS:       6850 HIT:       5529 MISS:       1321
cpu0_STLB RFO          ACCESS:          0 HIT:          0 MISS:          0
cpu0_STLB PREFETCH     ACCESS:          0 HIT:          0 MISS:          0
cpu0_STLB WRITE        ACCESS:          0 HIT:          0 MISS:          0
cpu0_STLB TRANSLATION  ACCESS:          0 HIT:          0 MISS:          0
cpu0_STLB PREFETCH REQUESTED:          0 ISSUED:          0 USEFUL:          0 USELESS:          0
cpu0_STLB AVERAGE MISS LATENCY: 133.7 cycles

DRAM Statistics

Channel 0 RQ ROW_BUFFER_HIT:       6840
  ROW_BUFFER_MISS:       7001
 AVG DBUS CONGESTED CYCLE: 3.856
WQ ROW_BUFFER_HIT: Channel 0 
  ROW_BUFFER_MISS:        577
  FULL:       2459

Channel 1 RQ ROW_BUFFER_HIT:       6714
  ROW_BUFFER_MISS:       6795
 AVG DBUS CONGESTED CYCLE: 3.843
WQ ROW_BUFFER_HIT: Channel 1 
  ROW_BUFFER_MISS:        541
  FULL:       2301
BERTI TO_L1: 607008 TO_L2: 765188 TO_L2_BC_MSHR: 357937
BERTI AVG_LAT: 45.9642 NUM_TRACK_LATENCY: 62611 NUM_CANT_TRACK_LATENCY: 0
BERTI CROSS_PAGE 272777 NO_CROSS_PAGE: 1099419
BERTI FOUND_BERTI: 1569281 NO_FOUND_BERTI: 16356732
BERTI AVERAGE_ISSUED: 4.2573
CPU 0 L1I Entangling prefetcher final stats
IP accesses: 6f71 1bdc40 433 / 98016
IP misses: 20b7 82dc0 89 / 15239
IP hits: 0 0 0 / 0
IP late: 6576 195d80 15 / 6828
IP wrong: f801 3e0040 35 / 15984
miss rate: 0.155475
coverage: 0
coverage_late: 0.448061
accuracy: 0
accuracy_late: 0.299317
discarded: 0
evicts entangled j table: 0
evicts entangled k table: 2284
max bb size: 53
formats: 546 0 2061 1052 462 1042 0 
hist_lookups: 2113 2035 1487 1351 1179 960 700 488 389 328 263 165 114 75 30 0 3 3378 
hist_lookups_evict: 0.019923 %
hist_lookups_shortlat: 22.4333 %
bb_found_hist: 0 23761 10094 5194 2176 1124 469 334 134 35 2 42 27 20 8 10 1 0 0 0 0 2 0 0 0 0 0 0 0 0 0 1 0 0 1 0 0 0 0 0 0 0 0 0 0 0 0 0 0 0 0 0 0 1 0 0 0 0 0 0 0 0 0 0 
bb_found_summary: 81898 43436 1.88549
entangled_found_hist: 0 12128 9038 17790 3793 488 126 0 
entangled_found_summary: 101942 43363 2.3509
bb_ent_found_hist: 0 33853 15522 10610 4205 2265 1265 425 267 29 0 53 39 7 35 84 10 0 0 0 0 12 0 0 0 0 0 0 0 0 0 1 0 0 1 0 0 0 0 0 0 0 0 0 0 0 0 0 0 0 0 0 0 1 0 0 0 0 0 0 0 0 0 0 
bb_ent_found_summary: 141256 68684 2.05661
