WARNING: physical memory size is smaller than virtual memory size.

*** ChampSim Multicore Out-of-Order Simulator ***
Warmup Instructions: 30000000
Simulation Instructions: 100000000
Number of CPUs: 1
Page size: 4096

BTB:
Basic BTB sets: 1024 ways: 8
Indirect:
history lengths: 0 0 10 16 27 44 60 96 109 219 449 487 714 1313 2146 3881 
ITTAGE tables: 64768 bytes;Region table: 240 bytes;IUM: 384 bytes;Total Storage= 65392 bytes;
RAS:
RAS size: 64
[LLC] Demand IPV: 1 2 2 1 4 Prefetch IPV: 1 2 1 1 4
Berti Prefetcher
CPU 0 Entangling prefetcher
Off-chip DRAM Size: 8 GiB Channels: 2 Width: 64-bit Data Race: 6400 MT/s
Heartbeat CPU 0 instructions: 10000000 cycles: 1715453 heartbeat IPC: 5.829 cumulative IPC: 5.829 (Simulation time: 00 hr 00 min 39 sec)
Heartbeat CPU 0 instructions: 20000011 cycles: 3432095 heartbeat IPC: 5.825 cumulative IPC: 5.827 (Simulation time: 00 hr 01 min 16 sec)
Heartbeat CPU 0 instructions: 30000007 cycles: 5098909 heartbeat IPC: 5.999 cumulative IPC: 5.884 (Simulation time: 00 hr 01 min 48 sec)
Warmup finished CPU 0 instructions: 30000007 cycles: 5098910 cumulative IPC: 5.884 (Simulation time: 00 hr 01 min 48 sec)
Warmup complete CPU 0 instructions: 30000007 cycles: 5098910 cumulative IPC: 5.884 (Simulation time: 00 hr 01 min 48 sec)
Heartbeat CPU 0 instructions: 40000008 cycles: 6766670 heartbeat IPC: 5.996 cumulative IPC: 5.996 (Simulation time: 00 hr 02 min 27 sec)
Heartbeat CPU 0 instructions: 50000001 cycles: 8433343 heartbeat IPC: 6 cumulative IPC: 5.998 (Simulation time: 00 hr 03 min 07 sec)
Heartbeat CPU 0 instructions: 60000001 cycles: 10101278 heartbeat IPC: 5.995 cumulative IPC: 5.997 (Simulation time: 00 hr 03 min 45 sec)
Heartbeat CPU 0 instructions: 70000005 cycles: 11902291 heartbeat IPC: 5.552 cumulative IPC: 5.879 (Simulation time: 00 hr 04 min 24 sec)
*** Reached end of trace: (0, "../traces/secret_traces/crypto/crypto6.champsimtrace.xz")
Heartbeat CPU 0 instructions: 80000003 cycles: 14150818 heartbeat IPC: 4.447 cumulative IPC: 5.524 (Simulation time: 00 hr 05 min 06 sec)
Heartbeat CPU 0 instructions: 90000000 cycles: 16293086 heartbeat IPC: 4.668 cumulative IPC: 5.36 (Simulation time: 00 hr 05 min 49 sec)
Heartbeat CPU 0 instructions: 100000003 cycles: 17973858 heartbeat IPC: 5.95 cumulative IPC: 5.437 (Simulation time: 00 hr 06 min 27 sec)
Heartbeat CPU 0 instructions: 110000000 cycles: 19641506 heartbeat IPC: 5.996 cumulative IPC: 5.501 (Simulation time: 00 hr 07 min 06 sec)
Heartbeat CPU 0 instructions: 120000002 cycles: 21308176 heartbeat IPC: 6 cumulative IPC: 5.552 (Simulation time: 00 hr 07 min 51 sec)
Heartbeat CPU 0 instructions: 130000011 cycles: 22976076 heartbeat IPC: 5.996 cumulative IPC: 5.594 (Simulation time: 00 hr 08 min 42 sec)
Simulation finished CPU 0 instructions: 100000004 cycles: 17877167 cumulative IPC: 5.594 (Simulation time: 00 hr 08 min 42 sec)
Simulation complete CPU 0 instructions: 100000004 cycles: 17877167 cumulative IPC: 5.594 (Simulation time: 00 hr 08 min 42 sec)

ChampSim completed all CPUs

=== Simulation ===
CPU 0 runs ../traces/secret_traces/crypto/crypto6.champsimtrace.xz
Region of Interest Statistics

CPU 0 cumulative IPC: 5.594 instructions: 100000004 cycles: 17877167
CPU 0 Branch Prediction Accuracy: 99.77% MPKI: 0.3015 Average ROB Occupancy at Mispredict: 28.19
Branch type MPKI
BRANCH_DIRECT_JUMP: 0.015
BRANCH_INDIRECT: 0.143
BRANCH_CONDITIONAL: 0.07
BRANCH_DIRECT_CALL: 0.0438
BRANCH_INDIRECT_CALL: 0.00563
BRANCH_RETURN: 0.0244

LLC TOTAL        ACCESS:     116213 HIT:      83363 MISS:      32850
LLC LOAD         ACCESS:      13097 HIT:       5921 MISS:       7176
LLC RFO          ACCESS:      35603 HIT:      29898 MISS:       5705
LLC PREFETCH     ACCESS:      27483 HIT:      13549 MISS:      13934
LLC WRITE        ACCESS:      39308 HIT:      33885 MISS:       5423
LLC TRANSLATION  ACCESS:        722 HIT:        110 MISS:        612
LLC PREFETCH REQUESTED:          0 ISSUED:          0 USEFUL:          0 USELESS:          0
LLC AVERAGE MISS LATENCY: 130.2 cycles
cpu0_DTLB TOTAL        ACCESS:   14220164 HIT:   14208831 MISS:      11333
cpu0_DTLB LOAD         ACCESS:   14220164 HIT:   14208831 MISS:      11333
cpu0_DTLB RFO          ACCESS:          0 HIT:          0 MISS:          0
cpu0_DTLB PREFETCH     ACCESS:          0 HIT:          0 MISS:          0
cpu0_DTLB WRITE        ACCESS:          0 HIT:          0 MISS:          0
cpu0_DTLB TRANSLATION  ACCESS:          0 HIT:          0 MISS:          0
cpu0_DTLB PREFETCH REQUESTED:          0 ISSUED:          0 USEFUL:          0 USELESS:          0
cpu0_DTLB AVERAGE MISS LATENCY: 11.45 cycles
cpu0_ITLB TOTAL        ACCESS:     199944 HIT:     195907 MISS:       4037
cpu0_ITLB LOAD         ACCESS:     199944 HIT:     195907 MISS:       4037
cpu0_ITLB RFO          ACCESS:          0 HIT:          0 MISS:          0
cpu0_ITLB PREFETCH     ACCESS:          0 HIT:          0 MISS:          0
cpu0_ITLB WRITE        ACCESS:          0 HIT:          0 MISS:          0
cpu0_ITLB TRANSLATION  ACCESS:          0 HIT:          0 MISS:          0
cpu0_ITLB PREFETCH REQUESTED:          0 ISSUED:          0 USEFUL:          0 USELESS:          0
cpu0_ITLB AVERAGE MISS LATENCY: 24.5 cycles
cpu0_L1D TOTAL        ACCESS:   21491696 HIT:   21329260 MISS:     162436
cpu0_L1D LOAD         ACCESS:   14464004 HIT:   14421473 MISS:      42531
cpu0_L1D RFO          ACCESS:          0 HIT:          0 MISS:          0
cpu0_L1D PREFETCH     ACCESS:     133011 HIT:     107562 MISS:      25449
cpu0_L1D WRITE        ACCESS:    6893226 HIT:    6799699 MISS:      93527
cpu0_L1D TRANSLATION  ACCESS:       1455 HIT:        526 MISS:        929
cpu0_L1D PREFETCH REQUESTED:     784950 ISSUED:     133011 USEFUL:       3059 USELESS:        369
cpu0_L1D AVERAGE MISS LATENCY: 23.43 cycles
cpu0_L1I TOTAL        ACCESS:     290625 HIT:     238812 MISS:      51813
cpu0_L1I LOAD         ACCESS:      97657 HIT:      82973 MISS:      14684
cpu0_L1I RFO          ACCESS:          0 HIT:          0 MISS:          0
cpu0_L1I PREFETCH     ACCESS:     192968 HIT:     155839 MISS:      37129
cpu0_L1I WRITE        ACCESS:          0 HIT:          0 MISS:          0
cpu0_L1I TRANSLATION  ACCESS:          0 HIT:          0 MISS:          0
cpu0_L1I PREFETCH REQUESTED:     303819 ISSUED:     192968 USEFUL:      19439 USELESS:      15544
cpu0_L1I AVERAGE MISS LATENCY: 28.94 cycles
cpu0_L2C TOTAL        ACCESS:     267398 HIT:     167633 MISS:      99765
cpu0_L2C LOAD         ACCESS:      38180 HIT:      22308 MISS:      15872
cpu0_L2C RFO          ACCESS:      38806 HIT:       3192 MISS:      35614
cpu0_L2C PREFETCH     ACCESS:     145089 HIT:      97532 MISS:      47557
cpu0_L2C WRITE        ACCESS:      44422 HIT:      44422 MISS:          0
cpu0_L2C TRANSLATION  ACCESS:        901 HIT:        179 MISS:        722
cpu0_L2C PREFETCH REQUESTED:      93463 ISSUED:      89806 USEFUL:       6727 USELESS:       6752
cpu0_L2C AVERAGE MISS LATENCY: 56.4 cycles
cpu0_STLB TOTAL        ACCESS:       6883 HIT:       5556 MISS:       1327
cpu0_STLB LOAD         ACCESS:       6883 HIT:       5556 MISS:       1327
cpu0_STLB RFO          ACCESS:          0 HIT:          0 MISS:          0
cpu0_STLB PREFETCH     ACCESS:          0 HIT:          0 MISS:          0
cpu0_STLB WRITE        ACCESS:          0 HIT:          0 MISS:          0
cpu0_STLB TRANSLATION  ACCESS:          0 HIT:          0 MISS:          0
cpu0_STLB PREFETCH REQUESTED:          0 ISSUED:          0 USEFUL:          0 USELESS:          0
cpu0_STLB AVERAGE MISS LATENCY: 148.2 cycles

DRAM Statistics

Channel 0 RQ ROW_BUFFER_HIT:       7113
  ROW_BUFFER_MISS:       6760
 AVG DBUS CONGESTED CYCLE: 3.836
WQ ROW_BUFFER_HIT: Channel 0 
  ROW_BUFFER_MISS:        556
  FULL:       2113

Channel 1 RQ ROW_BUFFER_HIT:       6888
  ROW_BUFFER_MISS:       6662
 AVG DBUS CONGESTED CYCLE: 3.826
WQ ROW_BUFFER_HIT: Channel 1 
  ROW_BUFFER_MISS:        521
  FULL:       2047
BERTI TO_L1: 576277 TO_L2: 711017 TO_L2_BC_MSHR: 302314
BERTI AVG_LAT: 46.1141 NUM_TRACK_LATENCY: 62629 NUM_CANT_TRACK_LATENCY: 0
BERTI CROSS_PAGE 256050 NO_CROSS_PAGE: 1031244
BERTI FOUND_BERTI: 1066625 NO_FOUND_BERTI: 17857658
BERTI AVERAGE_ISSUED: 4.21601
CPU 0 L1I Entangling prefetcher final stats
IP accesses: 6f71 1bdc40 438 / 98032
IP misses: 73d7 1cf5c0 138 / 15059
IP hits: 0 0 0 / 0
IP late: 6e9e 1ba780 49 / 6782
IP wrong: 251e 94780 58 / 15470
miss rate: 0.153614
coverage: 0
coverage_late: 0.450362
accuracy: 0
accuracy_late: 0.304782
discarded: 0
evicts entangled j table: 0
evicts entangled k table: 2307
max bb size: 53
formats: 565 0 2054 1033 496 1061 0 
hist_lookups: 2106 2082 1452 1333 1209 971 706 549 416 328 248 147 96 62 26 0 3 3248 
hist_lookups_evict: 0.0200241 %
hist_lookups_shortlat: 21.6794 %
bb_found_hist: 0 23867 9859 5183 2164 1141 486 335 135 32 0 42 30 20 8 10 1 0 0 0 1 2 0 0 0 0 0 0 0 0 0 1 1 0 1 0 0 0 0 0 0 0 0 0 0 0 0 0 0 0 0 0 0 0 0 0 0 0 0 0 0 0 0 0 
bb_found_summary: 81643 43319 1.8847
entangled_found_hist: 0 12516 8862 17507 3425 597 147 0 
entangled_found_summary: 100328 43054 2.33029
bb_ent_found_hist: 0 34991 15099 9964 4011 2653 1115 442 417 40 0 181 40 31 14 49 66 0 0 0 1 12 0 0 0 0 0 0 0 0 0 1 1 0 1 0 0 0 0 0 0 0 0 0 0 0 0 0 0 0 0 0 0 0 0 0 0 0 0 0 0 0 0 0 
bb_ent_found_summary: 143100 69129 2.07005
