WARNING: physical memory size is smaller than virtual memory size.

*** ChampSim Multicore Out-of-Order Simulator ***
Warmup Instructions: 30000000
Simulation Instructions: 100000000
Number of CPUs: 1
Page size: 4096

BTB:
Basic BTB sets: 1024 ways: 8
Indirect:
history lengths: 0 0 10 16 27 44 60 96 109 219 449 487 714 1313 2146 3881 
ITTAGE tables: 64768 bytes;Region table: 240 bytes;IUM: 384 bytes;Total Storage= 65392 bytes;
RAS:
RAS size: 64
[LLC] Demand IPV: 1 2 2 1 4 Prefetch IPV: 1 2 1 1 4
Berti Prefetcher
CPU 0 Entangling prefetcher
Off-chip DRAM Size: 8 GiB Channels: 2 Width: 64-bit Data Race: 6400 MT/s
Heartbeat CPU 0 instructions: 10000003 cycles: 1733572 heartbeat IPC: 5.768 cumulative IPC: 5.768 (Simulation time: 00 hr 00 min 33 sec)
Heartbeat CPU 0 instructions: 20000005 cycles: 3475062 heartbeat IPC: 5.742 cumulative IPC: 5.755 (Simulation time: 00 hr 01 min 15 sec)
*** Reached end of trace: (0, "../traces/secret_traces/crypto/crypto59.champsimtrace.xz")
Heartbeat CPU 0 instructions: 30000001 cycles: 5211570 heartbeat IPC: 5.759 cumulative IPC: 5.756 (Simulation time: 00 hr 01 min 59 sec)
Warmup finished CPU 0 instructions: 30000001 cycles: 5211571 cumulative IPC: 5.756 (Simulation time: 00 hr 01 min 59 sec)
Warmup complete CPU 0 instructions: 30000001 cycles: 5211571 cumulative IPC: 5.756 (Simulation time: 00 hr 01 min 59 sec)
Heartbeat CPU 0 instructions: 40000003 cycles: 6964046 heartbeat IPC: 5.706 cumulative IPC: 5.706 (Simulation time: 00 hr 02 min 41 sec)
Heartbeat CPU 0 instructions: 50000001 cycles: 9123241 heartbeat IPC: 4.631 cumulative IPC: 5.113 (Simulation time: 00 hr 03 min 28 sec)
*** Reached end of trace: (0, "../traces/secret_traces/crypto/crypto59.champsimtrace.xz")
Heartbeat CPU 0 instructions: 60000002 cycles: 11346049 heartbeat IPC: 4.499 cumulative IPC: 4.89 (Simulation time: 00 hr 04 min 16 sec)
Heartbeat CPU 0 instructions: 70000004 cycles: 13431458 heartbeat IPC: 4.795 cumulative IPC: 4.866 (Simulation time: 00 hr 05 min 03 sec)
*** Reached end of trace: (0, "../traces/secret_traces/crypto/crypto59.champsimtrace.xz")
Heartbeat CPU 0 instructions: 80000002 cycles: 15551152 heartbeat IPC: 4.718 cumulative IPC: 4.836 (Simulation time: 00 hr 05 min 49 sec)
Heartbeat CPU 0 instructions: 90000007 cycles: 17296334 heartbeat IPC: 5.73 cumulative IPC: 4.965 (Simulation time: 00 hr 06 min 27 sec)
Heartbeat CPU 0 instructions: 100000005 cycles: 19355699 heartbeat IPC: 4.856 cumulative IPC: 4.949 (Simulation time: 00 hr 07 min 05 sec)
*** Reached end of trace: (0, "../traces/secret_traces/crypto/crypto59.champsimtrace.xz")
Heartbeat CPU 0 instructions: 110000002 cycles: 21507096 heartbeat IPC: 4.648 cumulative IPC: 4.909 (Simulation time: 00 hr 07 min 44 sec)
Heartbeat CPU 0 instructions: 120000005 cycles: 23558172 heartbeat IPC: 4.875 cumulative IPC: 4.906 (Simulation time: 00 hr 08 min 22 sec)
*** Reached end of trace: (0, "../traces/secret_traces/crypto/crypto59.champsimtrace.xz")
Heartbeat CPU 0 instructions: 130000001 cycles: 25563847 heartbeat IPC: 4.986 cumulative IPC: 4.913 (Simulation time: 00 hr 09 min 00 sec)
Simulation finished CPU 0 instructions: 100000000 cycles: 20352277 cumulative IPC: 4.913 (Simulation time: 00 hr 09 min 00 sec)
Simulation complete CPU 0 instructions: 100000000 cycles: 20352277 cumulative IPC: 4.913 (Simulation time: 00 hr 09 min 00 sec)

ChampSim completed all CPUs

=== Simulation ===
CPU 0 runs ../traces/secret_traces/crypto/crypto59.champsimtrace.xz
Region of Interest Statistics

CPU 0 cumulative IPC: 4.913 instructions: 100000000 cycles: 20352277
CPU 0 Branch Prediction Accuracy: 99.5% MPKI: 0.8945 Average ROB Occupancy at Mispredict: 30.38
Branch type MPKI
BRANCH_DIRECT_JUMP: 0.0545
BRANCH_INDIRECT: 0.475
BRANCH_CONDITIONAL: 0.113
BRANCH_DIRECT_CALL: 0.151
BRANCH_INDIRECT_CALL: 0.0179
BRANCH_RETURN: 0.0828

LLC TOTAL        ACCESS:     446714 HIT:     348671 MISS:      98043
LLC LOAD         ACCESS:      47906 HIT:      25173 MISS:      22733
LLC RFO          ACCESS:     139247 HIT:     125431 MISS:      13816
LLC PREFETCH     ACCESS:     103164 HIT:      55322 MISS:      47842
LLC WRITE        ACCESS:     154065 HIT:     142253 MISS:      11812
LLC TRANSLATION  ACCESS:       2332 HIT:        492 MISS:       1840
LLC PREFETCH REQUESTED:          0 ISSUED:          0 USEFUL:          0 USELESS:          0
LLC AVERAGE MISS LATENCY: 137.6 cycles
cpu0_DTLB TOTAL        ACCESS:   11650710 HIT:   11607687 MISS:      43023
cpu0_DTLB LOAD         ACCESS:   11650710 HIT:   11607687 MISS:      43023
cpu0_DTLB RFO          ACCESS:          0 HIT:          0 MISS:          0
cpu0_DTLB PREFETCH     ACCESS:          0 HIT:          0 MISS:          0
cpu0_DTLB WRITE        ACCESS:          0 HIT:          0 MISS:          0
cpu0_DTLB TRANSLATION  ACCESS:          0 HIT:          0 MISS:          0
cpu0_DTLB PREFETCH REQUESTED:          0 ISSUED:          0 USEFUL:          0 USELESS:          0
cpu0_DTLB AVERAGE MISS LATENCY: 9.582 cycles
cpu0_ITLB TOTAL        ACCESS:     736287 HIT:     721569 MISS:      14718
cpu0_ITLB LOAD         ACCESS:     736287 HIT:     721569 MISS:      14718
cpu0_ITLB RFO          ACCESS:          0 HIT:          0 MISS:          0
cpu0_ITLB PREFETCH     ACCESS:          0 HIT:          0 MISS:          0
cpu0_ITLB WRITE        ACCESS:          0 HIT:          0 MISS:          0
cpu0_ITLB TRANSLATION  ACCESS:          0 HIT:          0 MISS:          0
cpu0_ITLB PREFETCH REQUESTED:          0 ISSUED:          0 USEFUL:          0 USELESS:          0
cpu0_ITLB AVERAGE MISS LATENCY: 17.88 cycles
cpu0_L1D TOTAL        ACCESS:   19513582 HIT:   18875157 MISS:     638425
cpu0_L1D LOAD         ACCESS:    5035609 HIT:    4866369 MISS:     169240
cpu0_L1D RFO          ACCESS:          0 HIT:          0 MISS:          0
cpu0_L1D PREFETCH     ACCESS:     480936 HIT:     382673 MISS:      98263
cpu0_L1D WRITE        ACCESS:   13992182 HIT:   13624316 MISS:     367866
cpu0_L1D TRANSLATION  ACCESS:       4855 HIT:       1799 MISS:       3056
cpu0_L1D PREFETCH REQUESTED:    2722249 ISSUED:     480936 USEFUL:      11959 USELESS:       1433
cpu0_L1D AVERAGE MISS LATENCY: 20.77 cycles
cpu0_L1I TOTAL        ACCESS:    1072508 HIT:     896123 MISS:     176385
cpu0_L1I LOAD         ACCESS:     349937 HIT:     309987 MISS:      39950
cpu0_L1I RFO          ACCESS:          0 HIT:          0 MISS:          0
cpu0_L1I PREFETCH     ACCESS:     722571 HIT:     586136 MISS:     136435
cpu0_L1I WRITE        ACCESS:          0 HIT:          0 MISS:          0
cpu0_L1I TRANSLATION  ACCESS:          0 HIT:          0 MISS:          0
cpu0_L1I PREFETCH REQUESTED:    1161751 ISSUED:     722571 USEFUL:      76456 USELESS:      54248
cpu0_L1I AVERAGE MISS LATENCY: 29.11 cycles
cpu0_L2C TOTAL        ACCESS:     993467 HIT:     615833 MISS:     377634
cpu0_L2C LOAD         ACCESS:     134777 HIT:      76170 MISS:      58607
cpu0_L2C RFO          ACCESS:     151028 HIT:      11730 MISS:     139298
cpu0_L2C PREFETCH     ACCESS:     531689 HIT:     354292 MISS:     177397
cpu0_L2C WRITE        ACCESS:     173040 HIT:     173040 MISS:          0
cpu0_L2C TRANSLATION  ACCESS:       2933 HIT:        601 MISS:       2332
cpu0_L2C PREFETCH REQUESTED:     342690 ISSUED:     323776 USEFUL:      23651 USELESS:      24843
cpu0_L2C AVERAGE MISS LATENCY: 49.74 cycles
cpu0_STLB TOTAL        ACCESS:      25522 HIT:      21057 MISS:       4465
cpu0_STLB LOAD         ACCESS:      25522 HIT:      21057 MISS:       4465
cpu0_STLB RFO          ACCESS:          0 HIT:          0 MISS:          0
cpu0_STLB PREFETCH     ACCESS:          0 HIT:          0 MISS:          0
cpu0_STLB WRITE        ACCESS:          0 HIT:          0 MISS:          0
cpu0_STLB TRANSLATION  ACCESS:          0 HIT:          0 MISS:          0
cpu0_STLB PREFETCH REQUESTED:          0 ISSUED:          0 USEFUL:          0 USELESS:          0
cpu0_STLB AVERAGE MISS LATENCY: 126.5 cycles

DRAM Statistics

Channel 0 RQ ROW_BUFFER_HIT:      22144
  ROW_BUFFER_MISS:      21807
 AVG DBUS CONGESTED CYCLE: 3.842
WQ ROW_BUFFER_HIT: Channel 0 
  ROW_BUFFER_MISS:       1419
  FULL:       5895

Channel 1 RQ ROW_BUFFER_HIT:      21069
  ROW_BUFFER_MISS:      21195
 AVG DBUS CONGESTED CYCLE: 3.813
WQ ROW_BUFFER_HIT: Channel 1 
  ROW_BUFFER_MISS:       1318
  FULL:       5330
BERTI TO_L1: 1310284 TO_L2: 2226711 TO_L2_BC_MSHR: 1120371
BERTI AVG_LAT: 54.6296 NUM_TRACK_LATENCY: 163820 NUM_CANT_TRACK_LATENCY: 0
BERTI CROSS_PAGE 709246 NO_CROSS_PAGE: 2827749
BERTI FOUND_BERTI: 821897 NO_FOUND_BERTI: 6570213
BERTI AVERAGE_ISSUED: 4.31861
CPU 0 L1I Entangling prefetcher final stats
IP accesses: 6f71 1bdc40 1823 / 350839
IP misses: 5bf1 16fc40 174 / 40852
IP hits: 0 0 0 / 0
IP late: f9b1 3e6c40 53 / 19852
IP wrong: f801 3e0040 113 / 54015
miss rate: 0.116441
coverage: 0
coverage_late: 0.48595
accuracy: 0
accuracy_late: 0.268754
discarded: 0
evicts entangled j table: 0
evicts entangled k table: 6844
max bb size: 53
formats: 1698 0 5507 2655 1086 2089 0 
hist_lookups: 4260 4967 3967 3606 3358 2839 2147 1494 1159 950 714 540 328 195 92 0 9 7181 
hist_lookups_evict: 0.0238058 %
hist_lookups_shortlat: 18.9944 %
bb_found_hist: 0 88652 39614 18830 8344 4298 1924 1502 513 107 6 105 119 98 27 40 3 6 0 0 0 7 0 0 0 0 0 0 0 0 0 3 0 0 3 0 0 0 0 0 0 0 0 0 0 0 0 0 0 0 0 0 0 3 0 0 0 0 0 0 0 0 0 0 
bb_found_summary: 311907 164204 1.89951
entangled_found_hist: 0 48675 36207 64502 13280 2045 563 0 
entangled_found_summary: 381318 165272 2.30722
bb_ent_found_hist: 0 123752 61040 40447 16455 8976 4086 2428 1538 195 0 81 81 130 15 223 146 3 0 0 0 15 0 0 0 0 0 0 0 0 0 3 0 0 6 0 0 0 0 0 0 0 0 0 0 0 0 0 0 0 0 0 0 5 0 0 0 0 0 0 0 0 0 0 
bb_ent_found_summary: 543816 259625 2.09463
