WARNING: physical memory size is smaller than virtual memory size.

*** ChampSim Multicore Out-of-Order Simulator ***
Warmup Instructions: 30000000
Simulation Instructions: 100000000
Number of CPUs: 1
Page size: 4096

BTB:
Basic BTB sets: 1024 ways: 8
Indirect:
history lengths: 0 0 10 16 27 44 60 96 109 219 449 487 714 1313 2146 3881 
ITTAGE tables: 64768 bytes;Region table: 240 bytes;IUM: 384 bytes;Total Storage= 65392 bytes;
RAS:
RAS size: 64
[LLC] Demand IPV: 1 2 2 1 4 Prefetch IPV: 1 2 1 1 4
Berti Prefetcher
CPU 0 Entangling prefetcher
Off-chip DRAM Size: 8 GiB Channels: 2 Width: 64-bit Data Race: 6400 MT/s
Heartbeat CPU 0 instructions: 10000003 cycles: 1669166 heartbeat IPC: 5.991 cumulative IPC: 5.991 (Simulation time: 00 hr 00 min 33 sec)
Heartbeat CPU 0 instructions: 20000008 cycles: 3394501 heartbeat IPC: 5.796 cumulative IPC: 5.892 (Simulation time: 00 hr 01 min 14 sec)
Heartbeat CPU 0 instructions: 30000004 cycles: 5106983 heartbeat IPC: 5.839 cumulative IPC: 5.874 (Simulation time: 00 hr 01 min 49 sec)
Warmup finished CPU 0 instructions: 30000004 cycles: 5106984 cumulative IPC: 5.874 (Simulation time: 00 hr 01 min 49 sec)
Warmup complete CPU 0 instructions: 30000004 cycles: 5106984 cumulative IPC: 5.874 (Simulation time: 00 hr 01 min 49 sec)
Heartbeat CPU 0 instructions: 40000004 cycles: 7776717 heartbeat IPC: 3.746 cumulative IPC: 3.746 (Simulation time: 00 hr 02 min 41 sec)
Heartbeat CPU 0 instructions: 50000005 cycles: 10703141 heartbeat IPC: 3.417 cumulative IPC: 3.574 (Simulation time: 00 hr 03 min 36 sec)
Heartbeat CPU 0 instructions: 60000001 cycles: 12791887 heartbeat IPC: 4.788 cumulative IPC: 3.904 (Simulation time: 00 hr 04 min 18 sec)
Heartbeat CPU 0 instructions: 70000003 cycles: 15880470 heartbeat IPC: 3.238 cumulative IPC: 3.713 (Simulation time: 00 hr 05 min 14 sec)
Heartbeat CPU 0 instructions: 80000003 cycles: 17714151 heartbeat IPC: 5.454 cumulative IPC: 3.966 (Simulation time: 00 hr 05 min 53 sec)
Heartbeat CPU 0 instructions: 90000009 cycles: 20428294 heartbeat IPC: 3.684 cumulative IPC: 3.916 (Simulation time: 00 hr 06 min 42 sec)
Heartbeat CPU 0 instructions: 100000001 cycles: 22460835 heartbeat IPC: 4.92 cumulative IPC: 4.034 (Simulation time: 00 hr 07 min 20 sec)
*** Reached end of trace: (0, "../traces/secret_traces/crypto/crypto8.champsimtrace.xz")
Heartbeat CPU 0 instructions: 110000005 cycles: 25407119 heartbeat IPC: 3.394 cumulative IPC: 3.941 (Simulation time: 00 hr 08 min 14 sec)
Heartbeat CPU 0 instructions: 120000011 cycles: 27930771 heartbeat IPC: 3.963 cumulative IPC: 3.943 (Simulation time: 00 hr 08 min 55 sec)
Heartbeat CPU 0 instructions: 130000006 cycles: 31769064 heartbeat IPC: 2.605 cumulative IPC: 3.751 (Simulation time: 00 hr 09 min 54 sec)
Simulation finished CPU 0 instructions: 100000002 cycles: 26662081 cumulative IPC: 3.751 (Simulation time: 00 hr 09 min 54 sec)
Simulation complete CPU 0 instructions: 100000002 cycles: 26662081 cumulative IPC: 3.751 (Simulation time: 00 hr 09 min 54 sec)

ChampSim completed all CPUs

=== Simulation ===
CPU 0 runs ../traces/secret_traces/crypto/crypto8.champsimtrace.xz
Region of Interest Statistics

CPU 0 cumulative IPC: 3.751 instructions: 100000002 cycles: 26662081
CPU 0 Branch Prediction Accuracy: 97.27% MPKI: 3.702 Average ROB Occupancy at Mispredict: 37.44
Branch type MPKI
BRANCH_DIRECT_JUMP: 0.0572
BRANCH_INDIRECT: 1.36
BRANCH_CONDITIONAL: 1.58
BRANCH_DIRECT_CALL: 0.0798
BRANCH_INDIRECT_CALL: 0.535
BRANCH_RETURN: 0.0879

LLC TOTAL        ACCESS:     234903 HIT:     166666 MISS:      68237
LLC LOAD         ACCESS:      32713 HIT:      21689 MISS:      11024
LLC RFO          ACCESS:      54560 HIT:      38461 MISS:      16099
LLC PREFETCH     ACCESS:      71362 HIT:      44124 MISS:      27238
LLC WRITE        ACCESS:      74804 HIT:      62059 MISS:      12745
LLC TRANSLATION  ACCESS:       1464 HIT:        333 MISS:       1131
LLC PREFETCH REQUESTED:          0 ISSUED:          0 USEFUL:          0 USELESS:          0
LLC AVERAGE MISS LATENCY: 117.5 cycles
cpu0_DTLB TOTAL        ACCESS:   16446620 HIT:   16292042 MISS:     154578
cpu0_DTLB LOAD         ACCESS:   16446620 HIT:   16292042 MISS:     154578
cpu0_DTLB RFO          ACCESS:          0 HIT:          0 MISS:          0
cpu0_DTLB PREFETCH     ACCESS:          0 HIT:          0 MISS:          0
cpu0_DTLB WRITE        ACCESS:          0 HIT:          0 MISS:          0
cpu0_DTLB TRANSLATION  ACCESS:          0 HIT:          0 MISS:          0
cpu0_DTLB PREFETCH REQUESTED:          0 ISSUED:          0 USEFUL:          0 USELESS:          0
cpu0_DTLB AVERAGE MISS LATENCY: 5.442 cycles
cpu0_ITLB TOTAL        ACCESS:    3229357 HIT:    3207666 MISS:      21691
cpu0_ITLB LOAD         ACCESS:    3229357 HIT:    3207666 MISS:      21691
cpu0_ITLB RFO          ACCESS:          0 HIT:          0 MISS:          0
cpu0_ITLB PREFETCH     ACCESS:          0 HIT:          0 MISS:          0
cpu0_ITLB WRITE        ACCESS:          0 HIT:          0 MISS:          0
cpu0_ITLB TRANSLATION  ACCESS:          0 HIT:          0 MISS:          0
cpu0_ITLB PREFETCH REQUESTED:          0 ISSUED:          0 USEFUL:          0 USELESS:          0
cpu0_ITLB AVERAGE MISS LATENCY: 8.902 cycles
cpu0_L1D TOTAL        ACCESS:   25768754 HIT:   24226465 MISS:    1542289
cpu0_L1D LOAD         ACCESS:   19004839 HIT:   18022012 MISS:     982827
cpu0_L1D RFO          ACCESS:          0 HIT:          0 MISS:          0
cpu0_L1D PREFETCH     ACCESS:     609844 HIT:     390412 MISS:     219432
cpu0_L1D WRITE        ACCESS:    6151802 HIT:    5813692 MISS:     338110
cpu0_L1D TRANSLATION  ACCESS:       2269 HIT:        349 MISS:       1920
cpu0_L1D PREFETCH REQUESTED:    1001526 ISSUED:     609847 USEFUL:      25069 USELESS:       6175
cpu0_L1D AVERAGE MISS LATENCY: 7.577 cycles
cpu0_L1I TOTAL        ACCESS:    4803954 HIT:    4174438 MISS:     629516
cpu0_L1I LOAD         ACCESS:    1564388 HIT:    1351583 MISS:     212805
cpu0_L1I RFO          ACCESS:          0 HIT:          0 MISS:          0
cpu0_L1I PREFETCH     ACCESS:    3239566 HIT:    2822855 MISS:     416711
cpu0_L1I WRITE        ACCESS:          0 HIT:          0 MISS:          0
cpu0_L1I TRANSLATION  ACCESS:          0 HIT:          0 MISS:          0
cpu0_L1I PREFETCH REQUESTED:    6637925 ISSUED:    3239566 USEFUL:     204224 USELESS:     187319
cpu0_L1I AVERAGE MISS LATENCY: 14.14 cycles
cpu0_L2C TOTAL        ACCESS:    2953538 HIT:    2759231 MISS:     194307
cpu0_L2C LOAD         ACCESS:     726014 HIT:     690035 MISS:      35979
cpu0_L2C RFO          ACCESS:     129314 HIT:      74347 MISS:      54967
cpu0_L2C PREFETCH     ACCESS:    1836894 HIT:    1735005 MISS:     101889
cpu0_L2C WRITE        ACCESS:     259400 HIT:     259392 MISS:          8
cpu0_L2C TRANSLATION  ACCESS:       1916 HIT:        452 MISS:       1464
cpu0_L2C PREFETCH REQUESTED:    1318193 ISSUED:    1244716 USEFUL:      25540 USELESS:      20692
cpu0_L2C AVERAGE MISS LATENCY: 57.3 cycles
cpu0_STLB TOTAL        ACCESS:     113119 HIT:     110946 MISS:       2173
cpu0_STLB LOAD         ACCESS:     113119 HIT:     110946 MISS:       2173
cpu0_STLB RFO          ACCESS:          0 HIT:          0 MISS:          0
cpu0_STLB PREFETCH     ACCESS:          0 HIT:          0 MISS:          0
cpu0_STLB WRITE        ACCESS:          0 HIT:          0 MISS:          0
cpu0_STLB TRANSLATION  ACCESS:          0 HIT:          0 MISS:          0
cpu0_STLB PREFETCH REQUESTED:          0 ISSUED:          0 USEFUL:          0 USELESS:          0
cpu0_STLB AVERAGE MISS LATENCY: 154.5 cycles

DRAM Statistics

Channel 0 RQ ROW_BUFFER_HIT:       9197
  ROW_BUFFER_MISS:      18984
 AVG DBUS CONGESTED CYCLE: 3.781
WQ ROW_BUFFER_HIT: Channel 0 
  ROW_BUFFER_MISS:       1645
  FULL:       7744

Channel 1 RQ ROW_BUFFER_HIT:       9023
  ROW_BUFFER_MISS:      18284
 AVG DBUS CONGESTED CYCLE: 3.779
WQ ROW_BUFFER_HIT: Channel 1 
  ROW_BUFFER_MISS:       1723
  FULL:       7462
BERTI TO_L1: 665039 TO_L2: 621150 TO_L2_BC_MSHR: 23000
BERTI AVG_LAT: 12.9713 NUM_TRACK_LATENCY: 820414 NUM_CANT_TRACK_LATENCY: 0
BERTI CROSS_PAGE 238878 NO_CROSS_PAGE: 1047311
BERTI FOUND_BERTI: 2935683 NO_FOUND_BERTI: 21919094
BERTI AVERAGE_ISSUED: 3.22858
CPU 0 L1I Entangling prefetcher final stats
IP accesses: ada8 2b6a00 5725 / 1571360
IP misses: 80f0 203c00 731 / 219777
IP hits: 0 0 0 / 0
IP late: e2a0 38a800 233 / 95320
IP wrong: e220 388800 604 / 185601
miss rate: 0.139865
coverage: 0
coverage_late: 0.433713
accuracy: 0
accuracy_late: 0.339313
discarded: 0
evicts entangled j table: 0
evicts entangled k table: 28868
max bb size: 67
formats: 197 2161 29447 5480 3911 7347 0 
hist_lookups: 14775 18452 18122 18520 16436 12783 9490 7334 5322 3913 2985 2024 1128 571 258 0 6 19013 
hist_lookups_evict: 0.00397004 %
hist_lookups_shortlat: 12.5804 %
bb_found_hist: 0 314831 177101 96631 65068 33683 20417 13556 11862 8126 3691 1882 1019 246 1472 335 1363 249 181 273 222 299 345 0 0 0 314 0 0 41 0 0 0 0 0 0 0 0 0 0 0 0 0 0 0 12 0 0 0 0 0 0 0 0 0 0 0 0 0 0 0 0 0 47 
bb_found_summary: 1937357 753266 2.57195
entangled_found_hist: 0 155061 159655 368428 38116 9972 1116 0 
entangled_found_summary: 1788675 732348 2.44239
bb_ent_found_hist: 0 504345 278871 164449 108275 61742 30588 33927 29356 8973 7058 4545 1416 373 2172 378 649 111 107 516 0 753 83 0 0 0 665 0 0 64 0 0 0 0 0 0 0 0 0 0 0 0 0 0 0 14 0 0 0 0 0 0 0 0 0 0 0 0 0 0 0 0 0 19 
bb_ent_found_summary: 3274973 1239449 2.64229
