WARNING: physical memory size is smaller than virtual memory size.

*** ChampSim Multicore Out-of-Order Simulator ***
Warmup Instructions: 30000000
Simulation Instructions: 100000000
Number of CPUs: 1
Page size: 4096

BTB:
Basic BTB sets: 1024 ways: 8
Indirect:
history lengths: 0 0 10 16 27 44 60 96 109 219 449 487 714 1313 2146 3881 
ITTAGE tables: 64768 bytes;Region table: 240 bytes;IUM: 384 bytes;Total Storage= 65392 bytes;
RAS:
RAS size: 64
[LLC] Demand IPV: 1 2 2 1 4 Prefetch IPV: 1 2 1 1 4
Berti Prefetcher
CPU 0 Entangling prefetcher
Off-chip DRAM Size: 8 GiB Channels: 2 Width: 64-bit Data Race: 6400 MT/s
Heartbeat CPU 0 instructions: 10000005 cycles: 1715439 heartbeat IPC: 5.829 cumulative IPC: 5.829 (Simulation time: 00 hr 00 min 38 sec)
Heartbeat CPU 0 instructions: 20000004 cycles: 3432041 heartbeat IPC: 5.825 cumulative IPC: 5.827 (Simulation time: 00 hr 01 min 14 sec)
*** Reached end of trace: (0, "../traces/secret_traces/crypto/crypto97.champsimtrace.xz")
Heartbeat CPU 0 instructions: 30000002 cycles: 5152041 heartbeat IPC: 5.814 cumulative IPC: 5.823 (Simulation time: 00 hr 01 min 48 sec)
Warmup finished CPU 0 instructions: 30000002 cycles: 5152042 cumulative IPC: 5.823 (Simulation time: 00 hr 01 min 48 sec)
Warmup complete CPU 0 instructions: 30000002 cycles: 5152042 cumulative IPC: 5.823 (Simulation time: 00 hr 01 min 48 sec)
Heartbeat CPU 0 instructions: 40000000 cycles: 11362598 heartbeat IPC: 1.61 cumulative IPC: 1.61 (Simulation time: 00 hr 03 min 11 sec)
*** Reached end of trace: (0, "../traces/secret_traces/crypto/crypto97.champsimtrace.xz")
Heartbeat CPU 0 instructions: 50000002 cycles: 16490377 heartbeat IPC: 1.95 cumulative IPC: 1.764 (Simulation time: 00 hr 04 min 22 sec)
Heartbeat CPU 0 instructions: 60000001 cycles: 22545275 heartbeat IPC: 1.652 cumulative IPC: 1.725 (Simulation time: 00 hr 05 min 48 sec)
*** Reached end of trace: (0, "../traces/secret_traces/crypto/crypto97.champsimtrace.xz")
Heartbeat CPU 0 instructions: 70000002 cycles: 27679357 heartbeat IPC: 1.948 cumulative IPC: 1.776 (Simulation time: 00 hr 07 min 06 sec)
Heartbeat CPU 0 instructions: 80000000 cycles: 33753199 heartbeat IPC: 1.646 cumulative IPC: 1.748 (Simulation time: 00 hr 08 min 36 sec)
*** Reached end of trace: (0, "../traces/secret_traces/crypto/crypto97.champsimtrace.xz")
Heartbeat CPU 0 instructions: 90000008 cycles: 39039861 heartbeat IPC: 1.892 cumulative IPC: 1.771 (Simulation time: 00 hr 09 min 56 sec)
Heartbeat CPU 0 instructions: 100000000 cycles: 44915008 heartbeat IPC: 1.702 cumulative IPC: 1.76 (Simulation time: 00 hr 11 min 28 sec)
*** Reached end of trace: (0, "../traces/secret_traces/crypto/crypto97.champsimtrace.xz")
Heartbeat CPU 0 instructions: 110000001 cycles: 50916536 heartbeat IPC: 1.666 cumulative IPC: 1.748 (Simulation time: 00 hr 13 min 13 sec)
Heartbeat CPU 0 instructions: 120000000 cycles: 56061069 heartbeat IPC: 1.944 cumulative IPC: 1.768 (Simulation time: 00 hr 14 min 54 sec)
Heartbeat CPU 0 instructions: 130000001 cycles: 62158719 heartbeat IPC: 1.64 cumulative IPC: 1.754 (Simulation time: 00 hr 16 min 20 sec)
Simulation finished CPU 0 instructions: 100000000 cycles: 57006679 cumulative IPC: 1.754 (Simulation time: 00 hr 16 min 20 sec)
Simulation complete CPU 0 instructions: 100000000 cycles: 57006679 cumulative IPC: 1.754 (Simulation time: 00 hr 16 min 20 sec)

ChampSim completed all CPUs

=== Simulation ===
CPU 0 runs ../traces/secret_traces/crypto/crypto97.champsimtrace.xz
Region of Interest Statistics

CPU 0 cumulative IPC: 1.754 instructions: 100000000 cycles: 57006679
CPU 0 Branch Prediction Accuracy: 98.49% MPKI: 1.05 Average ROB Occupancy at Mispredict: 31.57
Branch type MPKI
BRANCH_DIRECT_JUMP: 0.0635
BRANCH_INDIRECT: 0.555
BRANCH_CONDITIONAL: 0.126
BRANCH_DIRECT_CALL: 0.184
BRANCH_INDIRECT_CALL: 0.0223
BRANCH_RETURN: 0.1

LLC TOTAL        ACCESS:     531913 HIT:     407954 MISS:     123959
LLC LOAD         ACCESS:      59765 HIT:      32130 MISS:      27635
LLC RFO          ACCESS:     166507 HIT:     145716 MISS:      20791
LLC PREFETCH     ACCESS:     121953 HIT:      65648 MISS:      56305
LLC WRITE        ACCESS:     180655 HIT:     163781 MISS:      16874
LLC TRANSLATION  ACCESS:       3033 HIT:        679 MISS:       2354
LLC PREFETCH REQUESTED:          0 ISSUED:          0 USEFUL:          0 USELESS:          0
LLC AVERAGE MISS LATENCY: 132 cycles
cpu0_DTLB TOTAL        ACCESS:   24405773 HIT:   24353682 MISS:      52091
cpu0_DTLB LOAD         ACCESS:   24405773 HIT:   24353682 MISS:      52091
cpu0_DTLB RFO          ACCESS:          0 HIT:          0 MISS:          0
cpu0_DTLB PREFETCH     ACCESS:          0 HIT:          0 MISS:          0
cpu0_DTLB WRITE        ACCESS:          0 HIT:          0 MISS:          0
cpu0_DTLB TRANSLATION  ACCESS:          0 HIT:          0 MISS:          0
cpu0_DTLB PREFETCH REQUESTED:          0 ISSUED:          0 USEFUL:          0 USELESS:          0
cpu0_DTLB AVERAGE MISS LATENCY: 9.615 cycles
cpu0_ITLB TOTAL        ACCESS:     847672 HIT:     831061 MISS:      16611
cpu0_ITLB LOAD         ACCESS:     847672 HIT:     831061 MISS:      16611
cpu0_ITLB RFO          ACCESS:          0 HIT:          0 MISS:          0
cpu0_ITLB PREFETCH     ACCESS:          0 HIT:          0 MISS:          0
cpu0_ITLB WRITE        ACCESS:          0 HIT:          0 MISS:          0
cpu0_ITLB TRANSLATION  ACCESS:          0 HIT:          0 MISS:          0
cpu0_ITLB PREFETCH REQUESTED:          0 ISSUED:          0 USEFUL:          0 USELESS:          0
cpu0_ITLB AVERAGE MISS LATENCY: 19.02 cycles
cpu0_L1D TOTAL        ACCESS:   42717102 HIT:   41949159 MISS:     767943
cpu0_L1D LOAD         ACCESS:   13602353 HIT:   13406576 MISS:     195777
cpu0_L1D RFO          ACCESS:          0 HIT:          0 MISS:          0
cpu0_L1D PREFETCH     ACCESS:   25135367 HIT:   25012636 MISS:     122731
cpu0_L1D WRITE        ACCESS:    3973184 HIT:    3527672 MISS:     445512
cpu0_L1D TRANSLATION  ACCESS:       6198 HIT:       2275 MISS:       3923
cpu0_L1D PREFETCH REQUESTED:   27970631 ISSUED:   25135369 USEFUL:      15112 USELESS:       1920
cpu0_L1D AVERAGE MISS LATENCY: 21.27 cycles
cpu0_L1I TOTAL        ACCESS:    1236143 HIT:    1036710 MISS:     199433
cpu0_L1I LOAD         ACCESS:     403046 HIT:     358559 MISS:      44487
cpu0_L1I RFO          ACCESS:          0 HIT:          0 MISS:          0
cpu0_L1I PREFETCH     ACCESS:     833097 HIT:     678151 MISS:     154946
cpu0_L1I WRITE        ACCESS:          0 HIT:          0 MISS:          0
cpu0_L1I TRANSLATION  ACCESS:          0 HIT:          0 MISS:          0
cpu0_L1I PREFETCH REQUESTED:    1345493 ISSUED:     833097 USEFUL:      88266 USELESS:      60352
cpu0_L1I AVERAGE MISS LATENCY: 30.45 cycles
cpu0_L2C TOTAL        ACCESS:    1190224 HIT:     736375 MISS:     453849
cpu0_L2C LOAD         ACCESS:     156932 HIT:      85421 MISS:      71511
cpu0_L2C RFO          ACCESS:     182085 HIT:      15541 MISS:     166544
cpu0_L2C PREFETCH     ACCESS:     639039 HIT:     426278 MISS:     212761
cpu0_L2C WRITE        ACCESS:     208357 HIT:     208357 MISS:          0
cpu0_L2C TRANSLATION  ACCESS:       3811 HIT:        778 MISS:       3033
cpu0_L2C PREFETCH REQUESTED:     406469 ISSUED:     389502 USEFUL:      29404 USELESS:      30549
cpu0_L2C AVERAGE MISS LATENCY: 50.39 cycles
cpu0_STLB TOTAL        ACCESS:      29443 HIT:      23794 MISS:       5649
cpu0_STLB LOAD         ACCESS:      29443 HIT:      23794 MISS:       5649
cpu0_STLB RFO          ACCESS:          0 HIT:          0 MISS:          0
cpu0_STLB PREFETCH     ACCESS:          0 HIT:          0 MISS:          0
cpu0_STLB WRITE        ACCESS:          0 HIT:          0 MISS:          0
cpu0_STLB TRANSLATION  ACCESS:          0 HIT:          0 MISS:          0
cpu0_STLB PREFETCH REQUESTED:          0 ISSUED:          0 USEFUL:          0 USELESS:          0
cpu0_STLB AVERAGE MISS LATENCY: 122 cycles

DRAM Statistics

Channel 0 RQ ROW_BUFFER_HIT:      27624
  ROW_BUFFER_MISS:      26818
 AVG DBUS CONGESTED CYCLE: 3.844
WQ ROW_BUFFER_HIT: Channel 0 
  ROW_BUFFER_MISS:       1880
  FULL:       8410

Channel 1 RQ ROW_BUFFER_HIT:      26465
  ROW_BUFFER_MISS:      26154
 AVG DBUS CONGESTED CYCLE: 3.821
WQ ROW_BUFFER_HIT: Channel 1 
  ROW_BUFFER_MISS:       1813
  FULL:       7454
BERTI TO_L1: 28611964 TO_L2: 7310746 TO_L2_BC_MSHR: 1343576
BERTI AVG_LAT: 53.8027 NUM_TRACK_LATENCY: 189585 NUM_CANT_TRACK_LATENCY: 0
BERTI CROSS_PAGE 4652897 NO_CROSS_PAGE: 31269813
BERTI FOUND_BERTI: 3279766 NO_FOUND_BERTI: 14411156
BERTI AVERAGE_ISSUED: 12.5768
CPU 0 L1I Entangling prefetcher final stats
IP accesses: 6f71 1bdc40 1844 / 404125
IP misses: 59a6 166980 184 / 45566
IP hits: 0 0 0 / 0
IP late: 20b5 82d40 58 / 22064
IP wrong: f801 3e0040 143 / 60115
miss rate: 0.112753
coverage: 0
coverage_late: 0.484221
accuracy: 0
accuracy_late: 0.268488
discarded: 0
evicts entangled j table: 0
evicts entangled k table: 7582
max bb size: 53
formats: 1832 0 6330 2979 1103 2197 0 
hist_lookups: 4759 5630 4560 4053 3715 3124 2397 1746 1327 1035 776 545 362 201 78 0 6 7817 
hist_lookups_evict: 0.0142413 %
hist_lookups_shortlat: 18.5541 %
bb_found_hist: 0 102740 44517 20972 10648 4546 2223 1957 594 111 8 125 44 130 31 0 4 0 0 0 0 8 0 0 0 0 0 0 0 0 0 4 4 0 4 0 0 0 0 0 0 0 0 0 0 0 0 0 0 0 0 0 0 4 0 0 0 0 0 0 0 0 0 0 
bb_found_summary: 357739 188674 1.89607
entangled_found_hist: 0 55558 42298 74846 14674 2965 579 0 
entangled_found_summary: 441687 190920 2.31347
bb_ent_found_hist: 0 149123 65022 45948 19565 11418 5191 3069 2424 88 0 323 157 55 25 0 4 0 0 0 0 21 0 0 0 0 0 0 0 0 0 8 4 0 8 0 0 0 0 0 0 0 0 0 0 0 0 0 0 0 0 0 0 4 0 0 0 0 0 0 0 0 0 0 
bb_ent_found_summary: 633041 302457 2.093
