WARNING: physical memory size is smaller than virtual memory size.

*** ChampSim Multicore Out-of-Order Simulator ***
Warmup Instructions: 30000000
Simulation Instructions: 100000000
Number of CPUs: 1
Page size: 4096

BTB:
Basic BTB sets: 1024 ways: 8
Indirect:
history lengths: 0 0 10 16 27 44 60 96 109 219 449 487 714 1313 2146 3881 
ITTAGE tables: 64768 bytes;Region table: 240 bytes;IUM: 384 bytes;Total Storage= 65392 bytes;
RAS:
RAS size: 64
[LLC] Demand IPV: 1 2 2 1 4 Prefetch IPV: 1 2 1 1 4
Berti Prefetcher
CPU 0 Entangling prefetcher
Off-chip DRAM Size: 8 GiB Channels: 2 Width: 64-bit Data Race: 6400 MT/s
Heartbeat CPU 0 instructions: 10000000 cycles: 1715440 heartbeat IPC: 5.829 cumulative IPC: 5.829 (Simulation time: 00 hr 00 min 34 sec)
*** Reached end of trace: (0, "../traces/secret_traces/crypto/crypto76.champsimtrace.xz")
Heartbeat CPU 0 instructions: 20000009 cycles: 3431766 heartbeat IPC: 5.826 cumulative IPC: 5.828 (Simulation time: 00 hr 01 min 09 sec)
Heartbeat CPU 0 instructions: 30000006 cycles: 5101421 heartbeat IPC: 5.989 cumulative IPC: 5.881 (Simulation time: 00 hr 01 min 44 sec)
Warmup finished CPU 0 instructions: 30000006 cycles: 5101422 cumulative IPC: 5.881 (Simulation time: 00 hr 01 min 44 sec)
Warmup complete CPU 0 instructions: 30000006 cycles: 5101422 cumulative IPC: 5.881 (Simulation time: 00 hr 01 min 44 sec)
*** Reached end of trace: (0, "../traces/secret_traces/crypto/crypto76.champsimtrace.xz")
Heartbeat CPU 0 instructions: 40000008 cycles: 7171271 heartbeat IPC: 4.831 cumulative IPC: 4.831 (Simulation time: 00 hr 02 min 26 sec)
Heartbeat CPU 0 instructions: 50000005 cycles: 8837939 heartbeat IPC: 6 cumulative IPC: 5.353 (Simulation time: 00 hr 03 min 01 sec)
*** Reached end of trace: (0, "../traces/secret_traces/crypto/crypto76.champsimtrace.xz")
Heartbeat CPU 0 instructions: 60000001 cycles: 10870122 heartbeat IPC: 4.921 cumulative IPC: 5.2 (Simulation time: 00 hr 03 min 41 sec)
*** Reached end of trace: (0, "../traces/secret_traces/crypto/crypto76.champsimtrace.xz")
Heartbeat CPU 0 instructions: 70000000 cycles: 12759175 heartbeat IPC: 5.294 cumulative IPC: 5.223 (Simulation time: 00 hr 04 min 19 sec)
Heartbeat CPU 0 instructions: 80000002 cycles: 14556173 heartbeat IPC: 5.565 cumulative IPC: 5.288 (Simulation time: 00 hr 04 min 55 sec)
*** Reached end of trace: (0, "../traces/secret_traces/crypto/crypto76.champsimtrace.xz")
Heartbeat CPU 0 instructions: 90000005 cycles: 16548112 heartbeat IPC: 5.02 cumulative IPC: 5.242 (Simulation time: 00 hr 05 min 36 sec)
Heartbeat CPU 0 instructions: 100000006 cycles: 18236984 heartbeat IPC: 5.921 cumulative IPC: 5.329 (Simulation time: 00 hr 06 min 16 sec)
*** Reached end of trace: (0, "../traces/secret_traces/crypto/crypto76.champsimtrace.xz")
Heartbeat CPU 0 instructions: 110000007 cycles: 20249138 heartbeat IPC: 4.97 cumulative IPC: 5.281 (Simulation time: 00 hr 06 min 57 sec)
*** Reached end of trace: (0, "../traces/secret_traces/crypto/crypto76.champsimtrace.xz")
Heartbeat CPU 0 instructions: 120000010 cycles: 22094285 heartbeat IPC: 5.42 cumulative IPC: 5.296 (Simulation time: 00 hr 07 min 34 sec)
Heartbeat CPU 0 instructions: 130000003 cycles: 23926585 heartbeat IPC: 5.458 cumulative IPC: 5.312 (Simulation time: 00 hr 08 min 11 sec)
Simulation finished CPU 0 instructions: 100000005 cycles: 18825166 cumulative IPC: 5.312 (Simulation time: 00 hr 08 min 11 sec)
Simulation complete CPU 0 instructions: 100000005 cycles: 18825166 cumulative IPC: 5.312 (Simulation time: 00 hr 08 min 11 sec)

ChampSim completed all CPUs

=== Simulation ===
CPU 0 runs ../traces/secret_traces/crypto/crypto76.champsimtrace.xz
Region of Interest Statistics

CPU 0 cumulative IPC: 5.312 instructions: 100000005 cycles: 18825166
CPU 0 Branch Prediction Accuracy: 98.57% MPKI: 0.8694 Average ROB Occupancy at Mispredict: 28.07
Branch type MPKI
BRANCH_DIRECT_JUMP: 0.0458
BRANCH_INDIRECT: 0.493
BRANCH_CONDITIONAL: 0.0887
BRANCH_DIRECT_CALL: 0.144
BRANCH_INDIRECT_CALL: 0.0204
BRANCH_RETURN: 0.0775

LLC TOTAL        ACCESS:     210168 HIT:     208270 MISS:       1898
LLC LOAD         ACCESS:      27119 HIT:      27084 MISS:         35
LLC RFO          ACCESS:      58215 HIT:      58212 MISS:          3
LLC PREFETCH     ACCESS:      57462 HIT:      55745 MISS:       1717
LLC WRITE        ACCESS:      66643 HIT:      66640 MISS:          3
LLC TRANSLATION  ACCESS:        729 HIT:        589 MISS:        140
LLC PREFETCH REQUESTED:          0 ISSUED:          0 USEFUL:          0 USELESS:          0
LLC AVERAGE MISS LATENCY: 157.9 cycles
cpu0_DTLB TOTAL        ACCESS:   16528905 HIT:   16506768 MISS:      22137
cpu0_DTLB LOAD         ACCESS:   16528905 HIT:   16506768 MISS:      22137
cpu0_DTLB RFO          ACCESS:          0 HIT:          0 MISS:          0
cpu0_DTLB PREFETCH     ACCESS:          0 HIT:          0 MISS:          0
cpu0_DTLB WRITE        ACCESS:          0 HIT:          0 MISS:          0
cpu0_DTLB TRANSLATION  ACCESS:          0 HIT:          0 MISS:          0
cpu0_DTLB PREFETCH REQUESTED:          0 ISSUED:          0 USEFUL:          0 USELESS:          0
cpu0_DTLB AVERAGE MISS LATENCY: 5.162 cycles
cpu0_ITLB TOTAL        ACCESS:     606597 HIT:     594696 MISS:      11901
cpu0_ITLB LOAD         ACCESS:     606597 HIT:     594696 MISS:      11901
cpu0_ITLB RFO          ACCESS:          0 HIT:          0 MISS:          0
cpu0_ITLB PREFETCH     ACCESS:          0 HIT:          0 MISS:          0
cpu0_ITLB WRITE        ACCESS:          0 HIT:          0 MISS:          0
cpu0_ITLB TRANSLATION  ACCESS:          0 HIT:          0 MISS:          0
cpu0_ITLB PREFETCH REQUESTED:          0 ISSUED:          0 USEFUL:          0 USELESS:          0
cpu0_ITLB AVERAGE MISS LATENCY: 7.547 cycles
cpu0_L1D TOTAL        ACCESS:   37189392 HIT:   36863840 MISS:     325552
cpu0_L1D LOAD         ACCESS:    9921393 HIT:    9822436 MISS:      98957
cpu0_L1D RFO          ACCESS:          0 HIT:          0 MISS:          0
cpu0_L1D PREFETCH     ACCESS:   22755394 HIT:   22664983 MISS:      90411
cpu0_L1D WRITE        ACCESS:    4510490 HIT:    4375417 MISS:     135073
cpu0_L1D TRANSLATION  ACCESS:       2115 HIT:       1004 MISS:       1111
cpu0_L1D PREFETCH REQUESTED:   27215703 ISSUED:   22755384 USEFUL:       7774 USELESS:       2001
cpu0_L1D AVERAGE MISS LATENCY: 10.61 cycles
cpu0_L1I TOTAL        ACCESS:     878026 HIT:     758186 MISS:     119840
cpu0_L1I LOAD         ACCESS:     289571 HIT:     266945 MISS:      22626
cpu0_L1I RFO          ACCESS:          0 HIT:          0 MISS:          0
cpu0_L1I PREFETCH     ACCESS:     588455 HIT:     491241 MISS:      97214
cpu0_L1I WRITE        ACCESS:          0 HIT:          0 MISS:          0
cpu0_L1I TRANSLATION  ACCESS:          0 HIT:          0 MISS:          0
cpu0_L1I PREFETCH REQUESTED:     842932 ISSUED:     588455 USEFUL:      60142 USELESS:      33719
cpu0_L1I AVERAGE MISS LATENCY: 15.68 cycles
cpu0_L2C TOTAL        ACCESS:     663296 HIT:     496487 MISS:     166809
cpu0_L2C LOAD         ACCESS:      80822 HIT:      53346 MISS:      27476
cpu0_L2C RFO          ACCESS:      68703 HIT:      10480 MISS:      58223
cpu0_L2C PREFETCH     ACCESS:     425166 HIT:     344785 MISS:      80381
cpu0_L2C WRITE        ACCESS:      87583 HIT:      87583 MISS:          0
cpu0_L2C TRANSLATION  ACCESS:       1022 HIT:        293 MISS:        729
cpu0_L2C PREFETCH REQUESTED:     259901 ISSUED:     246087 USEFUL:      12149 USELESS:      17310
cpu0_L2C AVERAGE MISS LATENCY: 19.22 cycles
cpu0_STLB TOTAL        ACCESS:      19672 HIT:      17650 MISS:       2022
cpu0_STLB LOAD         ACCESS:      19672 HIT:      17650 MISS:       2022
cpu0_STLB RFO          ACCESS:          0 HIT:          0 MISS:          0
cpu0_STLB PREFETCH     ACCESS:          0 HIT:          0 MISS:          0
cpu0_STLB WRITE        ACCESS:          0 HIT:          0 MISS:          0
cpu0_STLB TRANSLATION  ACCESS:          0 HIT:          0 MISS:          0
cpu0_STLB PREFETCH REQUESTED:          0 ISSUED:          0 USEFUL:          0 USELESS:          0
cpu0_STLB AVERAGE MISS LATENCY: 39.22 cycles

DRAM Statistics

Channel 0 RQ ROW_BUFFER_HIT:        107
  ROW_BUFFER_MISS:        865
 AVG DBUS CONGESTED CYCLE: 3.614
WQ ROW_BUFFER_HIT: Channel 0 
  ROW_BUFFER_MISS:          1
  FULL:          3

Channel 1 RQ ROW_BUFFER_HIT:        128
  ROW_BUFFER_MISS:        795
 AVG DBUS CONGESTED CYCLE: 3.673
WQ ROW_BUFFER_HIT: Channel 1 
  ROW_BUFFER_MISS:          0
  FULL:          1
BERTI TO_L1: 32371314 TO_L2: 3124228 TO_L2_BC_MSHR: 173307
BERTI AVG_LAT: 19.3296 NUM_TRACK_LATENCY: 101561 NUM_CANT_TRACK_LATENCY: 0
BERTI CROSS_PAGE 10034054 NO_CROSS_PAGE: 25461488
BERTI FOUND_BERTI: 3823580 NO_FOUND_BERTI: 9296548
BERTI AVERAGE_ISSUED: 9.39531
CPU 0 L1I Entangling prefetcher final stats
IP accesses: 6f71 1bdc40 3014 / 289963
IP misses: f7cb 3df2c0 232 / 23018
IP hits: 0 0 0 / 0
IP late: 6e9e 1ba780 99 / 11167
IP wrong: 251e 94780 188 / 33561
miss rate: 0.0793826
coverage: 0
coverage_late: 0.485143
accuracy: 0
accuracy_late: 0.249665
discarded: 0
evicts entangled j table: 0
evicts entangled k table: 3922
max bb size: 53
formats: 1083 0 3127 1604 609 1148 0 
hist_lookups: 2865 3046 2241 1893 1772 1538 1164 914 749 592 406 282 172 94 36 0 21 4383 
hist_lookups_evict: 0.0947312 %
hist_lookups_shortlat: 19.7718 %
bb_found_hist: 0 72740 26419 15257 6528 2760 1402 1046 345 139 0 40 24 0 24 0 6 12 0 0 0 12 0 0 0 0 0 0 0 0 0 6 6 0 6 0 0 0 0 0 0 0 0 0 0 0 0 0 0 0 0 0 0 6 0 0 0 0 0 0 0 0 0 0 
bb_found_summary: 233522 126778 1.84198
entangled_found_hist: 0 38596 29794 44482 10081 1339 595 0 
entangled_found_summary: 282219 124887 2.2598
bb_ent_found_hist: 0 95639 37232 27351 12679 6048 1699 1109 1162 70 0 72 58 0 6 0 398 6 0 0 0 30 0 0 0 0 0 0 0 0 0 12 11 0 6 0 0 0 0 0 0 0 0 0 0 0 0 0 0 0 0 0 0 11 0 0 0 0 0 0 0 0 0 0 
bb_ent_found_summary: 371178 183599 2.02168
