WARNING: physical memory size is smaller than virtual memory size.

*** ChampSim Multicore Out-of-Order Simulator ***
Warmup Instructions: 30000000
Simulation Instructions: 100000000
Number of CPUs: 1
Page size: 4096

BTB:
Basic BTB sets: 1024 ways: 8
Indirect:
history lengths: 0 0 10 16 27 44 60 96 109 219 449 487 714 1313 2146 3881 
ITTAGE tables: 64768 bytes;Region table: 240 bytes;IUM: 384 bytes;Total Storage= 65392 bytes;
RAS:
RAS size: 64
[LLC] Demand IPV: 1 2 2 1 4 Prefetch IPV: 1 2 1 1 4
Berti Prefetcher
CPU 0 Entangling prefetcher
Off-chip DRAM Size: 8 GiB Channels: 2 Width: 64-bit Data Race: 6400 MT/s
Heartbeat CPU 0 instructions: 10000002 cycles: 1715571 heartbeat IPC: 5.829 cumulative IPC: 5.829 (Simulation time: 00 hr 00 min 32 sec)
Heartbeat CPU 0 instructions: 20000007 cycles: 3432027 heartbeat IPC: 5.826 cumulative IPC: 5.827 (Simulation time: 00 hr 01 min 03 sec)
Heartbeat CPU 0 instructions: 30000000 cycles: 5098813 heartbeat IPC: 6 cumulative IPC: 5.884 (Simulation time: 00 hr 01 min 34 sec)
Warmup finished CPU 0 instructions: 30000000 cycles: 5098814 cumulative IPC: 5.884 (Simulation time: 00 hr 01 min 34 sec)
Warmup complete CPU 0 instructions: 30000000 cycles: 5098814 cumulative IPC: 5.884 (Simulation time: 00 hr 01 min 34 sec)
Heartbeat CPU 0 instructions: 40000000 cycles: 6766603 heartbeat IPC: 5.996 cumulative IPC: 5.996 (Simulation time: 00 hr 02 min 08 sec)
Heartbeat CPU 0 instructions: 50000003 cycles: 8433264 heartbeat IPC: 6 cumulative IPC: 5.998 (Simulation time: 00 hr 02 min 45 sec)
*** Reached end of trace: (0, "../traces/secret_traces/crypto/crypto38.champsimtrace.xz")
Heartbeat CPU 0 instructions: 60000008 cycles: 10492793 heartbeat IPC: 4.855 cumulative IPC: 5.562 (Simulation time: 00 hr 03 min 22 sec)
Heartbeat CPU 0 instructions: 70000001 cycles: 12478218 heartbeat IPC: 5.037 cumulative IPC: 5.42 (Simulation time: 00 hr 04 min 05 sec)
Heartbeat CPU 0 instructions: 80000008 cycles: 14630541 heartbeat IPC: 4.646 cumulative IPC: 5.246 (Simulation time: 00 hr 04 min 47 sec)
Heartbeat CPU 0 instructions: 90000007 cycles: 16311022 heartbeat IPC: 5.951 cumulative IPC: 5.351 (Simulation time: 00 hr 05 min 22 sec)
Heartbeat CPU 0 instructions: 100000003 cycles: 17978737 heartbeat IPC: 5.996 cumulative IPC: 5.435 (Simulation time: 00 hr 05 min 56 sec)
Heartbeat CPU 0 instructions: 110000000 cycles: 19645399 heartbeat IPC: 6 cumulative IPC: 5.5 (Simulation time: 00 hr 06 min 31 sec)
*** Reached end of trace: (0, "../traces/secret_traces/crypto/crypto38.champsimtrace.xz")
Heartbeat CPU 0 instructions: 120000005 cycles: 21636817 heartbeat IPC: 5.022 cumulative IPC: 5.442 (Simulation time: 00 hr 07 min 09 sec)
Heartbeat CPU 0 instructions: 130000004 cycles: 23537411 heartbeat IPC: 5.262 cumulative IPC: 5.423 (Simulation time: 00 hr 07 min 46 sec)
Simulation finished CPU 0 instructions: 100000004 cycles: 18438598 cumulative IPC: 5.423 (Simulation time: 00 hr 07 min 46 sec)
Simulation complete CPU 0 instructions: 100000004 cycles: 18438598 cumulative IPC: 5.423 (Simulation time: 00 hr 07 min 46 sec)

ChampSim completed all CPUs

=== Simulation ===
CPU 0 runs ../traces/secret_traces/crypto/crypto38.champsimtrace.xz
Region of Interest Statistics

CPU 0 cumulative IPC: 5.423 instructions: 100000004 cycles: 18438598
CPU 0 Branch Prediction Accuracy: 99.55% MPKI: 0.4694 Average ROB Occupancy at Mispredict: 30.01
Branch type MPKI
BRANCH_DIRECT_JUMP: 0.0233
BRANCH_INDIRECT: 0.229
BRANCH_CONDITIONAL: 0.1
BRANCH_DIRECT_CALL: 0.0692
BRANCH_INDIRECT_CALL: 0.00959
BRANCH_RETURN: 0.0378

LLC TOTAL        ACCESS:     157048 HIT:     113614 MISS:      43434
LLC LOAD         ACCESS:      17026 HIT:       8866 MISS:       8160
LLC RFO          ACCESS:      46202 HIT:      39296 MISS:       6906
LLC PREFETCH     ACCESS:      39305 HIT:      20042 MISS:      19263
LLC WRITE        ACCESS:      53413 HIT:      45242 MISS:       8171
LLC TRANSLATION  ACCESS:       1102 HIT:        168 MISS:        934
LLC PREFETCH REQUESTED:          0 ISSUED:          0 USEFUL:          0 USELESS:          0
LLC AVERAGE MISS LATENCY: 134.1 cycles
cpu0_DTLB TOTAL        ACCESS:   11443966 HIT:   11428391 MISS:      15575
cpu0_DTLB LOAD         ACCESS:   11443966 HIT:   11428391 MISS:      15575
cpu0_DTLB RFO          ACCESS:          0 HIT:          0 MISS:          0
cpu0_DTLB PREFETCH     ACCESS:          0 HIT:          0 MISS:          0
cpu0_DTLB WRITE        ACCESS:          0 HIT:          0 MISS:          0
cpu0_DTLB TRANSLATION  ACCESS:          0 HIT:          0 MISS:          0
cpu0_DTLB PREFETCH REQUESTED:          0 ISSUED:          0 USEFUL:          0 USELESS:          0
cpu0_DTLB AVERAGE MISS LATENCY: 12.77 cycles
cpu0_ITLB TOTAL        ACCESS:     301569 HIT:     295045 MISS:       6524
cpu0_ITLB LOAD         ACCESS:     301569 HIT:     295045 MISS:       6524
cpu0_ITLB RFO          ACCESS:          0 HIT:          0 MISS:          0
cpu0_ITLB PREFETCH     ACCESS:          0 HIT:          0 MISS:          0
cpu0_ITLB WRITE        ACCESS:          0 HIT:          0 MISS:          0
cpu0_ITLB TRANSLATION  ACCESS:          0 HIT:          0 MISS:          0
cpu0_ITLB PREFETCH REQUESTED:          0 ISSUED:          0 USEFUL:          0 USELESS:          0
cpu0_ITLB AVERAGE MISS LATENCY: 21.91 cycles
cpu0_L1D TOTAL        ACCESS:   16682212 HIT:   16465399 MISS:     216813
cpu0_L1D LOAD         ACCESS:   11210060 HIT:   11150839 MISS:      59221
cpu0_L1D RFO          ACCESS:          0 HIT:          0 MISS:          0
cpu0_L1D PREFETCH     ACCESS:     261825 HIT:     221439 MISS:      40386
cpu0_L1D WRITE        ACCESS:    5208100 HIT:    5092360 MISS:     115740
cpu0_L1D TRANSLATION  ACCESS:       2227 HIT:        761 MISS:       1466
cpu0_L1D PREFETCH REQUESTED:    1168242 ISSUED:     261825 USEFUL:       4291 USELESS:        600
cpu0_L1D AVERAGE MISS LATENCY: 22.95 cycles
cpu0_L1I TOTAL        ACCESS:     438261 HIT:     365204 MISS:      73057
cpu0_L1I LOAD         ACCESS:     145067 HIT:     126429 MISS:      18638
cpu0_L1I RFO          ACCESS:          0 HIT:          0 MISS:          0
cpu0_L1I PREFETCH     ACCESS:     293194 HIT:     238775 MISS:      54419
cpu0_L1I WRITE        ACCESS:          0 HIT:          0 MISS:          0
cpu0_L1I TRANSLATION  ACCESS:          0 HIT:          0 MISS:          0
cpu0_L1I PREFETCH REQUESTED:     444416 ISSUED:     293194 USEFUL:      29399 USELESS:      22231
cpu0_L1I AVERAGE MISS LATENCY: 29.66 cycles
cpu0_L2C TOTAL        ACCESS:     378793 HIT:     244092 MISS:     134701
cpu0_L2C LOAD         ACCESS:      51053 HIT:      30709 MISS:      20344
cpu0_L2C RFO          ACCESS:      50290 HIT:       4074 MISS:      46216
cpu0_L2C PREFETCH     ACCESS:     217479 HIT:     150440 MISS:      67039
cpu0_L2C WRITE        ACCESS:      58567 HIT:      58567 MISS:          0
cpu0_L2C TRANSLATION  ACCESS:       1404 HIT:        302 MISS:       1102
cpu0_L2C PREFETCH REQUESTED:     137137 ISSUED:     131395 USEFUL:       9355 USELESS:       9269
cpu0_L2C AVERAGE MISS LATENCY: 57.09 cycles
cpu0_STLB TOTAL        ACCESS:      10406 HIT:       8363 MISS:       2043
cpu0_STLB LOAD         ACCESS:      10406 HIT:       8363 MISS:       2043
cpu0_STLB RFO          ACCESS:          0 HIT:          0 MISS:          0
cpu0_STLB PREFETCH     ACCESS:          0 HIT:          0 MISS:          0
cpu0_STLB WRITE        ACCESS:          0 HIT:          0 MISS:          0
cpu0_STLB TRANSLATION  ACCESS:          0 HIT:          0 MISS:          0
cpu0_STLB PREFETCH REQUESTED:          0 ISSUED:          0 USEFUL:          0 USELESS:          0
cpu0_STLB AVERAGE MISS LATENCY: 145 cycles

DRAM Statistics

Channel 0 RQ ROW_BUFFER_HIT:       8150
  ROW_BUFFER_MISS:       9644
 AVG DBUS CONGESTED CYCLE: 3.859
WQ ROW_BUFFER_HIT: Channel 0 
  ROW_BUFFER_MISS:        816
  FULL:       3596

Channel 1 RQ ROW_BUFFER_HIT:       7880
  ROW_BUFFER_MISS:       9581
 AVG DBUS CONGESTED CYCLE: 3.829
WQ ROW_BUFFER_HIT: Channel 1 
  ROW_BUFFER_MISS:        762
  FULL:       3337
BERTI TO_L1: 799327 TO_L2: 859661 TO_L2_BC_MSHR: 392964
BERTI AVG_LAT: 47.4141 NUM_TRACK_LATENCY: 74723 NUM_CANT_TRACK_LATENCY: 0
BERTI CROSS_PAGE 314516 NO_CROSS_PAGE: 1344472
BERTI FOUND_BERTI: 475391 NO_FOUND_BERTI: 14462683
BERTI AVERAGE_ISSUED: 4.26156
CPU 0 L1I Entangling prefetcher final stats
IP accesses: 6f71 1bdc40 864 / 145584
IP misses: 24b7 92dc0 119 / 19155
IP hits: 0 0 0 / 0
IP late: 20a3 828c0 22 / 8900
IP wrong: f7ed 3dfb40 42 / 22143
miss rate: 0.131574
coverage: 0
coverage_late: 0.464631
accuracy: 0
accuracy_late: 0.2867
discarded: 0
evicts entangled j table: 0
evicts entangled k table: 2984
max bb size: 53
formats: 790 0 2706 1275 627 1334 0 
hist_lookups: 2724 2727 1946 1651 1418 1203 937 695 531 428 333 218 129 87 43 0 6 3394 
hist_lookups_evict: 0.0324852 %
hist_lookups_shortlat: 18.3758 %
bb_found_hist: 0 35894 14368 7679 3508 1659 736 509 189 46 12 54 36 20 12 15 2 0 0 0 0 4 0 0 0 0 0 0 0 0 0 2 0 0 2 0 0 0 0 0 0 0 0 0 0 0 0 0 0 0 0 0 0 2 0 0 0 0 0 0 0 0 0 0 
bb_found_summary: 122050 64749 1.88498
entangled_found_hist: 0 18053 13652 25530 5155 849 303 0 
entangled_found_summary: 148630 63542 2.33909
bb_ent_found_hist: 0 49909 20951 14058 6399 3706 1330 595 818 25 44 122 26 7 20 89 84 0 0 0 0 28 0 0 0 0 0 0 0 0 0 2 0 0 3 0 0 0 0 0 0 0 0 0 0 0 0 0 0 0 0 0 0 2 0 0 0 0 0 0 0 0 0 0 
bb_ent_found_summary: 203027 98218 2.06711
