WARNING: physical memory size is smaller than virtual memory size.

*** ChampSim Multicore Out-of-Order Simulator ***
Warmup Instructions: 30000000
Simulation Instructions: 100000000
Number of CPUs: 1
Page size: 4096

BTB:
Basic BTB sets: 1024 ways: 8
Indirect:
history lengths: 0 0 10 16 27 44 60 96 109 219 449 487 714 1313 2146 3881 
ITTAGE tables: 64768 bytes;Region table: 240 bytes;IUM: 384 bytes;Total Storage= 65392 bytes;
RAS:
RAS size: 64
[LLC] Demand IPV: 1 2 2 1 4 Prefetch IPV: 1 2 1 1 4
Berti Prefetcher
CPU 0 Entangling prefetcher
Off-chip DRAM Size: 8 GiB Channels: 2 Width: 64-bit Data Race: 6400 MT/s
Heartbeat CPU 0 instructions: 10000006 cycles: 1715484 heartbeat IPC: 5.829 cumulative IPC: 5.829 (Simulation time: 00 hr 00 min 30 sec)
Heartbeat CPU 0 instructions: 20000009 cycles: 3432052 heartbeat IPC: 5.826 cumulative IPC: 5.827 (Simulation time: 00 hr 00 min 58 sec)
Heartbeat CPU 0 instructions: 30000004 cycles: 5098820 heartbeat IPC: 6 cumulative IPC: 5.884 (Simulation time: 00 hr 01 min 25 sec)
Warmup finished CPU 0 instructions: 30000004 cycles: 5098821 cumulative IPC: 5.884 (Simulation time: 00 hr 01 min 25 sec)
Warmup complete CPU 0 instructions: 30000004 cycles: 5098821 cumulative IPC: 5.884 (Simulation time: 00 hr 01 min 25 sec)
*** Reached end of trace: (0, "../traces/secret_traces/crypto/crypto49.champsimtrace.xz")
Heartbeat CPU 0 instructions: 40000000 cycles: 7579823 heartbeat IPC: 4.031 cumulative IPC: 4.031 (Simulation time: 00 hr 02 min 06 sec)
Heartbeat CPU 0 instructions: 50000001 cycles: 9515410 heartbeat IPC: 5.166 cumulative IPC: 4.528 (Simulation time: 00 hr 02 min 42 sec)
Heartbeat CPU 0 instructions: 60000009 cycles: 11731340 heartbeat IPC: 4.513 cumulative IPC: 4.523 (Simulation time: 00 hr 03 min 21 sec)
*** Reached end of trace: (0, "../traces/secret_traces/crypto/crypto49.champsimtrace.xz")
Heartbeat CPU 0 instructions: 70000004 cycles: 14030883 heartbeat IPC: 4.349 cumulative IPC: 4.478 (Simulation time: 00 hr 04 min 01 sec)
Heartbeat CPU 0 instructions: 80000003 cycles: 15917743 heartbeat IPC: 5.3 cumulative IPC: 4.622 (Simulation time: 00 hr 04 min 39 sec)
Heartbeat CPU 0 instructions: 90000000 cycles: 18151438 heartbeat IPC: 4.477 cumulative IPC: 4.597 (Simulation time: 00 hr 05 min 22 sec)
*** Reached end of trace: (0, "../traces/secret_traces/crypto/crypto49.champsimtrace.xz")
Heartbeat CPU 0 instructions: 100000006 cycles: 20332371 heartbeat IPC: 4.585 cumulative IPC: 4.595 (Simulation time: 00 hr 06 min 06 sec)
Heartbeat CPU 0 instructions: 110000001 cycles: 22300242 heartbeat IPC: 5.082 cumulative IPC: 4.651 (Simulation time: 00 hr 06 min 47 sec)
Heartbeat CPU 0 instructions: 120000001 cycles: 24503911 heartbeat IPC: 4.538 cumulative IPC: 4.638 (Simulation time: 00 hr 07 min 31 sec)
*** Reached end of trace: (0, "../traces/secret_traces/crypto/crypto49.champsimtrace.xz")
Heartbeat CPU 0 instructions: 130000002 cycles: 26541114 heartbeat IPC: 4.909 cumulative IPC: 4.664 (Simulation time: 00 hr 08 min 07 sec)
Simulation finished CPU 0 instructions: 100000010 cycles: 21442295 cumulative IPC: 4.664 (Simulation time: 00 hr 08 min 07 sec)
Simulation complete CPU 0 instructions: 100000010 cycles: 21442295 cumulative IPC: 4.664 (Simulation time: 00 hr 08 min 07 sec)

ChampSim completed all CPUs

=== Simulation ===
CPU 0 runs ../traces/secret_traces/crypto/crypto49.champsimtrace.xz
Region of Interest Statistics

CPU 0 cumulative IPC: 4.664 instructions: 100000010 cycles: 21442295
CPU 0 Branch Prediction Accuracy: 98.52% MPKI: 0.8698 Average ROB Occupancy at Mispredict: 29.1
Branch type MPKI
BRANCH_DIRECT_JUMP: 0.0496
BRANCH_INDIRECT: 0.436
BRANCH_CONDITIONAL: 0.144
BRANCH_DIRECT_CALL: 0.144
BRANCH_INDIRECT_CALL: 0.0176
BRANCH_RETURN: 0.0789

LLC TOTAL        ACCESS:     368942 HIT:     281258 MISS:      87684
LLC LOAD         ACCESS:      40618 HIT:      20583 MISS:      20035
LLC RFO          ACCESS:     112884 HIT:     100291 MISS:      12593
LLC PREFETCH     ACCESS:      86615 HIT:      45750 MISS:      40865
LLC WRITE        ACCESS:     126617 HIT:     114207 MISS:      12410
LLC TRANSLATION  ACCESS:       2208 HIT:        427 MISS:       1781
LLC PREFETCH REQUESTED:          0 ISSUED:          0 USEFUL:          0 USELESS:          0
LLC AVERAGE MISS LATENCY: 134 cycles
cpu0_DTLB TOTAL        ACCESS:   10145692 HIT:   10110029 MISS:      35663
cpu0_DTLB LOAD         ACCESS:   10145692 HIT:   10110029 MISS:      35663
cpu0_DTLB RFO          ACCESS:          0 HIT:          0 MISS:          0
cpu0_DTLB PREFETCH     ACCESS:          0 HIT:          0 MISS:          0
cpu0_DTLB WRITE        ACCESS:          0 HIT:          0 MISS:          0
cpu0_DTLB TRANSLATION  ACCESS:          0 HIT:          0 MISS:          0
cpu0_DTLB PREFETCH REQUESTED:          0 ISSUED:          0 USEFUL:          0 USELESS:          0
cpu0_DTLB AVERAGE MISS LATENCY: 9.843 cycles
cpu0_ITLB TOTAL        ACCESS:     635963 HIT:     622422 MISS:      13541
cpu0_ITLB LOAD         ACCESS:     635963 HIT:     622422 MISS:      13541
cpu0_ITLB RFO          ACCESS:          0 HIT:          0 MISS:          0
cpu0_ITLB PREFETCH     ACCESS:          0 HIT:          0 MISS:          0
cpu0_ITLB WRITE        ACCESS:          0 HIT:          0 MISS:          0
cpu0_ITLB TRANSLATION  ACCESS:          0 HIT:          0 MISS:          0
cpu0_ITLB PREFETCH REQUESTED:          0 ISSUED:          0 USEFUL:          0 USELESS:          0
cpu0_ITLB AVERAGE MISS LATENCY: 19.54 cycles
cpu0_L1D TOTAL        ACCESS:   12821960 HIT:   12316382 MISS:     505578
cpu0_L1D LOAD         ACCESS:    9133292 HIT:    8998177 MISS:     135115
cpu0_L1D RFO          ACCESS:          0 HIT:          0 MISS:          0
cpu0_L1D PREFETCH     ACCESS:     526779 HIT:     448725 MISS:      78054
cpu0_L1D WRITE        ACCESS:    3157456 HIT:    2867906 MISS:     289550
cpu0_L1D TRANSLATION  ACCESS:       4433 HIT:       1574 MISS:       2859
cpu0_L1D PREFETCH REQUESTED:    2453087 ISSUED:     526779 USEFUL:       8188 USELESS:        918
cpu0_L1D AVERAGE MISS LATENCY: 22.02 cycles
cpu0_L1I TOTAL        ACCESS:     924554 HIT:     771706 MISS:     152848
cpu0_L1I LOAD         ACCESS:     302067 HIT:     267660 MISS:      34407
cpu0_L1I RFO          ACCESS:          0 HIT:          0 MISS:          0
cpu0_L1I PREFETCH     ACCESS:     622487 HIT:     504046 MISS:     118441
cpu0_L1I WRITE        ACCESS:          0 HIT:          0 MISS:          0
cpu0_L1I TRANSLATION  ACCESS:          0 HIT:          0 MISS:          0
cpu0_L1I PREFETCH REQUESTED:     950134 ISSUED:     622487 USEFUL:      65975 USELESS:      47182
cpu0_L1I AVERAGE MISS LATENCY: 29.47 cycles
cpu0_L2C TOTAL        ACCESS:     825733 HIT:     512091 MISS:     313642
cpu0_L2C LOAD         ACCESS:     110500 HIT:      61247 MISS:      49253
cpu0_L2C RFO          ACCESS:     121001 HIT:       8093 MISS:     112908
cpu0_L2C PREFETCH     ACCESS:     453041 HIT:     303768 MISS:     149273
cpu0_L2C WRITE        ACCESS:     138396 HIT:     138396 MISS:          0
cpu0_L2C TRANSLATION  ACCESS:       2795 HIT:        587 MISS:       2208
cpu0_L2C PREFETCH REQUESTED:     287486 ISSUED:     276059 USEFUL:      20603 USELESS:      20832
cpu0_L2C AVERAGE MISS LATENCY: 51.42 cycles
cpu0_STLB TOTAL        ACCESS:      22281 HIT:      18226 MISS:       4055
cpu0_STLB LOAD         ACCESS:      22281 HIT:      18226 MISS:       4055
cpu0_STLB RFO          ACCESS:          0 HIT:          0 MISS:          0
cpu0_STLB PREFETCH     ACCESS:          0 HIT:          0 MISS:          0
cpu0_STLB WRITE        ACCESS:          0 HIT:          0 MISS:          0
cpu0_STLB TRANSLATION  ACCESS:          0 HIT:          0 MISS:          0
cpu0_STLB PREFETCH REQUESTED:          0 ISSUED:          0 USEFUL:          0 USELESS:          0
cpu0_STLB AVERAGE MISS LATENCY: 126.9 cycles

DRAM Statistics

Channel 0 RQ ROW_BUFFER_HIT:      19352
  ROW_BUFFER_MISS:      19035
 AVG DBUS CONGESTED CYCLE: 3.836
WQ ROW_BUFFER_HIT: Channel 0 
  ROW_BUFFER_MISS:       1355
  FULL:       5353

Channel 1 RQ ROW_BUFFER_HIT:      18517
  ROW_BUFFER_MISS:      18355
 AVG DBUS CONGESTED CYCLE: 3.813
WQ ROW_BUFFER_HIT: Channel 1 
  ROW_BUFFER_MISS:       1173
  FULL:       4930
BERTI TO_L1: 1080489 TO_L2: 1874292 TO_L2_BC_MSHR: 889177
BERTI AVG_LAT: 55.9017 NUM_TRACK_LATENCY: 128493 NUM_CANT_TRACK_LATENCY: 0
BERTI CROSS_PAGE 553686 NO_CROSS_PAGE: 2401095
BERTI FOUND_BERTI: 2334774 NO_FOUND_BERTI: 9781262
BERTI AVERAGE_ISSUED: 3.84797
CPU 0 L1I Entangling prefetcher final stats
IP accesses: 6f71 1bdc40 1778 / 303111
IP misses: 25bf 96fc0 125 / 35451
IP hits: 0 0 0 / 0
IP late: 91b9 246e40 44 / 17283
IP wrong: f801 3e0040 108 / 46976
miss rate: 0.116958
coverage: 0
coverage_late: 0.487518
accuracy: 0
accuracy_late: 0.268959
discarded: 0
evicts entangled j table: 0
evicts entangled k table: 5807
max bb size: 53
formats: 1504 0 5076 2481 1067 2119 0 
hist_lookups: 4525 4875 3709 3179 2717 2313 1731 1267 953 811 582 443 325 141 76 0 21 5115 
hist_lookups_evict: 0.0640576 %
hist_lookups_shortlat: 15.6026 %
bb_found_hist: 0 75696 31705 15980 7264 3561 1615 1397 410 86 16 101 95 72 24 0 3 0 0 0 1 7 0 0 0 0 0 0 0 0 0 3 3 0 3 0 0 0 0 0 0 0 0 0 0 0 0 0 0 0 0 0 0 2 0 0 0 0 0 0 0 0 0 0 
bb_found_summary: 261725 138044 1.89596
entangled_found_hist: 0 41596 29664 53596 10605 1750 390 0 
entangled_found_summary: 315222 137601 2.29085
bb_ent_found_hist: 0 106727 47824 33038 11532 7354 3546 2028 1197 35 34 199 80 47 12 0 3 0 0 0 1 17 0 0 0 0 0 0 0 0 0 3 3 0 5 0 0 0 0 0 0 0 0 0 0 0 0 0 0 0 0 0 0 4 0 0 0 0 0 0 0 0 0 0 
bb_ent_found_summary: 435014 213689 2.03574
