WARNING: physical memory size is smaller than virtual memory size.

*** ChampSim Multicore Out-of-Order Simulator ***
Warmup Instructions: 30000000
Simulation Instructions: 100000000
Number of CPUs: 1
Page size: 4096

BTB:
Basic BTB sets: 1024 ways: 8
Indirect:
history lengths: 0 0 10 16 27 44 60 96 109 219 449 487 714 1313 2146 3881 
ITTAGE tables: 64768 bytes;Region table: 240 bytes;IUM: 384 bytes;Total Storage= 65392 bytes;
RAS:
RAS size: 64
[LLC] Demand IPV: 1 2 2 1 4 Prefetch IPV: 1 2 1 1 4
Berti Prefetcher
CPU 0 Entangling prefetcher
Off-chip DRAM Size: 8 GiB Channels: 2 Width: 64-bit Data Race: 6400 MT/s
Heartbeat CPU 0 instructions: 10000003 cycles: 1692645 heartbeat IPC: 5.908 cumulative IPC: 5.908 (Simulation time: 00 hr 00 min 34 sec)
Heartbeat CPU 0 instructions: 20000005 cycles: 3360419 heartbeat IPC: 5.996 cumulative IPC: 5.952 (Simulation time: 00 hr 01 min 04 sec)
Heartbeat CPU 0 instructions: 30000007 cycles: 5058585 heartbeat IPC: 5.889 cumulative IPC: 5.931 (Simulation time: 00 hr 01 min 39 sec)
Warmup finished CPU 0 instructions: 30000007 cycles: 5058586 cumulative IPC: 5.931 (Simulation time: 00 hr 01 min 39 sec)
Warmup complete CPU 0 instructions: 30000007 cycles: 5058586 cumulative IPC: 5.931 (Simulation time: 00 hr 01 min 39 sec)
Heartbeat CPU 0 instructions: 40000005 cycles: 8886150 heartbeat IPC: 2.613 cumulative IPC: 2.613 (Simulation time: 00 hr 02 min 34 sec)
Heartbeat CPU 0 instructions: 50000005 cycles: 10993487 heartbeat IPC: 4.745 cumulative IPC: 3.37 (Simulation time: 00 hr 03 min 12 sec)
Heartbeat CPU 0 instructions: 60000003 cycles: 12785951 heartbeat IPC: 5.579 cumulative IPC: 3.882 (Simulation time: 00 hr 03 min 47 sec)
Heartbeat CPU 0 instructions: 70000001 cycles: 15097338 heartbeat IPC: 4.326 cumulative IPC: 3.985 (Simulation time: 00 hr 04 min 27 sec)
Heartbeat CPU 0 instructions: 80000008 cycles: 19069601 heartbeat IPC: 2.517 cumulative IPC: 3.569 (Simulation time: 00 hr 05 min 24 sec)
Heartbeat CPU 0 instructions: 90000003 cycles: 22298646 heartbeat IPC: 3.097 cumulative IPC: 3.48 (Simulation time: 00 hr 06 min 15 sec)
Heartbeat CPU 0 instructions: 100000009 cycles: 24195328 heartbeat IPC: 5.272 cumulative IPC: 3.658 (Simulation time: 00 hr 06 min 51 sec)
*** Reached end of trace: (0, "../traces/secret_traces/crypto/crypto16.champsimtrace.xz")
Heartbeat CPU 0 instructions: 110000006 cycles: 27339559 heartbeat IPC: 3.18 cumulative IPC: 3.591 (Simulation time: 00 hr 07 min 40 sec)
Heartbeat CPU 0 instructions: 120000000 cycles: 30378815 heartbeat IPC: 3.29 cumulative IPC: 3.554 (Simulation time: 00 hr 08 min 25 sec)
Heartbeat CPU 0 instructions: 130000005 cycles: 32130664 heartbeat IPC: 5.708 cumulative IPC: 3.694 (Simulation time: 00 hr 08 min 59 sec)
Simulation finished CPU 0 instructions: 100000002 cycles: 27072080 cumulative IPC: 3.694 (Simulation time: 00 hr 08 min 59 sec)
Simulation complete CPU 0 instructions: 100000002 cycles: 27072080 cumulative IPC: 3.694 (Simulation time: 00 hr 08 min 59 sec)

ChampSim completed all CPUs

=== Simulation ===
CPU 0 runs ../traces/secret_traces/crypto/crypto16.champsimtrace.xz
Region of Interest Statistics

CPU 0 cumulative IPC: 3.694 instructions: 100000002 cycles: 27072080
CPU 0 Branch Prediction Accuracy: 96.62% MPKI: 4.355 Average ROB Occupancy at Mispredict: 29.34
Branch type MPKI
BRANCH_DIRECT_JUMP: 0.0933
BRANCH_INDIRECT: 1.42
BRANCH_CONDITIONAL: 1.86
BRANCH_DIRECT_CALL: 0.136
BRANCH_INDIRECT_CALL: 0.746
BRANCH_RETURN: 0.0918

LLC TOTAL        ACCESS:     177125 HIT:     124769 MISS:      52356
LLC LOAD         ACCESS:      23006 HIT:      14332 MISS:       8674
LLC RFO          ACCESS:      31148 HIT:      18832 MISS:      12316
LLC PREFETCH     ACCESS:      69595 HIT:      48736 MISS:      20859
LLC WRITE        ACCESS:      51761 HIT:      42269 MISS:       9492
LLC TRANSLATION  ACCESS:       1615 HIT:        600 MISS:       1015
LLC PREFETCH REQUESTED:          0 ISSUED:          0 USEFUL:          0 USELESS:          0
LLC AVERAGE MISS LATENCY: 102.6 cycles
cpu0_DTLB TOTAL        ACCESS:   16176626 HIT:   16081112 MISS:      95514
cpu0_DTLB LOAD         ACCESS:   16176626 HIT:   16081112 MISS:      95514
cpu0_DTLB RFO          ACCESS:          0 HIT:          0 MISS:          0
cpu0_DTLB PREFETCH     ACCESS:          0 HIT:          0 MISS:          0
cpu0_DTLB WRITE        ACCESS:          0 HIT:          0 MISS:          0
cpu0_DTLB TRANSLATION  ACCESS:          0 HIT:          0 MISS:          0
cpu0_DTLB PREFETCH REQUESTED:          0 ISSUED:          0 USEFUL:          0 USELESS:          0
cpu0_DTLB AVERAGE MISS LATENCY: 6.413 cycles
cpu0_ITLB TOTAL        ACCESS:    3079366 HIT:    3058170 MISS:      21196
cpu0_ITLB LOAD         ACCESS:    3079366 HIT:    3058170 MISS:      21196
cpu0_ITLB RFO          ACCESS:          0 HIT:          0 MISS:          0
cpu0_ITLB PREFETCH     ACCESS:          0 HIT:          0 MISS:          0
cpu0_ITLB WRITE        ACCESS:          0 HIT:          0 MISS:          0
cpu0_ITLB TRANSLATION  ACCESS:          0 HIT:          0 MISS:          0
cpu0_ITLB PREFETCH REQUESTED:          0 ISSUED:          0 USEFUL:          0 USELESS:          0
cpu0_ITLB AVERAGE MISS LATENCY: 7.795 cycles
cpu0_L1D TOTAL        ACCESS:   24981913 HIT:   23824615 MISS:    1157298
cpu0_L1D LOAD         ACCESS:   18749760 HIT:   17975425 MISS:     774335
cpu0_L1D RFO          ACCESS:          0 HIT:          0 MISS:          0
cpu0_L1D PREFETCH     ACCESS:     310431 HIT:     219056 MISS:      91375
cpu0_L1D WRITE        ACCESS:    5919403 HIT:    5629840 MISS:     289563
cpu0_L1D TRANSLATION  ACCESS:       2319 HIT:        294 MISS:       2025
cpu0_L1D PREFETCH REQUESTED:     523746 ISSUED:     310431 USEFUL:      12025 USELESS:       2511
cpu0_L1D AVERAGE MISS LATENCY: 7.424 cycles
cpu0_L1I TOTAL        ACCESS:    4594777 HIT:    3963271 MISS:     631506
cpu0_L1I LOAD         ACCESS:    1442941 HIT:    1243255 MISS:     199686
cpu0_L1I RFO          ACCESS:          0 HIT:          0 MISS:          0
cpu0_L1I PREFETCH     ACCESS:    3151836 HIT:    2720016 MISS:     431820
cpu0_L1I WRITE        ACCESS:          0 HIT:          0 MISS:          0
cpu0_L1I TRANSLATION  ACCESS:          0 HIT:          0 MISS:          0
cpu0_L1I PREFETCH REQUESTED:    5680345 ISSUED:    3151836 USEFUL:     214880 USELESS:     192195
cpu0_L1I AVERAGE MISS LATENCY: 13.21 cycles
cpu0_L2C TOTAL        ACCESS:    2469243 HIT:    2311935 MISS:     157308
cpu0_L2C LOAD         ACCESS:     611038 HIT:     585048 MISS:      25990
cpu0_L2C RFO          ACCESS:     112358 HIT:      80946 MISS:      31412
cpu0_L2C PREFETCH     ACCESS:    1531661 HIT:    1433372 MISS:      98289
cpu0_L2C WRITE        ACCESS:     212167 HIT:     212165 MISS:          2
cpu0_L2C TRANSLATION  ACCESS:       2019 HIT:        404 MISS:       1615
cpu0_L2C PREFETCH REQUESTED:    1103441 ISSUED:    1039259 USEFUL:      21673 USELESS:      15267
cpu0_L2C AVERAGE MISS LATENCY: 49.55 cycles
cpu0_STLB TOTAL        ACCESS:      74584 HIT:      72423 MISS:       2161
cpu0_STLB LOAD         ACCESS:      74584 HIT:      72423 MISS:       2161
cpu0_STLB RFO          ACCESS:          0 HIT:          0 MISS:          0
cpu0_STLB PREFETCH     ACCESS:          0 HIT:          0 MISS:          0
cpu0_STLB WRITE        ACCESS:          0 HIT:          0 MISS:          0
cpu0_STLB TRANSLATION  ACCESS:          0 HIT:          0 MISS:          0
cpu0_STLB PREFETCH REQUESTED:          0 ISSUED:          0 USEFUL:          0 USELESS:          0
cpu0_STLB AVERAGE MISS LATENCY: 146.6 cycles

DRAM Statistics

Channel 0 RQ ROW_BUFFER_HIT:       9106
  ROW_BUFFER_MISS:      12787
 AVG DBUS CONGESTED CYCLE: 3.679
WQ ROW_BUFFER_HIT: Channel 0 
  ROW_BUFFER_MISS:       1109
  FULL:       3878

Channel 1 RQ ROW_BUFFER_HIT:       8945
  ROW_BUFFER_MISS:      12025
 AVG DBUS CONGESTED CYCLE: 3.66
WQ ROW_BUFFER_HIT: Channel 1 
  ROW_BUFFER_MISS:       1058
  FULL:       3740
BERTI TO_L1: 367658 TO_L2: 291582 TO_L2_BC_MSHR: 11185
BERTI AVG_LAT: 13.0666 NUM_TRACK_LATENCY: 575168 NUM_CANT_TRACK_LATENCY: 0
BERTI CROSS_PAGE 98272 NO_CROSS_PAGE: 560968
BERTI FOUND_BERTI: 2149931 NO_FOUND_BERTI: 21888528
BERTI AVERAGE_ISSUED: 3.55805
CPU 0 L1I Entangling prefetcher final stats
IP accesses: b2c9 2cb240 5449 / 1449530
IP misses: a2e6 28b980 553 / 206275
IP hits: 0 0 0 / 0
IP late: e2a0 38a800 227 / 89517
IP wrong: e220 388800 576 / 190589
miss rate: 0.142305
coverage: 0
coverage_late: 0.43397
accuracy: 0
accuracy_late: 0.319583
discarded: 0
evicts entangled j table: 0
evicts entangled k table: 24736
max bb size: 67
formats: 182 1292 28494 6005 3183 8039 0 
hist_lookups: 18056 18897 15929 15403 13462 10688 8126 6125 4713 3673 2696 1819 1114 534 213 0 9 17774 
hist_lookups_evict: 0.00646408 %
hist_lookups_shortlat: 12.7659 %
bb_found_hist: 0 287489 158364 87986 54314 24289 18725 9944 7704 3853 2653 1148 1541 1283 513 578 471 200 293 333 305 104 332 0 0 50 0 0 0 59 0 0 0 0 0 0 0 0 0 18 0 11 0 0 0 32 0 0 0 0 0 59 0 0 0 0 0 0 0 0 0 5 23 0 
bb_found_summary: 1623743 662679 2.45028
entangled_found_hist: 0 152211 147287 305320 32381 7820 1722 0 
entangled_found_summary: 1541701 646741 2.3838
bb_ent_found_hist: 0 444419 242805 132950 89594 56945 30337 23769 20624 7934 11200 4512 1631 420 719 642 783 98 1211 1657 152 172 81 0 0 5 0 0 0 206 0 0 0 0 0 0 0 0 0 16 0 2 0 0 0 67 0 0 0 0 0 0 0 0 0 0 0 0 0 0 0 3 11 0 
bb_ent_found_summary: 2849737 1072965 2.65595
