WARNING: physical memory size is smaller than virtual memory size.

*** ChampSim Multicore Out-of-Order Simulator ***
Warmup Instructions: 30000000
Simulation Instructions: 100000000
Number of CPUs: 1
Page size: 4096

BTB:
Basic BTB sets: 1024 ways: 8
Indirect:
history lengths: 0 0 10 16 27 44 60 96 109 219 449 487 714 1313 2146 3881 
ITTAGE tables: 64768 bytes;Region table: 240 bytes;IUM: 384 bytes;Total Storage= 65392 bytes;
RAS:
RAS size: 64
[LLC] Demand IPV: 1 2 2 1 4 Prefetch IPV: 1 2 1 1 4
Berti Prefetcher
CPU 0 Entangling prefetcher
Off-chip DRAM Size: 8 GiB Channels: 2 Width: 64-bit Data Race: 6400 MT/s
Heartbeat CPU 0 instructions: 10000005 cycles: 1666736 heartbeat IPC: 6 cumulative IPC: 6 (Simulation time: 00 hr 00 min 29 sec)
Heartbeat CPU 0 instructions: 20000001 cycles: 3333402 heartbeat IPC: 6 cumulative IPC: 6 (Simulation time: 00 hr 00 min 58 sec)
Heartbeat CPU 0 instructions: 30000001 cycles: 5022201 heartbeat IPC: 5.921 cumulative IPC: 5.973 (Simulation time: 00 hr 01 min 30 sec)
Warmup finished CPU 0 instructions: 30000001 cycles: 5022202 cumulative IPC: 5.973 (Simulation time: 00 hr 01 min 30 sec)
Warmup complete CPU 0 instructions: 30000001 cycles: 5022202 cumulative IPC: 5.973 (Simulation time: 00 hr 01 min 30 sec)
Heartbeat CPU 0 instructions: 40000005 cycles: 7426995 heartbeat IPC: 4.158 cumulative IPC: 4.158 (Simulation time: 00 hr 02 min 13 sec)
Heartbeat CPU 0 instructions: 50000007 cycles: 9830183 heartbeat IPC: 4.161 cumulative IPC: 4.16 (Simulation time: 00 hr 02 min 55 sec)
Heartbeat CPU 0 instructions: 60000006 cycles: 12233134 heartbeat IPC: 4.162 cumulative IPC: 4.16 (Simulation time: 00 hr 03 min 38 sec)
Heartbeat CPU 0 instructions: 70000006 cycles: 14799434 heartbeat IPC: 3.897 cumulative IPC: 4.091 (Simulation time: 00 hr 04 min 26 sec)
Heartbeat CPU 0 instructions: 80000003 cycles: 17204296 heartbeat IPC: 4.158 cumulative IPC: 4.104 (Simulation time: 00 hr 05 min 11 sec)
Heartbeat CPU 0 instructions: 90000002 cycles: 19607415 heartbeat IPC: 4.161 cumulative IPC: 4.114 (Simulation time: 00 hr 06 min 00 sec)
Heartbeat CPU 0 instructions: 100000001 cycles: 21992465 heartbeat IPC: 4.193 cumulative IPC: 4.125 (Simulation time: 00 hr 06 min 42 sec)
*** Reached end of trace: (0, "../traces/secret_traces/crypto/crypto7.champsimtrace.xz")
Heartbeat CPU 0 instructions: 110000010 cycles: 24332077 heartbeat IPC: 4.274 cumulative IPC: 4.143 (Simulation time: 00 hr 07 min 27 sec)
Heartbeat CPU 0 instructions: 120000009 cycles: 26735035 heartbeat IPC: 4.162 cumulative IPC: 4.145 (Simulation time: 00 hr 08 min 12 sec)
Heartbeat CPU 0 instructions: 130000003 cycles: 28879517 heartbeat IPC: 4.663 cumulative IPC: 4.192 (Simulation time: 00 hr 08 min 54 sec)
Simulation finished CPU 0 instructions: 100000002 cycles: 23857316 cumulative IPC: 4.192 (Simulation time: 00 hr 08 min 54 sec)
Simulation complete CPU 0 instructions: 100000002 cycles: 23857316 cumulative IPC: 4.192 (Simulation time: 00 hr 08 min 54 sec)

ChampSim completed all CPUs

=== Simulation ===
CPU 0 runs ../traces/secret_traces/crypto/crypto7.champsimtrace.xz
Region of Interest Statistics

CPU 0 cumulative IPC: 4.192 instructions: 100000002 cycles: 23857316
CPU 0 Branch Prediction Accuracy: 99.83% MPKI: 0.1121 Average ROB Occupancy at Mispredict: 34.39
Branch type MPKI
BRANCH_DIRECT_JUMP: 0.00218
BRANCH_INDIRECT: 0.0595
BRANCH_CONDITIONAL: 0.02
BRANCH_DIRECT_CALL: 0.00275
BRANCH_INDIRECT_CALL: 0.00048
BRANCH_RETURN: 0.0272

LLC TOTAL        ACCESS:     171765 HIT:     117844 MISS:      53921
LLC LOAD         ACCESS:       7989 HIT:       5460 MISS:       2529
LLC RFO          ACCESS:      46107 HIT:      29623 MISS:      16484
LLC PREFETCH     ACCESS:      69318 HIT:      43590 MISS:      25728
LLC WRITE        ACCESS:      48056 HIT:      39098 MISS:       8958
LLC TRANSLATION  ACCESS:        295 HIT:         73 MISS:        222
LLC PREFETCH REQUESTED:          0 ISSUED:          0 USEFUL:          0 USELESS:          0
LLC AVERAGE MISS LATENCY: 89.94 cycles
cpu0_DTLB TOTAL        ACCESS:   11355060 HIT:   11344122 MISS:      10938
cpu0_DTLB LOAD         ACCESS:   11355060 HIT:   11344122 MISS:      10938
cpu0_DTLB RFO          ACCESS:          0 HIT:          0 MISS:          0
cpu0_DTLB PREFETCH     ACCESS:          0 HIT:          0 MISS:          0
cpu0_DTLB WRITE        ACCESS:          0 HIT:          0 MISS:          0
cpu0_DTLB TRANSLATION  ACCESS:          0 HIT:          0 MISS:          0
cpu0_DTLB PREFETCH REQUESTED:          0 ISSUED:          0 USEFUL:          0 USELESS:          0
cpu0_DTLB AVERAGE MISS LATENCY: 9.373 cycles
cpu0_ITLB TOTAL        ACCESS:     148034 HIT:     146686 MISS:       1348
cpu0_ITLB LOAD         ACCESS:     148034 HIT:     146686 MISS:       1348
cpu0_ITLB RFO          ACCESS:          0 HIT:          0 MISS:          0
cpu0_ITLB PREFETCH     ACCESS:          0 HIT:          0 MISS:          0
cpu0_ITLB WRITE        ACCESS:          0 HIT:          0 MISS:          0
cpu0_ITLB TRANSLATION  ACCESS:          0 HIT:          0 MISS:          0
cpu0_ITLB PREFETCH REQUESTED:          0 ISSUED:          0 USEFUL:          0 USELESS:          0
cpu0_ITLB AVERAGE MISS LATENCY: 27.6 cycles
cpu0_L1D TOTAL        ACCESS:   15822939 HIT:   15551209 MISS:     271730
cpu0_L1D LOAD         ACCESS:    8282958 HIT:    8266657 MISS:      16301
cpu0_L1D RFO          ACCESS:          0 HIT:          0 MISS:          0
cpu0_L1D PREFETCH     ACCESS:    3119713 HIT:    2974062 MISS:     145651
cpu0_L1D WRITE        ACCESS:    4419617 HIT:    4310162 MISS:     109455
cpu0_L1D TRANSLATION  ACCESS:        651 HIT:        328 MISS:        323
cpu0_L1D PREFETCH REQUESTED:    3443082 ISSUED:    3119713 USEFUL:      62694 USELESS:         71
cpu0_L1D AVERAGE MISS LATENCY: 19.88 cycles
cpu0_L1I TOTAL        ACCESS:     217428 HIT:     190888 MISS:      26540
cpu0_L1I LOAD         ACCESS:      64780 HIT:      54813 MISS:       9967
cpu0_L1I RFO          ACCESS:          0 HIT:          0 MISS:          0
cpu0_L1I PREFETCH     ACCESS:     152648 HIT:     136075 MISS:      16573
cpu0_L1I WRITE        ACCESS:          0 HIT:          0 MISS:          0
cpu0_L1I TRANSLATION  ACCESS:          0 HIT:          0 MISS:          0
cpu0_L1I PREFETCH REQUESTED:     188941 ISSUED:     152648 USEFUL:       7636 USELESS:       6501
cpu0_L1I AVERAGE MISS LATENCY: 24.69 cycles
cpu0_L2C TOTAL        ACCESS:     465071 HIT:     310125 MISS:     154946
cpu0_L2C LOAD         ACCESS:      17180 HIT:       8860 MISS:       8320
cpu0_L2C RFO          ACCESS:      54809 HIT:       8694 MISS:      46115
cpu0_L2C PREFETCH     ACCESS:     335076 HIT:     234872 MISS:     100204
cpu0_L2C WRITE        ACCESS:      57683 HIT:      57671 MISS:         12
cpu0_L2C TRANSLATION  ACCESS:        323 HIT:         28 MISS:        295
cpu0_L2C PREFETCH REQUESTED:     176865 ISSUED:     175392 USEFUL:      43379 USELESS:      13774
cpu0_L2C AVERAGE MISS LATENCY: 47.68 cycles
cpu0_STLB TOTAL        ACCESS:       4916 HIT:       4308 MISS:        608
cpu0_STLB LOAD         ACCESS:       4916 HIT:       4308 MISS:        608
cpu0_STLB RFO          ACCESS:          0 HIT:          0 MISS:          0
cpu0_STLB PREFETCH     ACCESS:          0 HIT:          0 MISS:          0
cpu0_STLB WRITE        ACCESS:          0 HIT:          0 MISS:          0
cpu0_STLB TRANSLATION  ACCESS:          0 HIT:          0 MISS:          0
cpu0_STLB PREFETCH REQUESTED:          0 ISSUED:          0 USEFUL:          0 USELESS:          0
cpu0_STLB AVERAGE MISS LATENCY: 196.5 cycles

DRAM Statistics

Channel 0 RQ ROW_BUFFER_HIT:      13846
  ROW_BUFFER_MISS:       8660
 AVG DBUS CONGESTED CYCLE: 3.729
WQ ROW_BUFFER_HIT: Channel 0 
  ROW_BUFFER_MISS:        529
  FULL:       3098

Channel 1 RQ ROW_BUFFER_HIT:      14159
  ROW_BUFFER_MISS:       8297
 AVG DBUS CONGESTED CYCLE: 3.731
WQ ROW_BUFFER_HIT: Channel 1 
  ROW_BUFFER_MISS:        561
  FULL:       2931
BERTI TO_L1: 4412586 TO_L2: 434321 TO_L2_BC_MSHR: 41
BERTI AVG_LAT: 39.8898 NUM_TRACK_LATENCY: 105088 NUM_CANT_TRACK_LATENCY: 0
BERTI CROSS_PAGE 607917 NO_CROSS_PAGE: 4238990
BERTI FOUND_BERTI: 535930 NO_FOUND_BERTI: 11845076
BERTI AVERAGE_ISSUED: 12.873
CPU 0 L1I Entangling prefetcher final stats
IP accesses: 9dc0 277000 494 / 65597
IP misses: 2acd ab340 51 / 10784
IP hits: 0 0 0 / 0
IP late: 7f07 1fc1c0 20 / 4967
IP wrong: 7507 1d41c0 67 / 6448
miss rate: 0.164398
coverage: 0
coverage_late: 0.46059
accuracy: 0
accuracy_late: 0.43513
discarded: 0
evicts entangled j table: 0
evicts entangled k table: 1363
max bb size: 67
formats: 60 318 1443 367 498 549 0 
hist_lookups: 1201 1154 854 742 640 553 455 355 260 195 137 101 70 42 20 0 0 1768 
hist_lookups_evict: 0 %
hist_lookups_shortlat: 20.6857 %
bb_found_hist: 0 10682 3458 3079 2061 306 558 155 300 33 39 83 155 336 6 12 14 58 15 0 0 1 66 0 0 7 0 5 97 15 0 0 0 0 0 0 0 0 0 0 0 0 0 0 0 0 0 0 0 0 0 0 0 0 0 0 0 0 0 0 0 0 0 0 
bb_found_summary: 57948 21541 2.69013
entangled_found_hist: 0 5738 5940 9223 1958 1363 0 0 
entangled_found_summary: 59934 24222 2.47437
bb_ent_found_hist: 0 17526 5092 6183 2357 331 632 317 153 90 17 75 270 438 13 20 32 0 201 0 0 1 18 0 0 2 0 7 0 20 0 0 0 0 0 0 0 0 0 0 0 0 0 0 0 0 0 0 0 0 0 0 0 0 0 0 0 0 0 0 0 0 0 0 
bb_ent_found_summary: 81164 33795 2.40166
