WARNING: physical memory size is smaller than virtual memory size.

*** ChampSim Multicore Out-of-Order Simulator ***
Warmup Instructions: 30000000
Simulation Instructions: 100000000
Number of CPUs: 1
Page size: 4096

BTB:
Basic BTB sets: 1024 ways: 8
Indirect:
history lengths: 0 0 10 16 27 44 60 96 109 219 449 487 714 1313 2146 3881 
ITTAGE tables: 64768 bytes;Region table: 240 bytes;IUM: 384 bytes;Total Storage= 65392 bytes;
RAS:
RAS size: 64
[LLC] Demand IPV: 1 2 2 1 4 Prefetch IPV: 1 2 1 1 4
Berti Prefetcher
CPU 0 Entangling prefetcher
Off-chip DRAM Size: 8 GiB Channels: 2 Width: 64-bit Data Race: 6400 MT/s
Heartbeat CPU 0 instructions: 10000001 cycles: 1716072 heartbeat IPC: 5.827 cumulative IPC: 5.827 (Simulation time: 00 hr 00 min 32 sec)
Heartbeat CPU 0 instructions: 20000000 cycles: 3433165 heartbeat IPC: 5.824 cumulative IPC: 5.826 (Simulation time: 00 hr 01 min 01 sec)
Heartbeat CPU 0 instructions: 30000001 cycles: 5100886 heartbeat IPC: 5.996 cumulative IPC: 5.881 (Simulation time: 00 hr 01 min 29 sec)
Warmup finished CPU 0 instructions: 30000001 cycles: 5100887 cumulative IPC: 5.881 (Simulation time: 00 hr 01 min 29 sec)
Warmup complete CPU 0 instructions: 30000001 cycles: 5100887 cumulative IPC: 5.881 (Simulation time: 00 hr 01 min 29 sec)
Heartbeat CPU 0 instructions: 40000003 cycles: 6769782 heartbeat IPC: 5.992 cumulative IPC: 5.992 (Simulation time: 00 hr 02 min 00 sec)
Heartbeat CPU 0 instructions: 50000009 cycles: 8438903 heartbeat IPC: 5.991 cumulative IPC: 5.992 (Simulation time: 00 hr 02 min 33 sec)
Heartbeat CPU 0 instructions: 60000005 cycles: 10114609 heartbeat IPC: 5.968 cumulative IPC: 5.984 (Simulation time: 00 hr 03 min 09 sec)
Heartbeat CPU 0 instructions: 70000001 cycles: 11782386 heartbeat IPC: 5.996 cumulative IPC: 5.987 (Simulation time: 00 hr 03 min 44 sec)
Heartbeat CPU 0 instructions: 80000003 cycles: 13450527 heartbeat IPC: 5.995 cumulative IPC: 5.988 (Simulation time: 00 hr 04 min 18 sec)
Heartbeat CPU 0 instructions: 90000002 cycles: 15118505 heartbeat IPC: 5.995 cumulative IPC: 5.989 (Simulation time: 00 hr 04 min 49 sec)
Heartbeat CPU 0 instructions: 100000006 cycles: 16786325 heartbeat IPC: 5.996 cumulative IPC: 5.99 (Simulation time: 00 hr 05 min 22 sec)
Heartbeat CPU 0 instructions: 110000002 cycles: 18454174 heartbeat IPC: 5.996 cumulative IPC: 5.991 (Simulation time: 00 hr 05 min 57 sec)
Heartbeat CPU 0 instructions: 120000000 cycles: 20122086 heartbeat IPC: 5.996 cumulative IPC: 5.992 (Simulation time: 00 hr 06 min 28 sec)
*** Reached end of trace: (0, "../traces/secret_traces/crypto/crypto85.champsimtrace.xz")
Heartbeat CPU 0 instructions: 130000002 cycles: 22202812 heartbeat IPC: 4.806 cumulative IPC: 5.847 (Simulation time: 00 hr 07 min 05 sec)
Simulation finished CPU 0 instructions: 100000001 cycles: 17101926 cumulative IPC: 5.847 (Simulation time: 00 hr 07 min 05 sec)
Simulation complete CPU 0 instructions: 100000001 cycles: 17101926 cumulative IPC: 5.847 (Simulation time: 00 hr 07 min 05 sec)

ChampSim completed all CPUs

=== Simulation ===
CPU 0 runs ../traces/secret_traces/crypto/crypto85.champsimtrace.xz
Region of Interest Statistics

CPU 0 cumulative IPC: 5.847 instructions: 100000001 cycles: 17101926
CPU 0 Branch Prediction Accuracy: 97.98% MPKI: 0.1201 Average ROB Occupancy at Mispredict: 23.67
Branch type MPKI
BRANCH_DIRECT_JUMP: 0.00573
BRANCH_INDIRECT: 0.0543
BRANCH_CONDITIONAL: 0.0342
BRANCH_DIRECT_CALL: 0.0159
BRANCH_INDIRECT_CALL: 0.00168
BRANCH_RETURN: 0.00832

LLC TOTAL        ACCESS:      26183 HIT:      16933 MISS:       9250
LLC LOAD         ACCESS:       2593 HIT:       1351 MISS:       1242
LLC RFO          ACCESS:       6040 HIT:       5002 MISS:       1038
LLC PREFETCH     ACCESS:       7356 HIT:       3666 MISS:       3690
LLC WRITE        ACCESS:       9954 HIT:       6883 MISS:       3071
LLC TRANSLATION  ACCESS:        240 HIT:         31 MISS:        209
LLC PREFETCH REQUESTED:          0 ISSUED:          0 USEFUL:          0 USELESS:          0
LLC AVERAGE MISS LATENCY: 108.2 cycles
cpu0_DTLB TOTAL        ACCESS:    8294780 HIT:    8292201 MISS:       2579
cpu0_DTLB LOAD         ACCESS:    8294780 HIT:    8292201 MISS:       2579
cpu0_DTLB RFO          ACCESS:          0 HIT:          0 MISS:          0
cpu0_DTLB PREFETCH     ACCESS:          0 HIT:          0 MISS:          0
cpu0_DTLB WRITE        ACCESS:          0 HIT:          0 MISS:          0
cpu0_DTLB TRANSLATION  ACCESS:          0 HIT:          0 MISS:          0
cpu0_DTLB PREFETCH REQUESTED:          0 ISSUED:          0 USEFUL:          0 USELESS:          0
cpu0_DTLB AVERAGE MISS LATENCY: 15.22 cycles
cpu0_ITLB TOTAL        ACCESS:     252651 HIT:     250878 MISS:       1773
cpu0_ITLB LOAD         ACCESS:     252651 HIT:     250878 MISS:       1773
cpu0_ITLB RFO          ACCESS:          0 HIT:          0 MISS:          0
cpu0_ITLB PREFETCH     ACCESS:          0 HIT:          0 MISS:          0
cpu0_ITLB WRITE        ACCESS:          0 HIT:          0 MISS:          0
cpu0_ITLB TRANSLATION  ACCESS:          0 HIT:          0 MISS:          0
cpu0_ITLB PREFETCH REQUESTED:          0 ISSUED:          0 USEFUL:          0 USELESS:          0
cpu0_ITLB AVERAGE MISS LATENCY: 23.76 cycles
cpu0_L1D TOTAL        ACCESS:    8910541 HIT:    8872779 MISS:      37762
cpu0_L1D LOAD         ACCESS:    5343679 HIT:    5336612 MISS:       7067
cpu0_L1D RFO          ACCESS:          0 HIT:          0 MISS:          0
cpu0_L1D PREFETCH     ACCESS:     379445 HIT:     363528 MISS:      15917
cpu0_L1D WRITE        ACCESS:    3187039 HIT:    3172555 MISS:      14484
cpu0_L1D TRANSLATION  ACCESS:        378 HIT:         84 MISS:        294
cpu0_L1D PREFETCH REQUESTED:     435265 ISSUED:     379445 USEFUL:        698 USELESS:        116
cpu0_L1D AVERAGE MISS LATENCY: 18.16 cycles
cpu0_L1I TOTAL        ACCESS:     370568 HIT:     349351 MISS:      21217
cpu0_L1I LOAD         ACCESS:     147411 HIT:     140298 MISS:       7113
cpu0_L1I RFO          ACCESS:          0 HIT:          0 MISS:          0
cpu0_L1I PREFETCH     ACCESS:     223157 HIT:     209053 MISS:      14104
cpu0_L1I WRITE        ACCESS:          0 HIT:          0 MISS:          0
cpu0_L1I TRANSLATION  ACCESS:          0 HIT:          0 MISS:          0
cpu0_L1I PREFETCH REQUESTED:     609216 ISSUED:     223157 USEFUL:       6919 USELESS:       6172
cpu0_L1I AVERAGE MISS LATENCY: 22.63 cycles
cpu0_L2C TOTAL        ACCESS:      89406 HIT:      69039 MISS:      20367
cpu0_L2C LOAD         ACCESS:       9857 HIT:       6795 MISS:       3062
cpu0_L2C RFO          ACCESS:       6443 HIT:        401 MISS:       6042
cpu0_L2C PREFETCH     ACCESS:      65619 HIT:      54596 MISS:      11023
cpu0_L2C WRITE        ACCESS:       7195 HIT:       7195 MISS:          0
cpu0_L2C TRANSLATION  ACCESS:        292 HIT:         52 MISS:        240
cpu0_L2C PREFETCH REQUESTED:      38005 ISSUED:      37471 USEFUL:       1784 USELESS:        908
cpu0_L2C AVERAGE MISS LATENCY: 63.44 cycles
cpu0_STLB TOTAL        ACCESS:       2343 HIT:       1997 MISS:        346
cpu0_STLB LOAD         ACCESS:       2343 HIT:       1997 MISS:        346
cpu0_STLB RFO          ACCESS:          0 HIT:          0 MISS:          0
cpu0_STLB PREFETCH     ACCESS:          0 HIT:          0 MISS:          0
cpu0_STLB WRITE        ACCESS:          0 HIT:          0 MISS:          0
cpu0_STLB TRANSLATION  ACCESS:          0 HIT:          0 MISS:          0
cpu0_STLB PREFETCH REQUESTED:          0 ISSUED:          0 USEFUL:          0 USELESS:          0
cpu0_STLB AVERAGE MISS LATENCY: 196.4 cycles

DRAM Statistics

Channel 0 RQ ROW_BUFFER_HIT:       1238
  ROW_BUFFER_MISS:       1889
 AVG DBUS CONGESTED CYCLE: 3.843
WQ ROW_BUFFER_HIT: Channel 0 
  ROW_BUFFER_MISS:        162
  FULL:        780

Channel 1 RQ ROW_BUFFER_HIT:       1195
  ROW_BUFFER_MISS:       1857
 AVG DBUS CONGESTED CYCLE: 3.811
WQ ROW_BUFFER_HIT: Channel 1 
  ROW_BUFFER_MISS:        167
  FULL:        689
BERTI TO_L1: 841071 TO_L2: 326716 TO_L2_BC_MSHR: 47914
BERTI AVG_LAT: 28.1705 NUM_TRACK_LATENCY: 37865 NUM_CANT_TRACK_LATENCY: 0
BERTI CROSS_PAGE 295349 NO_CROSS_PAGE: 872438
BERTI FOUND_BERTI: 416010 NO_FOUND_BERTI: 7250219
BERTI AVERAGE_ISSUED: 6.77855
CPU 0 L1I Entangling prefetcher final stats
IP accesses: 1f31 7cc40 5821 / 147413
IP misses: 7b6c 1edb00 39 / 7115
IP hits: 0 0 0 / 0
IP late: f9b1 3e6c40 11 / 3047
IP wrong: 7b77 1eddc0 16 / 6138
miss rate: 0.0482658
coverage: 0
coverage_late: 0.428251
accuracy: 0
accuracy_late: 0.331737
discarded: 0
evicts entangled j table: 0
evicts entangled k table: 1006
max bb size: 56
formats: 271 0 878 428 214 482 0 
hist_lookups: 1023 972 659 625 516 371 304 206 164 141 108 85 68 17 5 0 0 2576 
hist_lookups_evict: 0 %
hist_lookups_shortlat: 32.8572 %
bb_found_hist: 0 29580 8900 8911 2113 758 136 112 41 13 738 18 5 0 621 322 213 0 0 0 318 1 255 433 0 120 0 153 0 0 1 0 368 0 0 0 0 0 0 0 0 0 0 0 0 0 0 0 0 0 0 0 0 328 0 0 328 0 0 0 0 0 0 0 
bb_found_summary: 189609 54786 3.46091
entangled_found_hist: 0 9751 9754 29684 2920 971 380 0 
entangled_found_summary: 137126 53460 2.56503
bb_ent_found_hist: 0 54291 9605 13915 5170 1719 474 125 148 6 635 16 8 0 0 12 192 0 0 0 16 3 0 458 0 0 0 0 0 0 0 0 0 0 0 0 0 0 0 0 0 0 0 0 0 0 0 0 0 0 0 0 0 617 0 0 1583 0 0 0 0 0 0 0 
bb_ent_found_summary: 291618 88993 3.27687
