WARNING: physical memory size is smaller than virtual memory size.

*** ChampSim Multicore Out-of-Order Simulator ***
Warmup Instructions: 30000000
Simulation Instructions: 100000000
Number of CPUs: 1
Page size: 4096

BTB:
Basic BTB sets: 1024 ways: 8
Indirect:
history lengths: 0 0 10 16 27 44 60 96 109 219 449 487 714 1313 2146 3881 
ITTAGE tables: 64768 bytes;Region table: 240 bytes;IUM: 384 bytes;Total Storage= 65392 bytes;
RAS:
RAS size: 64
[LLC] Demand IPV: 1 2 2 1 4 Prefetch IPV: 1 2 1 1 4
Berti Prefetcher
CPU 0 Entangling prefetcher
Off-chip DRAM Size: 8 GiB Channels: 2 Width: 64-bit Data Race: 6400 MT/s
Heartbeat CPU 0 instructions: 10000005 cycles: 1715434 heartbeat IPC: 5.829 cumulative IPC: 5.829 (Simulation time: 00 hr 00 min 33 sec)
Heartbeat CPU 0 instructions: 20000001 cycles: 3431878 heartbeat IPC: 5.826 cumulative IPC: 5.828 (Simulation time: 00 hr 01 min 07 sec)
Heartbeat CPU 0 instructions: 30000004 cycles: 5098602 heartbeat IPC: 6 cumulative IPC: 5.884 (Simulation time: 00 hr 01 min 40 sec)
Warmup finished CPU 0 instructions: 30000004 cycles: 5098603 cumulative IPC: 5.884 (Simulation time: 00 hr 01 min 40 sec)
Warmup complete CPU 0 instructions: 30000004 cycles: 5098603 cumulative IPC: 5.884 (Simulation time: 00 hr 01 min 40 sec)
*** Reached end of trace: (0, "../traces/secret_traces/crypto/crypto74.champsimtrace.xz")
Heartbeat CPU 0 instructions: 40000001 cycles: 7661859 heartbeat IPC: 3.901 cumulative IPC: 3.901 (Simulation time: 00 hr 02 min 29 sec)
Heartbeat CPU 0 instructions: 50000004 cycles: 10087488 heartbeat IPC: 4.123 cumulative IPC: 4.009 (Simulation time: 00 hr 03 min 18 sec)
Heartbeat CPU 0 instructions: 60000001 cycles: 12066562 heartbeat IPC: 5.053 cumulative IPC: 4.305 (Simulation time: 00 hr 03 min 59 sec)
*** Reached end of trace: (0, "../traces/secret_traces/crypto/crypto74.champsimtrace.xz")
Heartbeat CPU 0 instructions: 70000000 cycles: 14491691 heartbeat IPC: 4.123 cumulative IPC: 4.258 (Simulation time: 00 hr 04 min 42 sec)
Heartbeat CPU 0 instructions: 80000006 cycles: 16850226 heartbeat IPC: 4.24 cumulative IPC: 4.255 (Simulation time: 00 hr 05 min 24 sec)
Heartbeat CPU 0 instructions: 90000002 cycles: 18815056 heartbeat IPC: 5.089 cumulative IPC: 4.374 (Simulation time: 00 hr 06 min 08 sec)
*** Reached end of trace: (0, "../traces/secret_traces/crypto/crypto74.champsimtrace.xz")
Heartbeat CPU 0 instructions: 100000006 cycles: 21209928 heartbeat IPC: 4.176 cumulative IPC: 4.345 (Simulation time: 00 hr 06 min 55 sec)
Heartbeat CPU 0 instructions: 110000000 cycles: 23174751 heartbeat IPC: 5.09 cumulative IPC: 4.426 (Simulation time: 00 hr 07 min 34 sec)
Heartbeat CPU 0 instructions: 120000004 cycles: 25503471 heartbeat IPC: 4.294 cumulative IPC: 4.411 (Simulation time: 00 hr 08 min 17 sec)
*** Reached end of trace: (0, "../traces/secret_traces/crypto/crypto74.champsimtrace.xz")
Heartbeat CPU 0 instructions: 130000001 cycles: 27879242 heartbeat IPC: 4.209 cumulative IPC: 4.39 (Simulation time: 00 hr 09 min 00 sec)
Simulation finished CPU 0 instructions: 100000002 cycles: 22780642 cumulative IPC: 4.39 (Simulation time: 00 hr 09 min 00 sec)
Simulation complete CPU 0 instructions: 100000002 cycles: 22780642 cumulative IPC: 4.39 (Simulation time: 00 hr 09 min 00 sec)

ChampSim completed all CPUs

=== Simulation ===
CPU 0 runs ../traces/secret_traces/crypto/crypto74.champsimtrace.xz
Region of Interest Statistics

CPU 0 cumulative IPC: 4.39 instructions: 100000002 cycles: 22780642
CPU 0 Branch Prediction Accuracy: 98.32% MPKI: 0.9534 Average ROB Occupancy at Mispredict: 31.61
Branch type MPKI
BRANCH_DIRECT_JUMP: 0.0531
BRANCH_INDIRECT: 0.486
BRANCH_CONDITIONAL: 0.154
BRANCH_DIRECT_CALL: 0.155
BRANCH_INDIRECT_CALL: 0.0199
BRANCH_RETURN: 0.0847

LLC TOTAL        ACCESS:     391565 HIT:     294610 MISS:      96955
LLC LOAD         ACCESS:      41476 HIT:      20999 MISS:      20477
LLC RFO          ACCESS:     117833 HIT:     103244 MISS:      14589
LLC PREFETCH     ACCESS:      96051 HIT:      50905 MISS:      45146
LLC WRITE        ACCESS:     133842 HIT:     119051 MISS:      14791
LLC TRANSLATION  ACCESS:       2363 HIT:        411 MISS:       1952
LLC PREFETCH REQUESTED:          0 ISSUED:          0 USEFUL:          0 USELESS:          0
LLC AVERAGE MISS LATENCY: 134.5 cycles
cpu0_DTLB TOTAL        ACCESS:   14407005 HIT:   14368774 MISS:      38231
cpu0_DTLB LOAD         ACCESS:   14407005 HIT:   14368774 MISS:      38231
cpu0_DTLB RFO          ACCESS:          0 HIT:          0 MISS:          0
cpu0_DTLB PREFETCH     ACCESS:          0 HIT:          0 MISS:          0
cpu0_DTLB WRITE        ACCESS:          0 HIT:          0 MISS:          0
cpu0_DTLB TRANSLATION  ACCESS:          0 HIT:          0 MISS:          0
cpu0_DTLB PREFETCH REQUESTED:          0 ISSUED:          0 USEFUL:          0 USELESS:          0
cpu0_DTLB AVERAGE MISS LATENCY: 10.35 cycles
cpu0_ITLB TOTAL        ACCESS:     679472 HIT:     664996 MISS:      14476
cpu0_ITLB LOAD         ACCESS:     679472 HIT:     664996 MISS:      14476
cpu0_ITLB RFO          ACCESS:          0 HIT:          0 MISS:          0
cpu0_ITLB PREFETCH     ACCESS:          0 HIT:          0 MISS:          0
cpu0_ITLB WRITE        ACCESS:          0 HIT:          0 MISS:          0
cpu0_ITLB TRANSLATION  ACCESS:          0 HIT:          0 MISS:          0
cpu0_ITLB PREFETCH REQUESTED:          0 ISSUED:          0 USEFUL:          0 USELESS:          0
cpu0_ITLB AVERAGE MISS LATENCY: 19.78 cycles
cpu0_L1D TOTAL        ACCESS:   26798556 HIT:   26248513 MISS:     550043
cpu0_L1D LOAD         ACCESS:    8957559 HIT:    8811418 MISS:     146141
cpu0_L1D RFO          ACCESS:          0 HIT:          0 MISS:          0
cpu0_L1D PREFETCH     ACCESS:   14731014 HIT:   14634112 MISS:      96902
cpu0_L1D WRITE        ACCESS:    3105069 HIT:    2801200 MISS:     303869
cpu0_L1D TRANSLATION  ACCESS:       4914 HIT:       1783 MISS:       3131
cpu0_L1D PREFETCH REQUESTED:   18784855 ISSUED:   14731014 USEFUL:      12258 USELESS:       1649
cpu0_L1D AVERAGE MISS LATENCY: 21.79 cycles
cpu0_L1I TOTAL        ACCESS:     990126 HIT:     828874 MISS:     161252
cpu0_L1I LOAD         ACCESS:     323387 HIT:     286782 MISS:      36605
cpu0_L1I RFO          ACCESS:          0 HIT:          0 MISS:          0
cpu0_L1I PREFETCH     ACCESS:     666739 HIT:     542092 MISS:     124647
cpu0_L1I WRITE        ACCESS:          0 HIT:          0 MISS:          0
cpu0_L1I TRANSLATION  ACCESS:          0 HIT:          0 MISS:          0
cpu0_L1I PREFETCH REQUESTED:    1026094 ISSUED:     666739 USEFUL:      69407 USELESS:      49766
cpu0_L1I AVERAGE MISS LATENCY: 30.63 cycles
cpu0_L2C TOTAL        ACCESS:     901272 HIT:     567046 MISS:     334226
cpu0_L2C LOAD         ACCESS:     118908 HIT:      68804 MISS:      50104
cpu0_L2C RFO          ACCESS:     127854 HIT:       9978 MISS:     117876
cpu0_L2C PREFETCH     ACCESS:     501550 HIT:     337667 MISS:     163883
cpu0_L2C WRITE        ACCESS:     149914 HIT:     149914 MISS:          0
cpu0_L2C TRANSLATION  ACCESS:       3046 HIT:        683 MISS:       2363
cpu0_L2C PREFETCH REQUESTED:     318080 ISSUED:     302378 USEFUL:      23246 USELESS:      22784
cpu0_L2C AVERAGE MISS LATENCY: 53.13 cycles
cpu0_STLB TOTAL        ACCESS:      23707 HIT:      19171 MISS:       4536
cpu0_STLB LOAD         ACCESS:      23707 HIT:      19171 MISS:       4536
cpu0_STLB RFO          ACCESS:          0 HIT:          0 MISS:          0
cpu0_STLB PREFETCH     ACCESS:          0 HIT:          0 MISS:          0
cpu0_STLB WRITE        ACCESS:          0 HIT:          0 MISS:          0
cpu0_STLB TRANSLATION  ACCESS:          0 HIT:          0 MISS:          0
cpu0_STLB PREFETCH REQUESTED:          0 ISSUED:          0 USEFUL:          0 USELESS:          0
cpu0_STLB AVERAGE MISS LATENCY: 127.6 cycles

DRAM Statistics

Channel 0 RQ ROW_BUFFER_HIT:      20219
  ROW_BUFFER_MISS:      21507
 AVG DBUS CONGESTED CYCLE: 3.845
WQ ROW_BUFFER_HIT: Channel 0 
  ROW_BUFFER_MISS:       1560
  FULL:       6883

Channel 1 RQ ROW_BUFFER_HIT:      19095
  ROW_BUFFER_MISS:      21318
 AVG DBUS CONGESTED CYCLE: 3.816
WQ ROW_BUFFER_HIT: Channel 1 
  ROW_BUFFER_MISS:       1409
  FULL:       6471
BERTI TO_L1: 16176100 TO_L2: 6070972 TO_L2_BC_MSHR: 926993
BERTI AVG_LAT: 54.6188 NUM_TRACK_LATENCY: 141360 NUM_CANT_TRACK_LATENCY: 0
BERTI CROSS_PAGE 2943175 NO_CROSS_PAGE: 19303897
BERTI FOUND_BERTI: 3769957 NO_FOUND_BERTI: 8074295
BERTI AVERAGE_ISSUED: 10.1716
CPU 0 L1I Entangling prefetcher final stats
IP accesses: 6f71 1bdc40 1831 / 324527
IP misses: 25bf 96fc0 164 / 37745
IP hits: 0 0 0 / 0
IP late: 204a 81280 47 / 18061
IP wrong: f801 3e0040 101 / 49548
miss rate: 0.116308
coverage: 0
coverage_late: 0.478501
accuracy: 0
accuracy_late: 0.267139
discarded: 0
evicts entangled j table: 0
evicts entangled k table: 6097
max bb size: 53
formats: 1478 0 5390 2650 1064 2135 0 
hist_lookups: 4554 4917 3723 3321 2917 2496 2008 1447 1138 858 636 468 301 177 109 0 9 5345 
hist_lookups_evict: 0.0261446 %
hist_lookups_shortlat: 15.527 %
bb_found_hist: 0 82359 33514 16903 7554 3661 1615 1512 443 108 4 110 36 78 25 0 4 0 0 0 0 8 0 0 0 0 0 0 0 0 0 4 0 0 4 0 0 0 0 0 0 0 0 0 0 0 0 0 0 0 0 0 0 4 0 0 0 0 0 0 0 0 0 0 
bb_found_summary: 277157 147946 1.87337
entangled_found_hist: 0 40624 35197 56545 10858 1871 513 0 
entangled_found_summary: 336518 145608 2.31113
bb_ent_found_hist: 0 111802 52655 34272 12619 9056 3829 2469 1158 182 0 263 122 95 13 0 214 0 0 0 0 30 0 0 0 0 0 0 0 0 0 4 0 0 7 0 0 0 0 0 0 0 0 0 0 0 0 0 0 0 0 0 0 4 0 0 0 0 0 0 0 0 0 0 
bb_ent_found_summary: 477245 228794 2.08592
