WARNING: physical memory size is smaller than virtual memory size.

*** ChampSim Multicore Out-of-Order Simulator ***
Warmup Instructions: 30000000
Simulation Instructions: 100000000
Number of CPUs: 1
Page size: 4096

BTB:
Basic BTB sets: 1024 ways: 8
Indirect:
history lengths: 0 0 10 16 27 44 60 96 109 219 449 487 714 1313 2146 3881 
ITTAGE tables: 64768 bytes;Region table: 240 bytes;IUM: 384 bytes;Total Storage= 65392 bytes;
RAS:
RAS size: 64
[LLC] Demand IPV: 1 2 2 1 4 Prefetch IPV: 1 2 1 1 4
Berti Prefetcher
CPU 0 Entangling prefetcher
Off-chip DRAM Size: 8 GiB Channels: 2 Width: 64-bit Data Race: 6400 MT/s
Heartbeat CPU 0 instructions: 10000003 cycles: 1731539 heartbeat IPC: 5.775 cumulative IPC: 5.775 (Simulation time: 00 hr 00 min 36 sec)
Heartbeat CPU 0 instructions: 20000002 cycles: 3510110 heartbeat IPC: 5.622 cumulative IPC: 5.698 (Simulation time: 00 hr 01 min 12 sec)
Heartbeat CPU 0 instructions: 30000005 cycles: 5191327 heartbeat IPC: 5.948 cumulative IPC: 5.779 (Simulation time: 00 hr 01 min 47 sec)
Warmup finished CPU 0 instructions: 30000005 cycles: 5191328 cumulative IPC: 5.779 (Simulation time: 00 hr 01 min 47 sec)
Warmup complete CPU 0 instructions: 30000005 cycles: 5191328 cumulative IPC: 5.779 (Simulation time: 00 hr 01 min 47 sec)
Heartbeat CPU 0 instructions: 40000008 cycles: 8569343 heartbeat IPC: 2.96 cumulative IPC: 2.96 (Simulation time: 00 hr 02 min 42 sec)
Heartbeat CPU 0 instructions: 50000001 cycles: 11969809 heartbeat IPC: 2.941 cumulative IPC: 2.951 (Simulation time: 00 hr 03 min 39 sec)
Heartbeat CPU 0 instructions: 60000007 cycles: 16019286 heartbeat IPC: 2.469 cumulative IPC: 2.771 (Simulation time: 00 hr 04 min 41 sec)
Heartbeat CPU 0 instructions: 70000003 cycles: 18142310 heartbeat IPC: 4.71 cumulative IPC: 3.089 (Simulation time: 00 hr 05 min 27 sec)
Heartbeat CPU 0 instructions: 80000001 cycles: 21258636 heartbeat IPC: 3.209 cumulative IPC: 3.112 (Simulation time: 00 hr 06 min 21 sec)
Heartbeat CPU 0 instructions: 90000003 cycles: 25514256 heartbeat IPC: 2.35 cumulative IPC: 2.952 (Simulation time: 00 hr 07 min 18 sec)
Heartbeat CPU 0 instructions: 100000002 cycles: 28129961 heartbeat IPC: 3.823 cumulative IPC: 3.052 (Simulation time: 00 hr 08 min 00 sec)
*** Reached end of trace: (0, "../traces/secret_traces/crypto/crypto98.champsimtrace.xz")
Heartbeat CPU 0 instructions: 110000009 cycles: 31398083 heartbeat IPC: 3.06 cumulative IPC: 3.053 (Simulation time: 00 hr 08 min 49 sec)
Heartbeat CPU 0 instructions: 120000005 cycles: 34626762 heartbeat IPC: 3.097 cumulative IPC: 3.058 (Simulation time: 00 hr 09 min 47 sec)
Heartbeat CPU 0 instructions: 130000001 cycles: 37299132 heartbeat IPC: 3.742 cumulative IPC: 3.115 (Simulation time: 00 hr 10 min 33 sec)
Simulation finished CPU 0 instructions: 100000000 cycles: 32107807 cumulative IPC: 3.115 (Simulation time: 00 hr 10 min 33 sec)
Simulation complete CPU 0 instructions: 100000000 cycles: 32107807 cumulative IPC: 3.115 (Simulation time: 00 hr 10 min 33 sec)

ChampSim completed all CPUs

=== Simulation ===
CPU 0 runs ../traces/secret_traces/crypto/crypto98.champsimtrace.xz
Region of Interest Statistics

CPU 0 cumulative IPC: 3.115 instructions: 100000000 cycles: 32107807
CPU 0 Branch Prediction Accuracy: 96.4% MPKI: 5.633 Average ROB Occupancy at Mispredict: 29.37
Branch type MPKI
BRANCH_DIRECT_JUMP: 0.168
BRANCH_INDIRECT: 2.09
BRANCH_CONDITIONAL: 2.24
BRANCH_DIRECT_CALL: 0.269
BRANCH_INDIRECT_CALL: 0.46
BRANCH_RETURN: 0.404

LLC TOTAL        ACCESS:     289153 HIT:     157719 MISS:     131434
LLC LOAD         ACCESS:      41502 HIT:      16781 MISS:      24721
LLC RFO          ACCESS:      59117 HIT:      34223 MISS:      24894
LLC PREFETCH     ACCESS:     111191 HIT:      52963 MISS:      58228
LLC WRITE        ACCESS:      73542 HIT:      53051 MISS:      20491
LLC TRANSLATION  ACCESS:       3801 HIT:        701 MISS:       3100
LLC PREFETCH REQUESTED:          0 ISSUED:          0 USEFUL:          0 USELESS:          0
LLC AVERAGE MISS LATENCY: 137.4 cycles
cpu0_DTLB TOTAL        ACCESS:   17807760 HIT:   17710456 MISS:      97304
cpu0_DTLB LOAD         ACCESS:   17807760 HIT:   17710456 MISS:      97304
cpu0_DTLB RFO          ACCESS:          0 HIT:          0 MISS:          0
cpu0_DTLB PREFETCH     ACCESS:          0 HIT:          0 MISS:          0
cpu0_DTLB WRITE        ACCESS:          0 HIT:          0 MISS:          0
cpu0_DTLB TRANSLATION  ACCESS:          0 HIT:          0 MISS:          0
cpu0_DTLB PREFETCH REQUESTED:          0 ISSUED:          0 USEFUL:          0 USELESS:          0
cpu0_DTLB AVERAGE MISS LATENCY: 10.16 cycles
cpu0_ITLB TOTAL        ACCESS:    5121331 HIT:    5094870 MISS:      26461
cpu0_ITLB LOAD         ACCESS:    5121331 HIT:    5094870 MISS:      26461
cpu0_ITLB RFO          ACCESS:          0 HIT:          0 MISS:          0
cpu0_ITLB PREFETCH     ACCESS:          0 HIT:          0 MISS:          0
cpu0_ITLB WRITE        ACCESS:          0 HIT:          0 MISS:          0
cpu0_ITLB TRANSLATION  ACCESS:          0 HIT:          0 MISS:          0
cpu0_ITLB PREFETCH REQUESTED:          0 ISSUED:          0 USEFUL:          0 USELESS:          0
cpu0_ITLB AVERAGE MISS LATENCY: 15.21 cycles
cpu0_L1D TOTAL        ACCESS:   28161697 HIT:   26704448 MISS:    1457249
cpu0_L1D LOAD         ACCESS:   18934504 HIT:   18181367 MISS:     753137
cpu0_L1D RFO          ACCESS:          0 HIT:          0 MISS:          0
cpu0_L1D PREFETCH     ACCESS:     668307 HIT:     488274 MISS:     180033
cpu0_L1D WRITE        ACCESS:    8552958 HIT:    8033963 MISS:     518995
cpu0_L1D TRANSLATION  ACCESS:       5928 HIT:        844 MISS:       5084
cpu0_L1D PREFETCH REQUESTED:    1130588 ISSUED:     668307 USEFUL:      14989 USELESS:       3757
cpu0_L1D AVERAGE MISS LATENCY: 8.679 cycles
cpu0_L1I TOTAL        ACCESS:    7561134 HIT:    6764466 MISS:     796668
cpu0_L1I LOAD         ACCESS:    2376019 HIT:    2105494 MISS:     270525
cpu0_L1I RFO          ACCESS:          0 HIT:          0 MISS:          0
cpu0_L1I PREFETCH     ACCESS:    5185115 HIT:    4658972 MISS:     526143
cpu0_L1I WRITE        ACCESS:          0 HIT:          0 MISS:          0
cpu0_L1I TRANSLATION  ACCESS:          0 HIT:          0 MISS:          0
cpu0_L1I PREFETCH REQUESTED:    8277033 ISSUED:    5185091 USEFUL:     258258 USELESS:     232422
cpu0_L1I AVERAGE MISS LATENCY: 15.9 cycles
cpu0_L2C TOTAL        ACCESS:    2862710 HIT:    2598505 MISS:     264205
cpu0_L2C LOAD         ACCESS:     631169 HIT:     584828 MISS:      46341
cpu0_L2C RFO          ACCESS:     125771 HIT:      66067 MISS:      59704
cpu0_L2C PREFETCH     ACCESS:    1899858 HIT:    1745508 MISS:     154350
cpu0_L2C WRITE        ACCESS:     200844 HIT:     200835 MISS:          9
cpu0_L2C TRANSLATION  ACCESS:       5068 HIT:       1267 MISS:       3801
cpu0_L2C PREFETCH REQUESTED:    1286688 ISSUED:    1247204 USEFUL:      34066 USELESS:      31242
cpu0_L2C AVERAGE MISS LATENCY: 83.93 cycles
cpu0_STLB TOTAL        ACCESS:      79741 HIT:      74164 MISS:       5577
cpu0_STLB LOAD         ACCESS:      79741 HIT:      74164 MISS:       5577
cpu0_STLB RFO          ACCESS:          0 HIT:          0 MISS:          0
cpu0_STLB PREFETCH     ACCESS:          0 HIT:          0 MISS:          0
cpu0_STLB WRITE        ACCESS:          0 HIT:          0 MISS:          0
cpu0_STLB TRANSLATION  ACCESS:          0 HIT:          0 MISS:          0
cpu0_STLB PREFETCH REQUESTED:          0 ISSUED:          0 USEFUL:          0 USELESS:          0
cpu0_STLB AVERAGE MISS LATENCY: 164 cycles

DRAM Statistics

Channel 0 RQ ROW_BUFFER_HIT:      16737
  ROW_BUFFER_MISS:      39533
 AVG DBUS CONGESTED CYCLE: 3.726
WQ ROW_BUFFER_HIT: Channel 0 
  ROW_BUFFER_MISS:       3184
  FULL:       8714

Channel 1 RQ ROW_BUFFER_HIT:      16566
  ROW_BUFFER_MISS:      38103
 AVG DBUS CONGESTED CYCLE: 3.72
WQ ROW_BUFFER_HIT: Channel 1 
  ROW_BUFFER_MISS:       3114
  FULL:       8644
BERTI TO_L1: 570413 TO_L2: 684697 TO_L2_BC_MSHR: 12493
BERTI AVG_LAT: 18.3646 NUM_TRACK_LATENCY: 552104 NUM_CANT_TRACK_LATENCY: 0
BERTI CROSS_PAGE 251372 NO_CROSS_PAGE: 1003738
BERTI FOUND_BERTI: 2011008 NO_FOUND_BERTI: 22123272
BERTI AVERAGE_ISSUED: 4.05146
CPU 0 L1I Entangling prefetcher final stats
IP accesses: 7fc7 1ff1c0 14260 / 2377088
IP misses: e7e6 39f980 687 / 271594
IP hits: 0 0 0 / 0
IP late: 267f 99fc0 320 / 118066
IP wrong: 207f 81fc0 950 / 230486
miss rate: 0.114255
coverage: 0
coverage_late: 0.434716
accuracy: 0
accuracy_late: 0.338733
discarded: 0
evicts entangled j table: 0
evicts entangled k table: 35974
max bb size: 67
formats: 212 3071 40937 10451 8507 14424 0 
hist_lookups: 29977 30253 23771 22796 19980 15925 11889 8776 6762 5329 3952 2606 1640 806 276 0 0 24040 
hist_lookups_evict: 0 %
hist_lookups_shortlat: 11.5147 %
bb_found_hist: 0 473207 227711 128357 65466 34343 20210 14183 8092 6992 4910 2745 235 2264 2474 701 4 142 130 44 18 38 132 0 0 0 0 0 0 0 0 0 0 0 0 0 0 0 0 0 0 0 0 0 0 4 0 0 0 0 0 0 0 0 0 0 0 0 0 0 0 0 15 0 
bb_found_summary: 2263008 992417 2.2803
entangled_found_hist: 0 240626 234668 415329 87510 48504 4276 0 
entangled_found_summary: 2574165 1030913 2.49698
bb_ent_found_hist: 0 735866 296260 212300 125462 53762 28912 28336 14330 11467 11750 10279 368 2287 5668 4701 12 1496 106 0 49 5 94 0 0 0 0 0 0 0 0 0 0 0 0 0 0 0 0 0 0 0 0 0 0 3 0 0 0 0 0 0 0 0 0 0 0 0 0 0 0 0 19 0 
bb_ent_found_summary: 3772192 1543532 2.44388
