WARNING: physical memory size is smaller than virtual memory size.

*** ChampSim Multicore Out-of-Order Simulator ***
Warmup Instructions: 30000000
Simulation Instructions: 100000000
Number of CPUs: 1
Page size: 4096

BTB:
Basic BTB sets: 1024 ways: 8
Indirect:
history lengths: 0 0 10 16 27 44 60 96 109 219 449 487 714 1313 2146 3881 
ITTAGE tables: 64768 bytes;Region table: 240 bytes;IUM: 384 bytes;Total Storage= 65392 bytes;
RAS:
RAS size: 64
[LLC] Demand IPV: 1 2 2 1 4 Prefetch IPV: 1 2 1 1 4
Berti Prefetcher
CPU 0 Entangling prefetcher
Off-chip DRAM Size: 8 GiB Channels: 2 Width: 64-bit Data Race: 6400 MT/s
Heartbeat CPU 0 instructions: 10000003 cycles: 1714841 heartbeat IPC: 5.831 cumulative IPC: 5.831 (Simulation time: 00 hr 00 min 35 sec)
Heartbeat CPU 0 instructions: 20000003 cycles: 3431140 heartbeat IPC: 5.826 cumulative IPC: 5.829 (Simulation time: 00 hr 01 min 05 sec)
Heartbeat CPU 0 instructions: 30000003 cycles: 5097917 heartbeat IPC: 6 cumulative IPC: 5.885 (Simulation time: 00 hr 01 min 32 sec)
Warmup finished CPU 0 instructions: 30000003 cycles: 5097918 cumulative IPC: 5.885 (Simulation time: 00 hr 01 min 32 sec)
Warmup complete CPU 0 instructions: 30000003 cycles: 5097918 cumulative IPC: 5.885 (Simulation time: 00 hr 01 min 32 sec)
Heartbeat CPU 0 instructions: 40000001 cycles: 6765627 heartbeat IPC: 5.996 cumulative IPC: 5.996 (Simulation time: 00 hr 02 min 04 sec)
Heartbeat CPU 0 instructions: 50000006 cycles: 8433582 heartbeat IPC: 5.995 cumulative IPC: 5.996 (Simulation time: 00 hr 02 min 36 sec)
Heartbeat CPU 0 instructions: 60000001 cycles: 10108140 heartbeat IPC: 5.972 cumulative IPC: 5.988 (Simulation time: 00 hr 03 min 12 sec)
*** Reached end of trace: (0, "../traces/secret_traces/crypto/crypto53.champsimtrace.xz")
Heartbeat CPU 0 instructions: 70000002 cycles: 12434376 heartbeat IPC: 4.299 cumulative IPC: 5.452 (Simulation time: 00 hr 03 min 56 sec)
Heartbeat CPU 0 instructions: 80000010 cycles: 14406299 heartbeat IPC: 5.071 cumulative IPC: 5.372 (Simulation time: 00 hr 04 min 33 sec)
Heartbeat CPU 0 instructions: 90000002 cycles: 16237118 heartbeat IPC: 5.462 cumulative IPC: 5.386 (Simulation time: 00 hr 05 min 10 sec)
Heartbeat CPU 0 instructions: 100000007 cycles: 17916274 heartbeat IPC: 5.955 cumulative IPC: 5.461 (Simulation time: 00 hr 05 min 44 sec)
Heartbeat CPU 0 instructions: 110000001 cycles: 19583762 heartbeat IPC: 5.997 cumulative IPC: 5.523 (Simulation time: 00 hr 06 min 15 sec)
Heartbeat CPU 0 instructions: 120000004 cycles: 21251711 heartbeat IPC: 5.995 cumulative IPC: 5.571 (Simulation time: 00 hr 06 min 51 sec)
*** Reached end of trace: (0, "../traces/secret_traces/crypto/crypto53.champsimtrace.xz")
Heartbeat CPU 0 instructions: 130000004 cycles: 23393675 heartbeat IPC: 4.669 cumulative IPC: 5.466 (Simulation time: 00 hr 07 min 32 sec)
Simulation finished CPU 0 instructions: 100000001 cycles: 18295758 cumulative IPC: 5.466 (Simulation time: 00 hr 07 min 32 sec)
Simulation complete CPU 0 instructions: 100000001 cycles: 18295758 cumulative IPC: 5.466 (Simulation time: 00 hr 07 min 32 sec)

ChampSim completed all CPUs

=== Simulation ===
CPU 0 runs ../traces/secret_traces/crypto/crypto53.champsimtrace.xz
Region of Interest Statistics

CPU 0 cumulative IPC: 5.466 instructions: 100000001 cycles: 18295758
CPU 0 Branch Prediction Accuracy: 98.04% MPKI: 0.4256 Average ROB Occupancy at Mispredict: 27.8
Branch type MPKI
BRANCH_DIRECT_JUMP: 0.0221
BRANCH_INDIRECT: 0.211
BRANCH_CONDITIONAL: 0.0917
BRANCH_DIRECT_CALL: 0.0606
BRANCH_INDIRECT_CALL: 0.00698
BRANCH_RETURN: 0.0331

LLC TOTAL        ACCESS:     150845 HIT:     110788 MISS:      40057
LLC LOAD         ACCESS:      15482 HIT:       7879 MISS:       7603
LLC RFO          ACCESS:      46041 HIT:      39708 MISS:       6333
LLC PREFETCH     ACCESS:      36890 HIT:      18970 MISS:      17920
LLC WRITE        ACCESS:      51488 HIT:      44037 MISS:       7451
LLC TRANSLATION  ACCESS:        944 HIT:        194 MISS:        750
LLC PREFETCH REQUESTED:          0 ISSUED:          0 USEFUL:          0 USELESS:          0
LLC AVERAGE MISS LATENCY: 135.9 cycles
cpu0_DTLB TOTAL        ACCESS:    8649874 HIT:    8635299 MISS:      14575
cpu0_DTLB LOAD         ACCESS:    8649874 HIT:    8635299 MISS:      14575
cpu0_DTLB RFO          ACCESS:          0 HIT:          0 MISS:          0
cpu0_DTLB PREFETCH     ACCESS:          0 HIT:          0 MISS:          0
cpu0_DTLB WRITE        ACCESS:          0 HIT:          0 MISS:          0
cpu0_DTLB TRANSLATION  ACCESS:          0 HIT:          0 MISS:          0
cpu0_DTLB PREFETCH REQUESTED:          0 ISSUED:          0 USEFUL:          0 USELESS:          0
cpu0_DTLB AVERAGE MISS LATENCY: 10.45 cycles
cpu0_ITLB TOTAL        ACCESS:    3145298 HIT:    3139033 MISS:       6265
cpu0_ITLB LOAD         ACCESS:    3145298 HIT:    3139033 MISS:       6265
cpu0_ITLB RFO          ACCESS:          0 HIT:          0 MISS:          0
cpu0_ITLB PREFETCH     ACCESS:          0 HIT:          0 MISS:          0
cpu0_ITLB WRITE        ACCESS:          0 HIT:          0 MISS:          0
cpu0_ITLB TRANSLATION  ACCESS:          0 HIT:          0 MISS:          0
cpu0_ITLB PREFETCH REQUESTED:          0 ISSUED:          0 USEFUL:          0 USELESS:          0
cpu0_ITLB AVERAGE MISS LATENCY: 20.89 cycles
cpu0_L1D TOTAL        ACCESS:   10279886 HIT:   10069340 MISS:     210546
cpu0_L1D LOAD         ACCESS:    5833390 HIT:    5776772 MISS:      56618
cpu0_L1D RFO          ACCESS:          0 HIT:          0 MISS:          0
cpu0_L1D PREFETCH     ACCESS:     258332 HIT:     219619 MISS:      38713
cpu0_L1D WRITE        ACCESS:    4186368 HIT:    4072368 MISS:     114000
cpu0_L1D TRANSLATION  ACCESS:       1796 HIT:        581 MISS:       1215
cpu0_L1D PREFETCH REQUESTED:    1202003 ISSUED:     258332 USEFUL:       4121 USELESS:        582
cpu0_L1D AVERAGE MISS LATENCY: 22.72 cycles
cpu0_L1I TOTAL        ACCESS:    4826272 HIT:    4753831 MISS:      72441
cpu0_L1I LOAD         ACCESS:    1427851 HIT:    1408678 MISS:      19173
cpu0_L1I RFO          ACCESS:          0 HIT:          0 MISS:          0
cpu0_L1I PREFETCH     ACCESS:    3398421 HIT:    3345153 MISS:      53268
cpu0_L1I WRITE        ACCESS:          0 HIT:          0 MISS:          0
cpu0_L1I TRANSLATION  ACCESS:          0 HIT:          0 MISS:          0
cpu0_L1I PREFETCH REQUESTED:    8124785 ISSUED:    3398456 USEFUL:      28767 USELESS:      21526
cpu0_L1I AVERAGE MISS LATENCY: 28.6 cycles
cpu0_L2C TOTAL        ACCESS:     367991 HIT:     240460 MISS:     127531
cpu0_L2C LOAD         ACCESS:      49788 HIT:      31144 MISS:      18644
cpu0_L2C RFO          ACCESS:      49513 HIT:       3459 MISS:      46054
cpu0_L2C PREFETCH     ACCESS:     210482 HIT:     148593 MISS:      61889
cpu0_L2C WRITE        ACCESS:      57020 HIT:      57020 MISS:          0
cpu0_L2C TRANSLATION  ACCESS:       1188 HIT:        244 MISS:        944
cpu0_L2C PREFETCH REQUESTED:     132671 ISSUED:     127599 USEFUL:       9030 USELESS:       8624
cpu0_L2C AVERAGE MISS LATENCY: 56.65 cycles
cpu0_STLB TOTAL        ACCESS:       9603 HIT:       7954 MISS:       1649
cpu0_STLB LOAD         ACCESS:       9603 HIT:       7954 MISS:       1649
cpu0_STLB RFO          ACCESS:          0 HIT:          0 MISS:          0
cpu0_STLB PREFETCH     ACCESS:          0 HIT:          0 MISS:          0
cpu0_STLB WRITE        ACCESS:          0 HIT:          0 MISS:          0
cpu0_STLB TRANSLATION  ACCESS:          0 HIT:          0 MISS:          0
cpu0_STLB PREFETCH REQUESTED:          0 ISSUED:          0 USEFUL:          0 USELESS:          0
cpu0_STLB AVERAGE MISS LATENCY: 145 cycles

DRAM Statistics

Channel 0 RQ ROW_BUFFER_HIT:       7853
  ROW_BUFFER_MISS:       8668
 AVG DBUS CONGESTED CYCLE: 3.842
WQ ROW_BUFFER_HIT: Channel 0 
  ROW_BUFFER_MISS:        663
  FULL:       3029

Channel 1 RQ ROW_BUFFER_HIT:       7712
  ROW_BUFFER_MISS:       8364
 AVG DBUS CONGESTED CYCLE: 3.835
WQ ROW_BUFFER_HIT: Channel 1 
  ROW_BUFFER_MISS:        608
  FULL:       2980
BERTI TO_L1: 805115 TO_L2: 871314 TO_L2_BC_MSHR: 391566
BERTI AVG_LAT: 48.0739 NUM_TRACK_LATENCY: 72601 NUM_CANT_TRACK_LATENCY: 0
BERTI CROSS_PAGE 308514 NO_CROSS_PAGE: 1367915
BERTI FOUND_BERTI: 907680 NO_FOUND_BERTI: 7281207
BERTI AVERAGE_ISSUED: 4.36203
CPU 0 L1I Entangling prefetcher final stats
IP accesses: 1f31 7cc40 166173 / 1428265
IP misses: d3e 34f80 121 / 19587
IP hits: 0 0 0 / 0
IP late: 20a3 828c0 20 / 9077
IP wrong: f7ed 3dfb40 45 / 21412
miss rate: 0.0137139
coverage: 0
coverage_late: 0.46342
accuracy: 0
accuracy_late: 0.297714
discarded: 0
evicts entangled j table: 0
evicts entangled k table: 2957
max bb size: 56
formats: 696 0 2648 1385 579 1273 0 
hist_lookups: 2614 2657 1930 1759 1581 1224 885 688 503 364 286 199 123 64 34 0 6 3534 
hist_lookups_evict: 0.0325186 %
hist_lookups_shortlat: 19.1535 %
bb_found_hist: 0 184811 53692 67040 15016 1685 723 516 189 25712 11838 11929 33 20 12 11859 13 0 11848 0 0 22 0 6 11846 0 1 0 9416 3604 8050 2 0 0 2 0 0 0 0 0 0 0 0 0 0 0 0 0 0 0 11 0 11840 2 0 0 17 0 0 0 0 0 0 0 
bb_found_summary: 2956466 441755 6.69255
entangled_found_hist: 0 168165 61438 151765 4903 778 285 0 
entangled_found_summary: 771548 387334 1.99195
bb_ent_found_hist: 0 344387 42128 82433 5701 4220 1826 730 414 10489 0 21150 33 6 15 99 2 0 23181 0 0 35520 0 9140 0 0 0 0 0 9 11 2 0 0 3 0 0 0 0 0 0 0 0 0 0 0 0 0 0 0 11838 0 2 3 0 0 24866 0 0 0 0 0 0 0 
bb_ent_found_summary: 4427288 618208 7.16149
