WARNING: physical memory size is smaller than virtual memory size.

*** ChampSim Multicore Out-of-Order Simulator ***
Warmup Instructions: 30000000
Simulation Instructions: 100000000
Number of CPUs: 1
Page size: 4096

BTB:
Basic BTB sets: 1024 ways: 8
Indirect:
history lengths: 0 0 10 16 27 44 60 96 109 219 449 487 714 1313 2146 3881 
ITTAGE tables: 64768 bytes;Region table: 240 bytes;IUM: 384 bytes;Total Storage= 65392 bytes;
RAS:
RAS size: 64
[LLC] Demand IPV: 1 2 2 1 4 Prefetch IPV: 1 2 1 1 4
Berti Prefetcher
CPU 0 Entangling prefetcher
Off-chip DRAM Size: 8 GiB Channels: 2 Width: 64-bit Data Race: 6400 MT/s
Heartbeat CPU 0 instructions: 10000006 cycles: 1715391 heartbeat IPC: 5.83 cumulative IPC: 5.83 (Simulation time: 00 hr 00 min 33 sec)
Heartbeat CPU 0 instructions: 20000002 cycles: 3432007 heartbeat IPC: 5.825 cumulative IPC: 5.827 (Simulation time: 00 hr 01 min 06 sec)
*** Reached end of trace: (0, "../traces/secret_traces/crypto/crypto66.champsimtrace.xz")
Heartbeat CPU 0 instructions: 30000002 cycles: 5152028 heartbeat IPC: 5.814 cumulative IPC: 5.823 (Simulation time: 00 hr 01 min 40 sec)
Warmup finished CPU 0 instructions: 30000002 cycles: 5152029 cumulative IPC: 5.823 (Simulation time: 00 hr 01 min 40 sec)
Warmup complete CPU 0 instructions: 30000002 cycles: 5152029 cumulative IPC: 5.823 (Simulation time: 00 hr 01 min 40 sec)
Heartbeat CPU 0 instructions: 40000000 cycles: 11409014 heartbeat IPC: 1.598 cumulative IPC: 1.598 (Simulation time: 00 hr 03 min 13 sec)
*** Reached end of trace: (0, "../traces/secret_traces/crypto/crypto66.champsimtrace.xz")
Heartbeat CPU 0 instructions: 50000002 cycles: 16581299 heartbeat IPC: 1.933 cumulative IPC: 1.75 (Simulation time: 00 hr 04 min 28 sec)
Heartbeat CPU 0 instructions: 60000001 cycles: 22696948 heartbeat IPC: 1.635 cumulative IPC: 1.71 (Simulation time: 00 hr 05 min 52 sec)
*** Reached end of trace: (0, "../traces/secret_traces/crypto/crypto66.champsimtrace.xz")
Heartbeat CPU 0 instructions: 70000000 cycles: 27862742 heartbeat IPC: 1.936 cumulative IPC: 1.761 (Simulation time: 00 hr 07 min 05 sec)
Heartbeat CPU 0 instructions: 80000001 cycles: 33997194 heartbeat IPC: 1.63 cumulative IPC: 1.733 (Simulation time: 00 hr 08 min 36 sec)
*** Reached end of trace: (0, "../traces/secret_traces/crypto/crypto66.champsimtrace.xz")
Heartbeat CPU 0 instructions: 90000007 cycles: 39218787 heartbeat IPC: 1.915 cumulative IPC: 1.761 (Simulation time: 00 hr 09 min 50 sec)
Heartbeat CPU 0 instructions: 100000001 cycles: 45253791 heartbeat IPC: 1.657 cumulative IPC: 1.746 (Simulation time: 00 hr 11 min 13 sec)
*** Reached end of trace: (0, "../traces/secret_traces/crypto/crypto66.champsimtrace.xz")
Heartbeat CPU 0 instructions: 110000003 cycles: 51128060 heartbeat IPC: 1.702 cumulative IPC: 1.74 (Simulation time: 00 hr 12 min 34 sec)
Heartbeat CPU 0 instructions: 120000001 cycles: 56488569 heartbeat IPC: 1.865 cumulative IPC: 1.753 (Simulation time: 00 hr 13 min 50 sec)
Heartbeat CPU 0 instructions: 130000000 cycles: 62634352 heartbeat IPC: 1.627 cumulative IPC: 1.74 (Simulation time: 00 hr 15 min 18 sec)
Simulation finished CPU 0 instructions: 100000001 cycles: 57482326 cumulative IPC: 1.74 (Simulation time: 00 hr 15 min 18 sec)
Simulation complete CPU 0 instructions: 100000001 cycles: 57482326 cumulative IPC: 1.74 (Simulation time: 00 hr 15 min 18 sec)

ChampSim completed all CPUs

=== Simulation ===
CPU 0 runs ../traces/secret_traces/crypto/crypto66.champsimtrace.xz
Region of Interest Statistics

CPU 0 cumulative IPC: 1.74 instructions: 100000001 cycles: 57482326
CPU 0 Branch Prediction Accuracy: 98.45% MPKI: 1.067 Average ROB Occupancy at Mispredict: 40.26
Branch type MPKI
BRANCH_DIRECT_JUMP: 0.0635
BRANCH_INDIRECT: 0.555
BRANCH_CONDITIONAL: 0.143
BRANCH_DIRECT_CALL: 0.184
BRANCH_INDIRECT_CALL: 0.0221
BRANCH_RETURN: 0.1

LLC TOTAL        ACCESS:     536144 HIT:     413331 MISS:     122813
LLC LOAD         ACCESS:      57541 HIT:      29578 MISS:      27963
LLC RFO          ACCESS:     167262 HIT:     147996 MISS:      19266
LLC PREFETCH     ACCESS:     125213 HIT:      67921 MISS:      57292
LLC WRITE        ACCESS:     183059 HIT:     167323 MISS:      15736
LLC TRANSLATION  ACCESS:       3069 HIT:        513 MISS:       2556
LLC PREFETCH REQUESTED:          0 ISSUED:          0 USEFUL:          0 USELESS:          0
LLC AVERAGE MISS LATENCY: 135 cycles
cpu0_DTLB TOTAL        ACCESS:   25659930 HIT:   25608740 MISS:      51190
cpu0_DTLB LOAD         ACCESS:   25659930 HIT:   25608740 MISS:      51190
cpu0_DTLB RFO          ACCESS:          0 HIT:          0 MISS:          0
cpu0_DTLB PREFETCH     ACCESS:          0 HIT:          0 MISS:          0
cpu0_DTLB WRITE        ACCESS:          0 HIT:          0 MISS:          0
cpu0_DTLB TRANSLATION  ACCESS:          0 HIT:          0 MISS:          0
cpu0_DTLB PREFETCH REQUESTED:          0 ISSUED:          0 USEFUL:          0 USELESS:          0
cpu0_DTLB AVERAGE MISS LATENCY: 9.784 cycles
cpu0_ITLB TOTAL        ACCESS:     841633 HIT:     824694 MISS:      16939
cpu0_ITLB LOAD         ACCESS:     841633 HIT:     824694 MISS:      16939
cpu0_ITLB RFO          ACCESS:          0 HIT:          0 MISS:          0
cpu0_ITLB PREFETCH     ACCESS:          0 HIT:          0 MISS:          0
cpu0_ITLB WRITE        ACCESS:          0 HIT:          0 MISS:          0
cpu0_ITLB TRANSLATION  ACCESS:          0 HIT:          0 MISS:          0
cpu0_ITLB PREFETCH REQUESTED:          0 ISSUED:          0 USEFUL:          0 USELESS:          0
cpu0_ITLB AVERAGE MISS LATENCY: 19.9 cycles
cpu0_L1D TOTAL        ACCESS:   46812974 HIT:   46043525 MISS:     769449
cpu0_L1D LOAD         ACCESS:   13604869 HIT:   13403922 MISS:     200947
cpu0_L1D RFO          ACCESS:          0 HIT:          0 MISS:          0
cpu0_L1D PREFETCH     ACCESS:   29247651 HIT:   29128571 MISS:     119080
cpu0_L1D WRITE        ACCESS:    3954375 HIT:    3508902 MISS:     445473
cpu0_L1D TRANSLATION  ACCESS:       6079 HIT:       2130 MISS:       3949
cpu0_L1D PREFETCH REQUESTED:   32113158 ISSUED:   29247644 USEFUL:      16503 USELESS:       1460
cpu0_L1D AVERAGE MISS LATENCY: 21.2 cycles
cpu0_L1I TOTAL        ACCESS:    1226913 HIT:    1026925 MISS:     199988
cpu0_L1I LOAD         ACCESS:     402820 HIT:     357952 MISS:      44868
cpu0_L1I RFO          ACCESS:          0 HIT:          0 MISS:          0
cpu0_L1I PREFETCH     ACCESS:     824093 HIT:     668973 MISS:     155120
cpu0_L1I WRITE        ACCESS:          0 HIT:          0 MISS:          0
cpu0_L1I TRANSLATION  ACCESS:          0 HIT:          0 MISS:          0
cpu0_L1I PREFETCH REQUESTED:    1342416 ISSUED:     824093 USEFUL:      87833 USELESS:      60915
cpu0_L1I AVERAGE MISS LATENCY: 30.32 cycles
cpu0_L2C TOTAL        ACCESS:    1180866 HIT:     724587 MISS:     456279
cpu0_L2C LOAD         ACCESS:     157757 HIT:      87248 MISS:      70509
cpu0_L2C RFO          ACCESS:     182107 HIT:      14791 MISS:     167316
cpu0_L2C PREFETCH     ACCESS:     627139 HIT:     411754 MISS:     215385
cpu0_L2C WRITE        ACCESS:     210012 HIT:     210012 MISS:          0
cpu0_L2C TRANSLATION  ACCESS:       3851 HIT:        782 MISS:       3069
cpu0_L2C PREFETCH REQUESTED:     402240 ISSUED:     382712 USEFUL:      31105 USELESS:      30888
cpu0_L2C AVERAGE MISS LATENCY: 50.43 cycles
cpu0_STLB TOTAL        ACCESS:      29483 HIT:      23981 MISS:       5502
cpu0_STLB LOAD         ACCESS:      29483 HIT:      23981 MISS:       5502
cpu0_STLB RFO          ACCESS:          0 HIT:          0 MISS:          0
cpu0_STLB PREFETCH     ACCESS:          0 HIT:          0 MISS:          0
cpu0_STLB WRITE        ACCESS:          0 HIT:          0 MISS:          0
cpu0_STLB TRANSLATION  ACCESS:          0 HIT:          0 MISS:          0
cpu0_STLB PREFETCH REQUESTED:          0 ISSUED:          0 USEFUL:          0 USELESS:          0
cpu0_STLB AVERAGE MISS LATENCY: 129.7 cycles

DRAM Statistics

Channel 0 RQ ROW_BUFFER_HIT:      28049
  ROW_BUFFER_MISS:      26360
 AVG DBUS CONGESTED CYCLE: 3.842
WQ ROW_BUFFER_HIT: Channel 0 
  ROW_BUFFER_MISS:       1874
  FULL:       7556

Channel 1 RQ ROW_BUFFER_HIT:      26788
  ROW_BUFFER_MISS:      25862
 AVG DBUS CONGESTED CYCLE: 3.823
WQ ROW_BUFFER_HIT: Channel 1 
  ROW_BUFFER_MISS:       1675
  FULL:       6999
BERTI TO_L1: 38063362 TO_L2: 2753646 TO_L2_BC_MSHR: 1388650
BERTI AVG_LAT: 54.56 NUM_TRACK_LATENCY: 191565 NUM_CANT_TRACK_LATENCY: 0
BERTI CROSS_PAGE 5638085 NO_CROSS_PAGE: 35178923
BERTI FOUND_BERTI: 3295861 NO_FOUND_BERTI: 14311787
BERTI AVERAGE_ISSUED: 14.3651
CPU 0 L1I Entangling prefetcher final stats
IP accesses: 6f71 1bdc40 1837 / 403804
IP misses: 5bf1 16fc40 195 / 45852
IP hits: 0 0 0 / 0
IP late: 20b7 82dc0 58 / 22147
IP wrong: f801 3e0040 144 / 60659
miss rate: 0.113551
coverage: 0
coverage_late: 0.483011
accuracy: 0
accuracy_late: 0.267457
discarded: 0
evicts entangled j table: 0
evicts entangled k table: 7617
max bb size: 53
formats: 1881 0 6049 3035 1178 2205 0 
hist_lookups: 4810 5462 4451 4030 3723 3029 2386 1763 1410 1130 805 600 399 245 99 0 15 7900 
hist_lookups_evict: 0.0354971 %
hist_lookups_shortlat: 18.6952 %
bb_found_hist: 0 103422 44504 21355 10078 4663 2545 1981 592 111 8 125 144 124 31 0 4 0 0 0 0 8 0 0 0 0 0 0 0 0 0 4 0 0 4 0 0 0 0 0 0 0 0 0 0 0 0 0 0 0 0 0 0 4 0 0 0 0 0 0 0 0 0 0 
bb_found_summary: 360927 189707 1.90255
entangled_found_hist: 0 53928 40538 75150 14336 2491 969 0 
entangled_found_summary: 436067 187412 2.32679
bb_ent_found_hist: 0 145891 68734 45716 19599 10367 5550 2989 2290 101 0 266 102 172 16 0 4 0 0 0 0 36 0 0 0 0 0 0 0 0 0 8 0 0 8 0 0 0 0 0 0 0 0 0 0 0 0 0 0 0 0 0 0 4 0 0 0 0 0 0 0 0 0 0 
bb_ent_found_summary: 632352 301853 2.09491
