WARNING: physical memory size is smaller than virtual memory size.

*** ChampSim Multicore Out-of-Order Simulator ***
Warmup Instructions: 30000000
Simulation Instructions: 100000000
Number of CPUs: 1
Page size: 4096

BTB:
Basic BTB sets: 1024 ways: 8
Indirect:
history lengths: 0 0 10 16 27 44 60 96 109 219 449 487 714 1313 2146 3881 
ITTAGE tables: 64768 bytes;Region table: 240 bytes;IUM: 384 bytes;Total Storage= 65392 bytes;
RAS:
RAS size: 64
[LLC] Demand IPV: 1 2 2 1 4 Prefetch IPV: 1 2 1 1 4
Berti Prefetcher
CPU 0 Entangling prefetcher
Off-chip DRAM Size: 8 GiB Channels: 2 Width: 64-bit Data Race: 6400 MT/s
Heartbeat CPU 0 instructions: 10000005 cycles: 1729626 heartbeat IPC: 5.782 cumulative IPC: 5.782 (Simulation time: 00 hr 00 min 42 sec)
Heartbeat CPU 0 instructions: 20000000 cycles: 3465353 heartbeat IPC: 5.761 cumulative IPC: 5.771 (Simulation time: 00 hr 01 min 25 sec)
Heartbeat CPU 0 instructions: 30000003 cycles: 5153032 heartbeat IPC: 5.925 cumulative IPC: 5.822 (Simulation time: 00 hr 02 min 06 sec)
Warmup finished CPU 0 instructions: 30000003 cycles: 5153033 cumulative IPC: 5.822 (Simulation time: 00 hr 02 min 06 sec)
Warmup complete CPU 0 instructions: 30000003 cycles: 5153033 cumulative IPC: 5.822 (Simulation time: 00 hr 02 min 06 sec)
Heartbeat CPU 0 instructions: 40000000 cycles: 6858750 heartbeat IPC: 5.863 cumulative IPC: 5.863 (Simulation time: 00 hr 02 min 53 sec)
*** Reached end of trace: (0, "../traces/secret_traces/crypto/crypto87.champsimtrace.xz")
Heartbeat CPU 0 instructions: 50000001 cycles: 9004820 heartbeat IPC: 4.66 cumulative IPC: 5.192 (Simulation time: 00 hr 03 min 44 sec)
Heartbeat CPU 0 instructions: 60000008 cycles: 10944036 heartbeat IPC: 5.157 cumulative IPC: 5.18 (Simulation time: 00 hr 04 min 34 sec)
Heartbeat CPU 0 instructions: 70000010 cycles: 13122207 heartbeat IPC: 4.591 cumulative IPC: 5.019 (Simulation time: 00 hr 05 min 27 sec)
Heartbeat CPU 0 instructions: 80000010 cycles: 14833990 heartbeat IPC: 5.842 cumulative IPC: 5.165 (Simulation time: 00 hr 06 min 14 sec)
Heartbeat CPU 0 instructions: 90000004 cycles: 16533929 heartbeat IPC: 5.883 cumulative IPC: 5.272 (Simulation time: 00 hr 07 min 02 sec)
*** Reached end of trace: (0, "../traces/secret_traces/crypto/crypto87.champsimtrace.xz")
Heartbeat CPU 0 instructions: 100000003 cycles: 18725791 heartbeat IPC: 4.562 cumulative IPC: 5.157 (Simulation time: 00 hr 07 min 54 sec)
Heartbeat CPU 0 instructions: 110000001 cycles: 20474262 heartbeat IPC: 5.719 cumulative IPC: 5.222 (Simulation time: 00 hr 08 min 42 sec)
Heartbeat CPU 0 instructions: 120000006 cycles: 22583456 heartbeat IPC: 4.741 cumulative IPC: 5.163 (Simulation time: 00 hr 09 min 34 sec)
Heartbeat CPU 0 instructions: 130000000 cycles: 24294222 heartbeat IPC: 5.845 cumulative IPC: 5.224 (Simulation time: 00 hr 10 min 22 sec)
Simulation finished CPU 0 instructions: 100000001 cycles: 19141192 cumulative IPC: 5.224 (Simulation time: 00 hr 10 min 22 sec)
Simulation complete CPU 0 instructions: 100000001 cycles: 19141192 cumulative IPC: 5.224 (Simulation time: 00 hr 10 min 22 sec)

ChampSim completed all CPUs

=== Simulation ===
CPU 0 runs ../traces/secret_traces/crypto/crypto87.champsimtrace.xz
Region of Interest Statistics

CPU 0 cumulative IPC: 5.224 instructions: 100000001 cycles: 19141192
CPU 0 Branch Prediction Accuracy: 99.68% MPKI: 0.5659 Average ROB Occupancy at Mispredict: 29.59
Branch type MPKI
BRANCH_DIRECT_JUMP: 0.0297
BRANCH_INDIRECT: 0.279
BRANCH_CONDITIONAL: 0.111
BRANCH_DIRECT_CALL: 0.0874
BRANCH_INDIRECT_CALL: 0.0109
BRANCH_RETURN: 0.0478

LLC TOTAL        ACCESS:     233208 HIT:     174647 MISS:      58561
LLC LOAD         ACCESS:      26170 HIT:      12722 MISS:      13448
LLC RFO          ACCESS:      72774 HIT:      63259 MISS:       9515
LLC PREFETCH     ACCESS:      53832 HIT:      27823 MISS:      26009
LLC WRITE        ACCESS:      79109 HIT:      70612 MISS:       8497
LLC TRANSLATION  ACCESS:       1323 HIT:        231 MISS:       1092
LLC PREFETCH REQUESTED:          0 ISSUED:          0 USEFUL:          0 USELESS:          0
LLC AVERAGE MISS LATENCY: 131.4 cycles
cpu0_DTLB TOTAL        ACCESS:   10987289 HIT:   10964596 MISS:      22693
cpu0_DTLB LOAD         ACCESS:   10987289 HIT:   10964596 MISS:      22693
cpu0_DTLB RFO          ACCESS:          0 HIT:          0 MISS:          0
cpu0_DTLB PREFETCH     ACCESS:          0 HIT:          0 MISS:          0
cpu0_DTLB WRITE        ACCESS:          0 HIT:          0 MISS:          0
cpu0_DTLB TRANSLATION  ACCESS:          0 HIT:          0 MISS:          0
cpu0_DTLB PREFETCH REQUESTED:          0 ISSUED:          0 USEFUL:          0 USELESS:          0
cpu0_DTLB AVERAGE MISS LATENCY: 10.34 cycles
cpu0_ITLB TOTAL        ACCESS:   11005003 HIT:   10997072 MISS:       7931
cpu0_ITLB LOAD         ACCESS:   11005003 HIT:   10997072 MISS:       7931
cpu0_ITLB RFO          ACCESS:          0 HIT:          0 MISS:          0
cpu0_ITLB PREFETCH     ACCESS:          0 HIT:          0 MISS:          0
cpu0_ITLB WRITE        ACCESS:          0 HIT:          0 MISS:          0
cpu0_ITLB TRANSLATION  ACCESS:          0 HIT:          0 MISS:          0
cpu0_ITLB PREFETCH REQUESTED:          0 ISSUED:          0 USEFUL:          0 USELESS:          0
cpu0_ITLB AVERAGE MISS LATENCY: 20.01 cycles
cpu0_L1D TOTAL        ACCESS:   18009043 HIT:   17682927 MISS:     326116
cpu0_L1D LOAD         ACCESS:    7166027 HIT:    7080023 MISS:      86004
cpu0_L1D RFO          ACCESS:          0 HIT:          0 MISS:          0
cpu0_L1D PREFETCH     ACCESS:     276670 HIT:     225548 MISS:      51122
cpu0_L1D WRITE        ACCESS:   10563613 HIT:   10376367 MISS:     187246
cpu0_L1D TRANSLATION  ACCESS:       2733 HIT:        989 MISS:       1744
cpu0_L1D PREFETCH REQUESTED:    1588433 ISSUED:     276670 USEFUL:       5351 USELESS:        657
cpu0_L1D AVERAGE MISS LATENCY: 22.69 cycles
cpu0_L1I TOTAL        ACCESS:   16483353 HIT:   16387396 MISS:      95957
cpu0_L1I LOAD         ACCESS:    3602483 HIT:    3578761 MISS:      23722
cpu0_L1I RFO          ACCESS:          0 HIT:          0 MISS:          0
cpu0_L1I PREFETCH     ACCESS:   12880870 HIT:   12808635 MISS:      72235
cpu0_L1I WRITE        ACCESS:          0 HIT:          0 MISS:          0
cpu0_L1I TRANSLATION  ACCESS:          0 HIT:          0 MISS:          0
cpu0_L1I PREFETCH REQUESTED:   13209617 ISSUED:   12880880 USEFUL:      39616 USELESS:      29065
cpu0_L1I AVERAGE MISS LATENCY: 28.2 cycles
cpu0_L2C TOTAL        ACCESS:     522466 HIT:     322978 MISS:     199488
cpu0_L2C LOAD         ACCESS:      72296 HIT:      40390 MISS:      31906
cpu0_L2C RFO          ACCESS:      77676 HIT:       4879 MISS:      72797
cpu0_L2C PREFETCH     ACCESS:     282086 HIT:     188624 MISS:      93462
cpu0_L2C WRITE        ACCESS:      88712 HIT:      88712 MISS:          0
cpu0_L2C TRANSLATION  ACCESS:       1696 HIT:        373 MISS:       1323
cpu0_L2C PREFETCH REQUESTED:     181494 ISSUED:     172888 USEFUL:      13384 USELESS:      13301
cpu0_L2C AVERAGE MISS LATENCY: 52.44 cycles
cpu0_STLB TOTAL        ACCESS:      13536 HIT:      11043 MISS:       2493
cpu0_STLB LOAD         ACCESS:      13536 HIT:      11043 MISS:       2493
cpu0_STLB RFO          ACCESS:          0 HIT:          0 MISS:          0
cpu0_STLB PREFETCH     ACCESS:          0 HIT:          0 MISS:          0
cpu0_STLB WRITE        ACCESS:          0 HIT:          0 MISS:          0
cpu0_STLB TRANSLATION  ACCESS:          0 HIT:          0 MISS:          0
cpu0_STLB PREFETCH REQUESTED:          0 ISSUED:          0 USEFUL:          0 USELESS:          0
cpu0_STLB AVERAGE MISS LATENCY: 133.9 cycles

DRAM Statistics

Channel 0 RQ ROW_BUFFER_HIT:      13020
  ROW_BUFFER_MISS:      12299
 AVG DBUS CONGESTED CYCLE: 3.843
WQ ROW_BUFFER_HIT: Channel 0 
  ROW_BUFFER_MISS:        896
  FULL:       3891

Channel 1 RQ ROW_BUFFER_HIT:      12489
  ROW_BUFFER_MISS:      12247
 AVG DBUS CONGESTED CYCLE: 3.807
WQ ROW_BUFFER_HIT: Channel 1 
  ROW_BUFFER_MISS:        794
  FULL:       3562
BERTI TO_L1: 819267 TO_L2: 1235522 TO_L2_BC_MSHR: 627284
BERTI AVG_LAT: 53.4169 NUM_TRACK_LATENCY: 94001 NUM_CANT_TRACK_LATENCY: 0
BERTI CROSS_PAGE 406374 NO_CROSS_PAGE: 1648415
BERTI FOUND_BERTI: 1039314 NO_FOUND_BERTI: 8714689
BERTI AVERAGE_ISSUED: 4.18832
CPU 0 L1I Entangling prefetcher final stats
IP accesses: 3e6e f9b80 157600 / 3602863
IP misses: 25bf 96fc0 90 / 24102
IP hits: 0 0 0 / 0
IP late: 3eb2 fac80 28 / 11503
IP wrong: f801 3e0040 66 / 28961
miss rate: 0.00668968
coverage: 0
coverage_late: 0.477264
accuracy: 0
accuracy_late: 0.284278
discarded: 0
evicts entangled j table: 0
evicts entangled k table: 3930
max bb size: 53
formats: 936 0 3501 1673 740 1578 0 
hist_lookups: 3142 3362 2513 2212 1906 1581 1269 943 654 541 380 270 166 110 48 0 12 3994 
hist_lookups_evict: 0.0519414 %
hist_lookups_shortlat: 17.2878 %
bb_found_hist: 0 1185821 376106 306144 88816 2270 969 724 263 65 4 66 60 46 15 20 2 0 0 0 1 4 0 0 0 0 0 0 0 0 0 2 2 0 2 0 0 0 0 0 0 0 0 0 0 0 0 0 0 0 0 0 0 1 0 0 0 0 0 0 0 0 0 0 
bb_found_summary: 3239627 1961403 1.65169
entangled_found_hist: 0 614636 335638 869591 38939 1012 130 0 
entangled_found_summary: 4056281 1859946 2.18086
bb_ent_found_hist: 0 1821942 143570 586690 69433 114360 2106 172425 613 70 0 136 60 79 22 134 128 0 0 0 1 10 0 0 0 0 0 0 0 0 0 2 2 0 2 0 0 0 0 0 0 0 0 0 0 0 0 0 0 0 0 0 0 1 0 0 0 0 0 0 0 0 0 0 
bb_ent_found_summary: 5951915 2911786 2.04408
