WARNING: physical memory size is smaller than virtual memory size.

*** ChampSim Multicore Out-of-Order Simulator ***
Warmup Instructions: 30000000
Simulation Instructions: 100000000
Number of CPUs: 1
Page size: 4096

BTB:
Basic BTB sets: 1024 ways: 8
Indirect:
history lengths: 0 0 10 16 27 44 60 96 109 219 449 487 714 1313 2146 3881 
ITTAGE tables: 64768 bytes;Region table: 240 bytes;IUM: 384 bytes;Total Storage= 65392 bytes;
RAS:
RAS size: 64
[LLC] Demand IPV: 1 2 2 1 4 Prefetch IPV: 1 2 1 1 4
Berti Prefetcher
CPU 0 Entangling prefetcher
Off-chip DRAM Size: 8 GiB Channels: 2 Width: 64-bit Data Race: 6400 MT/s
Heartbeat CPU 0 instructions: 10000004 cycles: 1666735 heartbeat IPC: 6 cumulative IPC: 6 (Simulation time: 00 hr 00 min 27 sec)
Heartbeat CPU 0 instructions: 20000001 cycles: 3333509 heartbeat IPC: 6 cumulative IPC: 6 (Simulation time: 00 hr 00 min 55 sec)
Heartbeat CPU 0 instructions: 30000008 cycles: 5000339 heartbeat IPC: 5.999 cumulative IPC: 6 (Simulation time: 00 hr 01 min 23 sec)
Warmup finished CPU 0 instructions: 30000008 cycles: 5000340 cumulative IPC: 6 (Simulation time: 00 hr 01 min 23 sec)
Warmup complete CPU 0 instructions: 30000008 cycles: 5000340 cumulative IPC: 6 (Simulation time: 00 hr 01 min 23 sec)
Heartbeat CPU 0 instructions: 40000006 cycles: 7109263 heartbeat IPC: 4.742 cumulative IPC: 4.742 (Simulation time: 00 hr 02 min 04 sec)
Heartbeat CPU 0 instructions: 50000004 cycles: 9218286 heartbeat IPC: 4.742 cumulative IPC: 4.742 (Simulation time: 00 hr 02 min 48 sec)
Heartbeat CPU 0 instructions: 60000002 cycles: 11327417 heartbeat IPC: 4.741 cumulative IPC: 4.742 (Simulation time: 00 hr 03 min 31 sec)
Heartbeat CPU 0 instructions: 70000001 cycles: 13436295 heartbeat IPC: 4.742 cumulative IPC: 4.742 (Simulation time: 00 hr 04 min 15 sec)
Heartbeat CPU 0 instructions: 80000008 cycles: 17076491 heartbeat IPC: 2.747 cumulative IPC: 4.14 (Simulation time: 00 hr 05 min 07 sec)
Heartbeat CPU 0 instructions: 90000003 cycles: 19772970 heartbeat IPC: 3.709 cumulative IPC: 4.062 (Simulation time: 00 hr 05 min 49 sec)
Heartbeat CPU 0 instructions: 100000003 cycles: 22201267 heartbeat IPC: 4.118 cumulative IPC: 4.07 (Simulation time: 00 hr 06 min 34 sec)
*** Reached end of trace: (0, "../traces/secret_traces/crypto/crypto5.champsimtrace.xz")
Heartbeat CPU 0 instructions: 110000000 cycles: 25609762 heartbeat IPC: 2.934 cumulative IPC: 3.882 (Simulation time: 00 hr 07 min 27 sec)
Heartbeat CPU 0 instructions: 120000002 cycles: 27718799 heartbeat IPC: 4.742 cumulative IPC: 3.962 (Simulation time: 00 hr 08 min 06 sec)
Heartbeat CPU 0 instructions: 130000001 cycles: 29806999 heartbeat IPC: 4.789 cumulative IPC: 4.031 (Simulation time: 00 hr 08 min 44 sec)
Simulation finished CPU 0 instructions: 100000001 cycles: 24806662 cumulative IPC: 4.031 (Simulation time: 00 hr 08 min 44 sec)
Simulation complete CPU 0 instructions: 100000001 cycles: 24806662 cumulative IPC: 4.031 (Simulation time: 00 hr 08 min 44 sec)

ChampSim completed all CPUs

=== Simulation ===
CPU 0 runs ../traces/secret_traces/crypto/crypto5.champsimtrace.xz
Region of Interest Statistics

CPU 0 cumulative IPC: 4.031 instructions: 100000001 cycles: 24806662
CPU 0 Branch Prediction Accuracy: 96.48% MPKI: 1.759 Average ROB Occupancy at Mispredict: 18.47
Branch type MPKI
BRANCH_DIRECT_JUMP: 0.111
BRANCH_INDIRECT: 0.692
BRANCH_CONDITIONAL: 0.507
BRANCH_DIRECT_CALL: 0.175
BRANCH_INDIRECT_CALL: 0.0905
BRANCH_RETURN: 0.184

LLC TOTAL        ACCESS:     119765 HIT:      68532 MISS:      51233
LLC LOAD         ACCESS:      22524 HIT:       9429 MISS:      13095
LLC RFO          ACCESS:      11574 HIT:       4208 MISS:       7366
LLC PREFETCH     ACCESS:      66905 HIT:      38298 MISS:      28607
LLC WRITE        ACCESS:      17283 HIT:      16184 MISS:       1099
LLC TRANSLATION  ACCESS:       1479 HIT:        413 MISS:       1066
LLC PREFETCH REQUESTED:          0 ISSUED:          0 USEFUL:          0 USELESS:          0
LLC AVERAGE MISS LATENCY: 107 cycles
cpu0_DTLB TOTAL        ACCESS:   11284602 HIT:   11256426 MISS:      28176
cpu0_DTLB LOAD         ACCESS:   11284602 HIT:   11256426 MISS:      28176
cpu0_DTLB RFO          ACCESS:          0 HIT:          0 MISS:          0
cpu0_DTLB PREFETCH     ACCESS:          0 HIT:          0 MISS:          0
cpu0_DTLB WRITE        ACCESS:          0 HIT:          0 MISS:          0
cpu0_DTLB TRANSLATION  ACCESS:          0 HIT:          0 MISS:          0
cpu0_DTLB PREFETCH REQUESTED:          0 ISSUED:          0 USEFUL:          0 USELESS:          0
cpu0_DTLB AVERAGE MISS LATENCY: 13.55 cycles
cpu0_ITLB TOTAL        ACCESS:    1134838 HIT:    1117487 MISS:      17351
cpu0_ITLB LOAD         ACCESS:    1134838 HIT:    1117487 MISS:      17351
cpu0_ITLB RFO          ACCESS:          0 HIT:          0 MISS:          0
cpu0_ITLB PREFETCH     ACCESS:          0 HIT:          0 MISS:          0
cpu0_ITLB WRITE        ACCESS:          0 HIT:          0 MISS:          0
cpu0_ITLB TRANSLATION  ACCESS:          0 HIT:          0 MISS:          0
cpu0_ITLB PREFETCH REQUESTED:          0 ISSUED:          0 USEFUL:          0 USELESS:          0
cpu0_ITLB AVERAGE MISS LATENCY: 15.3 cycles
cpu0_L1D TOTAL        ACCESS:   15102071 HIT:   14835930 MISS:     266141
cpu0_L1D LOAD         ACCESS:   11072405 HIT:   10949573 MISS:     122832
cpu0_L1D RFO          ACCESS:          0 HIT:          0 MISS:          0
cpu0_L1D PREFETCH     ACCESS:     513623 HIT:     469981 MISS:      43642
cpu0_L1D WRITE        ACCESS:    3513664 HIT:    3415910 MISS:      97754
cpu0_L1D TRANSLATION  ACCESS:       2379 HIT:        466 MISS:       1913
cpu0_L1D PREFETCH REQUESTED:     565722 ISSUED:     513623 USEFUL:      23261 USELESS:        158
cpu0_L1D AVERAGE MISS LATENCY: 11.78 cycles
cpu0_L1I TOTAL        ACCESS:    1656596 HIT:    1358534 MISS:     298062
cpu0_L1I LOAD         ACCESS:     549004 HIT:     454551 MISS:      94453
cpu0_L1I RFO          ACCESS:          0 HIT:          0 MISS:          0
cpu0_L1I PREFETCH     ACCESS:    1107592 HIT:     903983 MISS:     203609
cpu0_L1I WRITE        ACCESS:          0 HIT:          0 MISS:          0
cpu0_L1I TRANSLATION  ACCESS:          0 HIT:          0 MISS:          0
cpu0_L1I PREFETCH REQUESTED:    1497099 ISSUED:    1107592 USEFUL:     108733 USELESS:      80487
cpu0_L1I AVERAGE MISS LATENCY: 15.72 cycles
cpu0_L2C TOTAL        ACCESS:     813291 HIT:     689504 MISS:     123787
cpu0_L2C LOAD         ACCESS:     145031 HIT:     119425 MISS:      25606
cpu0_L2C RFO          ACCESS:      24009 HIT:      12328 MISS:      11681
cpu0_L2C PREFETCH     ACCESS:     599872 HIT:     514863 MISS:      85009
cpu0_L2C WRITE        ACCESS:      42469 HIT:      42457 MISS:         12
cpu0_L2C TRANSLATION  ACCESS:       1910 HIT:        431 MISS:       1479
cpu0_L2C PREFETCH REQUESTED:     377377 ISSUED:     367526 USEFUL:      34152 USELESS:      14100
cpu0_L2C AVERAGE MISS LATENCY: 59.88 cycles
cpu0_STLB TOTAL        ACCESS:      28413 HIT:      26194 MISS:       2219
cpu0_STLB LOAD         ACCESS:      28413 HIT:      26194 MISS:       2219
cpu0_STLB RFO          ACCESS:          0 HIT:          0 MISS:          0
cpu0_STLB PREFETCH     ACCESS:          0 HIT:          0 MISS:          0
cpu0_STLB WRITE        ACCESS:          0 HIT:          0 MISS:          0
cpu0_STLB TRANSLATION  ACCESS:          0 HIT:          0 MISS:          0
cpu0_STLB PREFETCH REQUESTED:          0 ISSUED:          0 USEFUL:          0 USELESS:          0
cpu0_STLB AVERAGE MISS LATENCY: 213.3 cycles

DRAM Statistics

Channel 0 RQ ROW_BUFFER_HIT:      13305
  ROW_BUFFER_MISS:      12059
 AVG DBUS CONGESTED CYCLE: 3.431
WQ ROW_BUFFER_HIT: Channel 0 
  ROW_BUFFER_MISS:        102
  FULL:        188

Channel 1 RQ ROW_BUFFER_HIT:      13150
  ROW_BUFFER_MISS:      11620
 AVG DBUS CONGESTED CYCLE: 3.467
WQ ROW_BUFFER_HIT: Channel 1 
  ROW_BUFFER_MISS:         68
  FULL:        187
BERTI TO_L1: 602945 TO_L2: 102165 TO_L2_BC_MSHR: 904
BERTI AVG_LAT: 24.537 NUM_TRACK_LATENCY: 111057 NUM_CANT_TRACK_LATENCY: 0
BERTI CROSS_PAGE 83961 NO_CROSS_PAGE: 621149
BERTI FOUND_BERTI: 743164 NO_FOUND_BERTI: 13684423
BERTI AVERAGE_ISSUED: 9.65765
CPU 0 L1I Entangling prefetcher final stats
IP accesses: 9fe3 27f8c0 2162 / 549867
IP misses: 701e 1c0780 185 / 95316
IP hits: 0 0 0 / 0
IP late: 1bc 6f00 57 / 41090
IP wrong: 26ff 9bfc0 168 / 79911
miss rate: 0.173344
coverage: 0
coverage_late: 0.431093
accuracy: 0
accuracy_late: 0.339584
discarded: 0
evicts entangled j table: 0
evicts entangled k table: 11122
max bb size: 67
formats: 190 1138 15667 4009 3370 6518 0 
hist_lookups: 14573 12480 7945 7092 6052 4976 3811 2745 2083 1736 1274 793 481 251 111 0 0 7765 
hist_lookups_evict: 0 %
hist_lookups_shortlat: 10.4695 %
bb_found_hist: 0 104590 44166 22881 12424 3932 3279 1852 838 897 351 728 543 68 238 121 144 25 655 55 61 16 17 0 106 4 42 0 0 19 0 0 0 0 0 0 0 0 0 0 0 0 0 0 0 0 0 0 7 0 0 0 0 0 0 0 0 0 0 0 0 0 0 0 
bb_found_summary: 424518 198059 2.1434
entangled_found_hist: 0 52986 49287 80883 15681 6420 106 0 
entangled_found_summary: 489669 205363 2.38441
bb_ent_found_hist: 0 152662 61704 40535 21941 7232 4807 4407 1866 2352 413 1470 624 118 516 156 342 59 265 0 222 68 9 0 0 0 116 0 0 38 0 0 0 0 0 0 0 0 0 0 0 0 0 0 0 0 0 0 12 0 0 0 0 0 0 0 0 0 0 0 0 0 0 0 
bb_ent_found_summary: 678277 301934 2.24645
