WARNING: physical memory size is smaller than virtual memory size.

*** ChampSim Multicore Out-of-Order Simulator ***
Warmup Instructions: 30000000
Simulation Instructions: 100000000
Number of CPUs: 1
Page size: 4096

BTB:
Basic BTB sets: 1024 ways: 8
Indirect:
history lengths: 0 0 10 16 27 44 60 96 109 219 449 487 714 1313 2146 3881 
ITTAGE tables: 64768 bytes;Region table: 240 bytes;IUM: 384 bytes;Total Storage= 65392 bytes;
RAS:
RAS size: 64
[LLC] Demand IPV: 1 2 2 1 4 Prefetch IPV: 1 2 1 1 4
Berti Prefetcher
CPU 0 Entangling prefetcher
Off-chip DRAM Size: 8 GiB Channels: 2 Width: 64-bit Data Race: 6400 MT/s
Heartbeat CPU 0 instructions: 10000005 cycles: 1714865 heartbeat IPC: 5.831 cumulative IPC: 5.831 (Simulation time: 00 hr 00 min 31 sec)
Heartbeat CPU 0 instructions: 20000008 cycles: 3431206 heartbeat IPC: 5.826 cumulative IPC: 5.829 (Simulation time: 00 hr 01 min 05 sec)
*** Reached end of trace: (0, "../traces/secret_traces/crypto/crypto71.champsimtrace.xz")
Heartbeat CPU 0 instructions: 30000004 cycles: 5132510 heartbeat IPC: 5.878 cumulative IPC: 5.845 (Simulation time: 00 hr 01 min 41 sec)
Warmup finished CPU 0 instructions: 30000004 cycles: 5132511 cumulative IPC: 5.845 (Simulation time: 00 hr 01 min 41 sec)
Warmup complete CPU 0 instructions: 30000004 cycles: 5132511 cumulative IPC: 5.845 (Simulation time: 00 hr 01 min 41 sec)
Heartbeat CPU 0 instructions: 40000000 cycles: 6932172 heartbeat IPC: 5.557 cumulative IPC: 5.557 (Simulation time: 00 hr 02 min 22 sec)
Heartbeat CPU 0 instructions: 50000001 cycles: 9067907 heartbeat IPC: 4.682 cumulative IPC: 5.082 (Simulation time: 00 hr 03 min 04 sec)
*** Reached end of trace: (0, "../traces/secret_traces/crypto/crypto71.champsimtrace.xz")
Heartbeat CPU 0 instructions: 60000005 cycles: 11209269 heartbeat IPC: 4.67 cumulative IPC: 4.937 (Simulation time: 00 hr 03 min 43 sec)
Heartbeat CPU 0 instructions: 70000001 cycles: 12927135 heartbeat IPC: 5.821 cumulative IPC: 5.132 (Simulation time: 00 hr 04 min 18 sec)
Heartbeat CPU 0 instructions: 80000002 cycles: 14987682 heartbeat IPC: 4.853 cumulative IPC: 5.073 (Simulation time: 00 hr 04 min 58 sec)
*** Reached end of trace: (0, "../traces/secret_traces/crypto/crypto71.champsimtrace.xz")
Heartbeat CPU 0 instructions: 90000004 cycles: 17134386 heartbeat IPC: 4.658 cumulative IPC: 4.999 (Simulation time: 00 hr 05 min 49 sec)
Heartbeat CPU 0 instructions: 100000000 cycles: 18881828 heartbeat IPC: 5.723 cumulative IPC: 5.091 (Simulation time: 00 hr 06 min 32 sec)
*** Reached end of trace: (0, "../traces/secret_traces/crypto/crypto71.champsimtrace.xz")
Heartbeat CPU 0 instructions: 110000001 cycles: 21054441 heartbeat IPC: 4.603 cumulative IPC: 5.025 (Simulation time: 00 hr 07 min 20 sec)
Heartbeat CPU 0 instructions: 120000006 cycles: 22964505 heartbeat IPC: 5.235 cumulative IPC: 5.047 (Simulation time: 00 hr 08 min 06 sec)
Heartbeat CPU 0 instructions: 130000002 cycles: 24991465 heartbeat IPC: 4.933 cumulative IPC: 5.036 (Simulation time: 00 hr 08 min 52 sec)
Simulation finished CPU 0 instructions: 100000010 cycles: 19858956 cumulative IPC: 5.036 (Simulation time: 00 hr 08 min 52 sec)
Simulation complete CPU 0 instructions: 100000010 cycles: 19858956 cumulative IPC: 5.036 (Simulation time: 00 hr 08 min 52 sec)

ChampSim completed all CPUs

=== Simulation ===
CPU 0 runs ../traces/secret_traces/crypto/crypto71.champsimtrace.xz
Region of Interest Statistics

CPU 0 cumulative IPC: 5.036 instructions: 100000010 cycles: 19858956
CPU 0 Branch Prediction Accuracy: 99.07% MPKI: 0.7959 Average ROB Occupancy at Mispredict: 30.17
Branch type MPKI
BRANCH_DIRECT_JUMP: 0.0488
BRANCH_INDIRECT: 0.416
BRANCH_CONDITIONAL: 0.106
BRANCH_DIRECT_CALL: 0.134
BRANCH_INDIRECT_CALL: 0.0167
BRANCH_RETURN: 0.0742

LLC TOTAL        ACCESS:     422239 HIT:     327766 MISS:      94473
LLC LOAD         ACCESS:      45995 HIT:      23635 MISS:      22360
LLC RFO          ACCESS:     134986 HIT:     120287 MISS:      14699
LLC PREFETCH     ACCESS:      95689 HIT:      51645 MISS:      44044
LLC WRITE        ACCESS:     143364 HIT:     131781 MISS:      11583
LLC TRANSLATION  ACCESS:       2205 HIT:        418 MISS:       1787
LLC PREFETCH REQUESTED:          0 ISSUED:          0 USEFUL:          0 USELESS:          0
LLC AVERAGE MISS LATENCY: 136.3 cycles
cpu0_DTLB TOTAL        ACCESS:   12835927 HIT:   12794881 MISS:      41046
cpu0_DTLB LOAD         ACCESS:   12835927 HIT:   12794881 MISS:      41046
cpu0_DTLB RFO          ACCESS:          0 HIT:          0 MISS:          0
cpu0_DTLB PREFETCH     ACCESS:          0 HIT:          0 MISS:          0
cpu0_DTLB WRITE        ACCESS:          0 HIT:          0 MISS:          0
cpu0_DTLB TRANSLATION  ACCESS:          0 HIT:          0 MISS:          0
cpu0_DTLB PREFETCH REQUESTED:          0 ISSUED:          0 USEFUL:          0 USELESS:          0
cpu0_DTLB AVERAGE MISS LATENCY: 8.807 cycles
cpu0_ITLB TOTAL        ACCESS:     666884 HIT:     653868 MISS:      13016
cpu0_ITLB LOAD         ACCESS:     666884 HIT:     653868 MISS:      13016
cpu0_ITLB RFO          ACCESS:          0 HIT:          0 MISS:          0
cpu0_ITLB PREFETCH     ACCESS:          0 HIT:          0 MISS:          0
cpu0_ITLB WRITE        ACCESS:          0 HIT:          0 MISS:          0
cpu0_ITLB TRANSLATION  ACCESS:          0 HIT:          0 MISS:          0
cpu0_ITLB PREFETCH REQUESTED:          0 ISSUED:          0 USEFUL:          0 USELESS:          0
cpu0_ITLB AVERAGE MISS LATENCY: 19.06 cycles
cpu0_L1D TOTAL        ACCESS:   17968467 HIT:   17371218 MISS:     597249
cpu0_L1D LOAD         ACCESS:   11014784 HIT:   10858856 MISS:     155928
cpu0_L1D RFO          ACCESS:          0 HIT:          0 MISS:          0
cpu0_L1D PREFETCH     ACCESS:     500194 HIT:     414682 MISS:      85512
cpu0_L1D WRITE        ACCESS:    6448794 HIT:    6095884 MISS:     352910
cpu0_L1D TRANSLATION  ACCESS:       4695 HIT:       1796 MISS:       2899
cpu0_L1D PREFETCH REQUESTED:    2896818 ISSUED:     500194 USEFUL:      11309 USELESS:       1080
cpu0_L1D AVERAGE MISS LATENCY: 21.59 cycles
cpu0_L1I TOTAL        ACCESS:     971988 HIT:     811297 MISS:     160691
cpu0_L1I LOAD         ACCESS:     317959 HIT:     281008 MISS:      36951
cpu0_L1I RFO          ACCESS:          0 HIT:          0 MISS:          0
cpu0_L1I PREFETCH     ACCESS:     654029 HIT:     530289 MISS:     123740
cpu0_L1I WRITE        ACCESS:          0 HIT:          0 MISS:          0
cpu0_L1I TRANSLATION  ACCESS:          0 HIT:          0 MISS:          0
cpu0_L1I PREFETCH REQUESTED:    1053668 ISSUED:     654019 USEFUL:      69873 USELESS:      48517
cpu0_L1I AVERAGE MISS LATENCY: 29.56 cycles
cpu0_L2C TOTAL        ACCESS:     920421 HIT:     562282 MISS:     358139
cpu0_L2C LOAD         ACCESS:     125257 HIT:      69425 MISS:      55832
cpu0_L2C RFO          ACCESS:     145265 HIT:      10227 MISS:     135038
cpu0_L2C PREFETCH     ACCESS:     482233 HIT:     317169 MISS:     165064
cpu0_L2C WRITE        ACCESS:     164865 HIT:     164865 MISS:          0
cpu0_L2C TRANSLATION  ACCESS:       2801 HIT:        596 MISS:       2205
cpu0_L2C PREFETCH REQUESTED:     311524 ISSUED:     295966 USEFUL:      22283 USELESS:      23976
cpu0_L2C AVERAGE MISS LATENCY: 50.17 cycles
cpu0_STLB TOTAL        ACCESS:      23484 HIT:      19156 MISS:       4328
cpu0_STLB LOAD         ACCESS:      23484 HIT:      19156 MISS:       4328
cpu0_STLB RFO          ACCESS:          0 HIT:          0 MISS:          0
cpu0_STLB PREFETCH     ACCESS:          0 HIT:          0 MISS:          0
cpu0_STLB WRITE        ACCESS:          0 HIT:          0 MISS:          0
cpu0_STLB TRANSLATION  ACCESS:          0 HIT:          0 MISS:          0
cpu0_STLB PREFETCH REQUESTED:          0 ISSUED:          0 USEFUL:          0 USELESS:          0
cpu0_STLB AVERAGE MISS LATENCY: 118.6 cycles

DRAM Statistics

Channel 0 RQ ROW_BUFFER_HIT:      21731
  ROW_BUFFER_MISS:      20423
 AVG DBUS CONGESTED CYCLE: 3.842
WQ ROW_BUFFER_HIT: Channel 0 
  ROW_BUFFER_MISS:       1400
  FULL:       5762

Channel 1 RQ ROW_BUFFER_HIT:      21147
  ROW_BUFFER_MISS:      19569
 AVG DBUS CONGESTED CYCLE: 3.819
WQ ROW_BUFFER_HIT: Channel 1 
  ROW_BUFFER_MISS:       1367
  FULL:       5180
BERTI TO_L1: 1264171 TO_L2: 2193264 TO_L2_BC_MSHR: 1130890
BERTI AVG_LAT: 54.8024 NUM_TRACK_LATENCY: 154309 NUM_CANT_TRACK_LATENCY: 0
BERTI CROSS_PAGE 673175 NO_CROSS_PAGE: 2784260
BERTI FOUND_BERTI: 1227640 NO_FOUND_BERTI: 13659278
BERTI AVERAGE_ISSUED: 4.19173
CPU 0 L1I Entangling prefetcher final stats
IP accesses: 77e1 1df840 1421 / 318792
IP misses: 5bf1 16fc40 188 / 37784
IP hits: 0 0 0 / 0
IP late: 6e9e 1ba780 57 / 18271
IP wrong: 7cde 1f3780 144 / 48318
miss rate: 0.118523
coverage: 0
coverage_late: 0.483565
accuracy: 0
accuracy_late: 0.274385
discarded: 0
evicts entangled j table: 0
evicts entangled k table: 6415
max bb size: 53
formats: 1602 0 5033 2529 1023 1922 0 
hist_lookups: 4116 4673 3690 3458 3046 2533 1960 1435 1115 992 736 487 318 169 87 0 21 6413 
hist_lookups_evict: 0.0595762 %
hist_lookups_shortlat: 18.1935 %
bb_found_hist: 0 81447 34770 16456 7636 3791 1898 1394 470 78 4 113 115 98 26 27 4 8 0 0 0 6 0 0 0 0 0 0 0 0 0 4 0 0 4 0 0 0 0 0 0 0 0 0 0 0 0 0 0 0 0 0 0 4 0 0 0 0 0 0 0 0 0 0 
bb_found_summary: 280966 148353 1.89391
entangled_found_hist: 0 44344 30648 59950 11707 1932 508 0 
entangled_found_summary: 345026 149089 2.31423
bb_ent_found_hist: 0 115165 53190 35014 15142 9454 3255 2646 1717 32 0 200 88 47 28 107 210 4 0 0 0 14 0 0 0 0 0 0 0 0 0 4 0 0 7 0 0 0 0 0 0 0 0 0 0 0 0 0 0 0 0 0 0 7 0 0 0 0 0 0 0 0 0 0 
bb_ent_found_summary: 496820 236331 2.10223
