WARNING: physical memory size is smaller than virtual memory size.

*** ChampSim Multicore Out-of-Order Simulator ***
Warmup Instructions: 30000000
Simulation Instructions: 100000000
Number of CPUs: 1
Page size: 4096

BTB:
Basic BTB sets: 1024 ways: 8
Indirect:
history lengths: 0 0 10 16 27 44 60 96 109 219 449 487 714 1313 2146 3881 
ITTAGE tables: 64768 bytes;Region table: 240 bytes;IUM: 384 bytes;Total Storage= 65392 bytes;
RAS:
RAS size: 64
[LLC] Demand IPV: 1 2 2 1 4 Prefetch IPV: 1 2 1 1 4
Berti Prefetcher
CPU 0 Entangling prefetcher
Off-chip DRAM Size: 8 GiB Channels: 2 Width: 64-bit Data Race: 6400 MT/s
Heartbeat CPU 0 instructions: 10000006 cycles: 2077429 heartbeat IPC: 4.814 cumulative IPC: 4.814 (Simulation time: 00 hr 00 min 55 sec)
Heartbeat CPU 0 instructions: 20000002 cycles: 4109286 heartbeat IPC: 4.922 cumulative IPC: 4.867 (Simulation time: 00 hr 01 min 49 sec)
Heartbeat CPU 0 instructions: 30000006 cycles: 5915204 heartbeat IPC: 5.537 cumulative IPC: 5.072 (Simulation time: 00 hr 02 min 40 sec)
Warmup finished CPU 0 instructions: 30000006 cycles: 5915205 cumulative IPC: 5.072 (Simulation time: 00 hr 02 min 40 sec)
Warmup complete CPU 0 instructions: 30000006 cycles: 5915205 cumulative IPC: 5.072 (Simulation time: 00 hr 02 min 40 sec)
Heartbeat CPU 0 instructions: 40000006 cycles: 13557320 heartbeat IPC: 1.309 cumulative IPC: 1.309 (Simulation time: 00 hr 04 min 19 sec)
Heartbeat CPU 0 instructions: 50000004 cycles: 20745519 heartbeat IPC: 1.391 cumulative IPC: 1.349 (Simulation time: 00 hr 06 min 03 sec)
Heartbeat CPU 0 instructions: 60000004 cycles: 26580686 heartbeat IPC: 1.714 cumulative IPC: 1.452 (Simulation time: 00 hr 07 min 25 sec)
Heartbeat CPU 0 instructions: 70000011 cycles: 31893403 heartbeat IPC: 1.882 cumulative IPC: 1.54 (Simulation time: 00 hr 08 min 44 sec)
Heartbeat CPU 0 instructions: 80000002 cycles: 35180481 heartbeat IPC: 3.042 cumulative IPC: 1.709 (Simulation time: 00 hr 09 min 46 sec)
Heartbeat CPU 0 instructions: 90000001 cycles: 38142000 heartbeat IPC: 3.377 cumulative IPC: 1.862 (Simulation time: 00 hr 10 min 49 sec)
Heartbeat CPU 0 instructions: 100000005 cycles: 43011419 heartbeat IPC: 2.054 cumulative IPC: 1.887 (Simulation time: 00 hr 12 min 06 sec)
*** Reached end of trace: (0, "../traces/secret_traces/crypto/crypto100.champsimtrace.xz")
Heartbeat CPU 0 instructions: 110000007 cycles: 51388433 heartbeat IPC: 1.194 cumulative IPC: 1.759 (Simulation time: 00 hr 13 min 52 sec)
Heartbeat CPU 0 instructions: 120000000 cycles: 62481731 heartbeat IPC: 0.9014 cumulative IPC: 1.591 (Simulation time: 00 hr 16 min 07 sec)
Heartbeat CPU 0 instructions: 130000000 cycles: 70368128 heartbeat IPC: 1.268 cumulative IPC: 1.552 (Simulation time: 00 hr 17 min 31 sec)
Simulation finished CPU 0 instructions: 100000007 cycles: 64452926 cumulative IPC: 1.552 (Simulation time: 00 hr 17 min 31 sec)
Simulation complete CPU 0 instructions: 100000007 cycles: 64452926 cumulative IPC: 1.552 (Simulation time: 00 hr 17 min 31 sec)

ChampSim completed all CPUs

=== Simulation ===
CPU 0 runs ../traces/secret_traces/crypto/crypto100.champsimtrace.xz
Region of Interest Statistics

CPU 0 cumulative IPC: 1.552 instructions: 100000007 cycles: 64452926
CPU 0 Branch Prediction Accuracy: 94.21% MPKI: 10.65 Average ROB Occupancy at Mispredict: 25.21
Branch type MPKI
BRANCH_DIRECT_JUMP: 0.505
BRANCH_INDIRECT: 3.97
BRANCH_CONDITIONAL: 3.56
BRANCH_DIRECT_CALL: 0.925
BRANCH_INDIRECT_CALL: 0.658
BRANCH_RETURN: 1.03

LLC TOTAL        ACCESS:    1692063 HIT:     552641 MISS:    1139422
LLC LOAD         ACCESS:     249301 HIT:      50975 MISS:     198326
LLC RFO          ACCESS:     437764 HIT:     156950 MISS:     280814
LLC PREFETCH     ACCESS:     494441 HIT:     116286 MISS:     378155
LLC WRITE        ACCESS:     492731 HIT:     227923 MISS:     264808
LLC TRANSLATION  ACCESS:      17826 HIT:        507 MISS:      17319
LLC PREFETCH REQUESTED:          0 ISSUED:          0 USEFUL:          0 USELESS:          0
LLC AVERAGE MISS LATENCY: 192 cycles
cpu0_DTLB TOTAL        ACCESS:   19410218 HIT:   19098404 MISS:     311814
cpu0_DTLB LOAD         ACCESS:   19410218 HIT:   19098404 MISS:     311814
cpu0_DTLB RFO          ACCESS:          0 HIT:          0 MISS:          0
cpu0_DTLB PREFETCH     ACCESS:          0 HIT:          0 MISS:          0
cpu0_DTLB WRITE        ACCESS:          0 HIT:          0 MISS:          0
cpu0_DTLB TRANSLATION  ACCESS:          0 HIT:          0 MISS:          0
cpu0_DTLB PREFETCH REQUESTED:          0 ISSUED:          0 USEFUL:          0 USELESS:          0
cpu0_DTLB AVERAGE MISS LATENCY: 13.92 cycles
cpu0_ITLB TOTAL        ACCESS:    8823712 HIT:    8726692 MISS:      97020
cpu0_ITLB LOAD         ACCESS:    8823712 HIT:    8726692 MISS:      97020
cpu0_ITLB RFO          ACCESS:          0 HIT:          0 MISS:          0
cpu0_ITLB PREFETCH     ACCESS:          0 HIT:          0 MISS:          0
cpu0_ITLB WRITE        ACCESS:          0 HIT:          0 MISS:          0
cpu0_ITLB TRANSLATION  ACCESS:          0 HIT:          0 MISS:          0
cpu0_ITLB PREFETCH REQUESTED:          0 ISSUED:          0 USEFUL:          0 USELESS:          0
cpu0_ITLB AVERAGE MISS LATENCY: 19.32 cycles
cpu0_L1D TOTAL        ACCESS:   30242047 HIT:   26725727 MISS:    3516320
cpu0_L1D LOAD         ACCESS:   18014977 HIT:   16727407 MISS:    1287570
cpu0_L1D RFO          ACCESS:          0 HIT:          0 MISS:          0
cpu0_L1D PREFETCH     ACCESS:    1128723 HIT:     767615 MISS:     361108
cpu0_L1D WRITE        ACCESS:   11068385 HIT:    9223513 MISS:    1844872
cpu0_L1D TRANSLATION  ACCESS:      29962 HIT:       7192 MISS:      22770
cpu0_L1D PREFETCH REQUESTED:   24226047 ISSUED:    1128723 USEFUL:      65017 USELESS:       5291
cpu0_L1D AVERAGE MISS LATENCY: 47.22 cycles
cpu0_L1I TOTAL        ACCESS:   12830338 HIT:   10611869 MISS:    2218469
cpu0_L1I LOAD         ACCESS:    4663105 HIT:    3835077 MISS:     828028
cpu0_L1I RFO          ACCESS:          0 HIT:          0 MISS:          0
cpu0_L1I PREFETCH     ACCESS:    8167233 HIT:    6776792 MISS:    1390441
cpu0_L1I WRITE        ACCESS:          0 HIT:          0 MISS:          0
cpu0_L1I TRANSLATION  ACCESS:          0 HIT:          0 MISS:          0
cpu0_L1I PREFETCH REQUESTED:   13987212 ISSUED:    8167233 USEFUL:     714622 USELESS:     577561
cpu0_L1I AVERAGE MISS LATENCY: 22.38 cycles
cpu0_L2C TOTAL        ACCESS:    7116977 HIT:    5519594 MISS:    1597383
cpu0_L2C LOAD         ACCESS:    1381486 HIT:    1061590 MISS:     319896
cpu0_L2C RFO          ACCESS:     589511 HIT:     150753 MISS:     438758
cpu0_L2C PREFETCH     ACCESS:    4404878 HIT:    3583997 MISS:     820881
cpu0_L2C WRITE        ACCESS:     718463 HIT:     718441 MISS:         22
cpu0_L2C TRANSLATION  ACCESS:      22639 HIT:       4813 MISS:      17826
cpu0_L2C PREFETCH REQUESTED:    2966218 ISSUED:    2828482 USEFUL:     178691 USELESS:     130499
cpu0_L2C AVERAGE MISS LATENCY: 148 cycles
cpu0_STLB TOTAL        ACCESS:     223962 HIT:     196741 MISS:      27221
cpu0_STLB LOAD         ACCESS:     223962 HIT:     196741 MISS:      27221
cpu0_STLB RFO          ACCESS:          0 HIT:          0 MISS:          0
cpu0_STLB PREFETCH     ACCESS:          0 HIT:          0 MISS:          0
cpu0_STLB WRITE        ACCESS:          0 HIT:          0 MISS:          0
cpu0_STLB TRANSLATION  ACCESS:          0 HIT:          0 MISS:          0
cpu0_STLB PREFETCH REQUESTED:          0 ISSUED:          0 USEFUL:          0 USELESS:          0
cpu0_STLB AVERAGE MISS LATENCY: 188.7 cycles

DRAM Statistics

Channel 0 RQ ROW_BUFFER_HIT:     142481
  ROW_BUFFER_MISS:     299516
 AVG DBUS CONGESTED CYCLE: 3.912
WQ ROW_BUFFER_HIT: Channel 0 
  ROW_BUFFER_MISS:      24195
  FULL:     138038

Channel 1 RQ ROW_BUFFER_HIT:     138962
  ROW_BUFFER_MISS:     293284
 AVG DBUS CONGESTED CYCLE: 3.904
WQ ROW_BUFFER_HIT: Channel 1 
  ROW_BUFFER_MISS:      24542
  FULL:     134489
BERTI TO_L1: 3057672 TO_L2: 24221158 TO_L2_BC_MSHR: 15277664
BERTI AVG_LAT: 71.8127 NUM_TRACK_LATENCY: 1300771 NUM_CANT_TRACK_LATENCY: 8
BERTI CROSS_PAGE 6440950 NO_CROSS_PAGE: 20837880
BERTI FOUND_BERTI: 5242972 NO_FOUND_BERTI: 20109498
BERTI AVERAGE_ISSUED: 3.47609
CPU 0 L1I Entangling prefetcher final stats
IP accesses: 98b3 262cc0 20724 / 4676449
IP misses: 109 4240 2042 / 841372
IP hits: 0 0 0 / 0
IP late: 2125 84940 481 / 343162
IP wrong: 2e8a ba280 660 / 572990
miss rate: 0.179917
coverage: 0
coverage_late: 0.407861
accuracy: 0
accuracy_late: 0.374569
discarded: 0
evicts entangled j table: 0
evicts entangled k table: 104338
max bb size: 67
formats: 10522 8773 111886 34128 24016 44748 0 
hist_lookups: 90442 86765 67616 65673 59797 49933 38319 29254 23470 18093 13279 8606 5259 2776 1246 0 30 95765 
hist_lookups_evict: 0.00457093 %
hist_lookups_shortlat: 14.5912 %
bb_found_hist: 0 953932 433054 218956 91577 42303 22214 18855 12914 6094 3678 1986 923 2458 385 28 2 38 5 17 0 134 1 0 0 0 0 0 0 0 0 0 0 0 0 0 0 0 0 0 0 0 0 0 0 0 0 0 0 0 0 0 0 0 0 0 0 0 0 0 0 0 0 0 
bb_found_summary: 3589551 1809554 1.98367
entangled_found_hist: 0 512570 449703 816649 149238 70876 5000 0 
entangled_found_summary: 4843255 2004036 2.41676
bb_ent_found_hist: 0 1552405 668509 388557 197886 98234 46474 29456 27440 13385 8768 6813 2440 5056 2569 215 0 161 5 72 0 2 24 0 0 0 0 0 0 0 0 0 0 0 0 0 0 0 0 0 0 0 0 0 0 0 0 0 0 0 0 0 0 0 0 0 0 0 0 0 0 0 0 0 
bb_ent_found_summary: 6464416 3048471 2.12055
