WARNING: physical memory size is smaller than virtual memory size.

*** ChampSim Multicore Out-of-Order Simulator ***
Warmup Instructions: 30000000
Simulation Instructions: 100000000
Number of CPUs: 1
Page size: 4096

BTB:
Basic BTB sets: 1024 ways: 8
Indirect:
history lengths: 0 0 10 16 27 44 60 96 109 219 449 487 714 1313 2146 3881 
ITTAGE tables: 64768 bytes;Region table: 240 bytes;IUM: 384 bytes;Total Storage= 65392 bytes;
RAS:
RAS size: 64
[LLC] Demand IPV: 1 2 2 1 4 Prefetch IPV: 1 2 1 1 4
Berti Prefetcher
CPU 0 Entangling prefetcher
Off-chip DRAM Size: 8 GiB Channels: 2 Width: 64-bit Data Race: 6400 MT/s
Heartbeat CPU 0 instructions: 10000005 cycles: 1715456 heartbeat IPC: 5.829 cumulative IPC: 5.829 (Simulation time: 00 hr 00 min 35 sec)
Heartbeat CPU 0 instructions: 20000006 cycles: 3431683 heartbeat IPC: 5.827 cumulative IPC: 5.828 (Simulation time: 00 hr 01 min 09 sec)
Heartbeat CPU 0 instructions: 30000004 cycles: 5098408 heartbeat IPC: 6 cumulative IPC: 5.884 (Simulation time: 00 hr 01 min 40 sec)
Warmup finished CPU 0 instructions: 30000004 cycles: 5098409 cumulative IPC: 5.884 (Simulation time: 00 hr 01 min 40 sec)
Warmup complete CPU 0 instructions: 30000004 cycles: 5098409 cumulative IPC: 5.884 (Simulation time: 00 hr 01 min 40 sec)
*** Reached end of trace: (0, "../traces/secret_traces/crypto/crypto58.champsimtrace.xz")
Heartbeat CPU 0 instructions: 40000000 cycles: 7470191 heartbeat IPC: 4.216 cumulative IPC: 4.216 (Simulation time: 00 hr 02 min 26 sec)
Heartbeat CPU 0 instructions: 50000006 cycles: 9233137 heartbeat IPC: 5.672 cumulative IPC: 4.837 (Simulation time: 00 hr 03 min 15 sec)
Heartbeat CPU 0 instructions: 60000010 cycles: 11270120 heartbeat IPC: 4.909 cumulative IPC: 4.861 (Simulation time: 00 hr 04 min 06 sec)
*** Reached end of trace: (0, "../traces/secret_traces/crypto/crypto58.champsimtrace.xz")
Heartbeat CPU 0 instructions: 70000003 cycles: 13466787 heartbeat IPC: 4.552 cumulative IPC: 4.78 (Simulation time: 00 hr 04 min 54 sec)
Heartbeat CPU 0 instructions: 80000002 cycles: 15186700 heartbeat IPC: 5.814 cumulative IPC: 4.956 (Simulation time: 00 hr 05 min 36 sec)
Heartbeat CPU 0 instructions: 90000002 cycles: 17251059 heartbeat IPC: 4.844 cumulative IPC: 4.937 (Simulation time: 00 hr 06 min 15 sec)
*** Reached end of trace: (0, "../traces/secret_traces/crypto/crypto58.champsimtrace.xz")
Heartbeat CPU 0 instructions: 100000006 cycles: 19252750 heartbeat IPC: 4.996 cumulative IPC: 4.945 (Simulation time: 00 hr 06 min 53 sec)
Heartbeat CPU 0 instructions: 110000009 cycles: 21121827 heartbeat IPC: 5.35 cumulative IPC: 4.993 (Simulation time: 00 hr 07 min 30 sec)
Heartbeat CPU 0 instructions: 120000008 cycles: 23167232 heartbeat IPC: 4.889 cumulative IPC: 4.981 (Simulation time: 00 hr 08 min 08 sec)
Heartbeat CPU 0 instructions: 130000006 cycles: 24845640 heartbeat IPC: 5.958 cumulative IPC: 5.064 (Simulation time: 00 hr 08 min 43 sec)
Simulation finished CPU 0 instructions: 100000002 cycles: 19747232 cumulative IPC: 5.064 (Simulation time: 00 hr 08 min 43 sec)
Simulation complete CPU 0 instructions: 100000002 cycles: 19747232 cumulative IPC: 5.064 (Simulation time: 00 hr 08 min 43 sec)

ChampSim completed all CPUs

=== Simulation ===
CPU 0 runs ../traces/secret_traces/crypto/crypto58.champsimtrace.xz
Region of Interest Statistics

CPU 0 cumulative IPC: 5.064 instructions: 100000002 cycles: 19747232
CPU 0 Branch Prediction Accuracy: 98.92% MPKI: 0.8046 Average ROB Occupancy at Mispredict: 29.9
Branch type MPKI
BRANCH_DIRECT_JUMP: 0.0446
BRANCH_INDIRECT: 0.404
BRANCH_CONDITIONAL: 0.138
BRANCH_DIRECT_CALL: 0.13
BRANCH_INDIRECT_CALL: 0.0163
BRANCH_RETURN: 0.0711

LLC TOTAL        ACCESS:     345808 HIT:     260239 MISS:      85569
LLC LOAD         ACCESS:      38560 HIT:      18754 MISS:      19806
LLC RFO          ACCESS:     106733 HIT:      93825 MISS:      12908
LLC PREFETCH     ACCESS:      81411 HIT:      42315 MISS:      39096
LLC WRITE        ACCESS:     117064 HIT:     104881 MISS:      12183
LLC TRANSLATION  ACCESS:       2040 HIT:        464 MISS:       1576
LLC PREFETCH REQUESTED:          0 ISSUED:          0 USEFUL:          0 USELESS:          0
LLC AVERAGE MISS LATENCY: 133.1 cycles
cpu0_DTLB TOTAL        ACCESS:   10535889 HIT:   10501966 MISS:      33923
cpu0_DTLB LOAD         ACCESS:   10535889 HIT:   10501966 MISS:      33923
cpu0_DTLB RFO          ACCESS:          0 HIT:          0 MISS:          0
cpu0_DTLB PREFETCH     ACCESS:          0 HIT:          0 MISS:          0
cpu0_DTLB WRITE        ACCESS:          0 HIT:          0 MISS:          0
cpu0_DTLB TRANSLATION  ACCESS:          0 HIT:          0 MISS:          0
cpu0_DTLB PREFETCH REQUESTED:          0 ISSUED:          0 USEFUL:          0 USELESS:          0
cpu0_DTLB AVERAGE MISS LATENCY: 10.74 cycles
cpu0_ITLB TOTAL        ACCESS:     574297 HIT:     562163 MISS:      12134
cpu0_ITLB LOAD         ACCESS:     574297 HIT:     562163 MISS:      12134
cpu0_ITLB RFO          ACCESS:          0 HIT:          0 MISS:          0
cpu0_ITLB PREFETCH     ACCESS:          0 HIT:          0 MISS:          0
cpu0_ITLB WRITE        ACCESS:          0 HIT:          0 MISS:          0
cpu0_ITLB TRANSLATION  ACCESS:          0 HIT:          0 MISS:          0
cpu0_ITLB PREFETCH REQUESTED:          0 ISSUED:          0 USEFUL:          0 USELESS:          0
cpu0_ITLB AVERAGE MISS LATENCY: 19.08 cycles
cpu0_L1D TOTAL        ACCESS:   14543482 HIT:   14057300 MISS:     486182
cpu0_L1D LOAD         ACCESS:    9823110 HIT:    9694801 MISS:     128309
cpu0_L1D RFO          ACCESS:          0 HIT:          0 MISS:          0
cpu0_L1D PREFETCH     ACCESS:     416674 HIT:     342598 MISS:      74076
cpu0_L1D WRITE        ACCESS:    4299474 HIT:    4018370 MISS:     281104
cpu0_L1D TRANSLATION  ACCESS:       4224 HIT:       1531 MISS:       2693
cpu0_L1D PREFETCH REQUESTED:    2314770 ISSUED:     416674 USEFUL:       8579 USELESS:       1147
cpu0_L1D AVERAGE MISS LATENCY: 22.23 cycles
cpu0_L1I TOTAL        ACCESS:     836702 HIT:     696937 MISS:     139765
cpu0_L1I LOAD         ACCESS:     274859 HIT:     242286 MISS:      32573
cpu0_L1I RFO          ACCESS:          0 HIT:          0 MISS:          0
cpu0_L1I PREFETCH     ACCESS:     561843 HIT:     454651 MISS:     107192
cpu0_L1I WRITE        ACCESS:          0 HIT:          0 MISS:          0
cpu0_L1I TRANSLATION  ACCESS:          0 HIT:          0 MISS:          0
cpu0_L1I PREFETCH REQUESTED:     873204 ISSUED:     561843 USEFUL:      59082 USELESS:      43032
cpu0_L1I AVERAGE MISS LATENCY: 29.87 cycles
cpu0_L2C TOTAL        ACCESS:     772751 HIT:     476017 MISS:     296734
cpu0_L2C LOAD         ACCESS:     105310 HIT:      58401 MISS:      46909
cpu0_L2C RFO          ACCESS:     116370 HIT:       9615 MISS:     106755
cpu0_L2C PREFETCH     ACCESS:     415533 HIT:     274503 MISS:     141030
cpu0_L2C WRITE        ACCESS:     132947 HIT:     132947 MISS:          0
cpu0_L2C TRANSLATION  ACCESS:       2591 HIT:        551 MISS:       2040
cpu0_L2C PREFETCH REQUESTED:     267056 ISSUED:     253787 USEFUL:      19478 USELESS:      20316
cpu0_L2C AVERAGE MISS LATENCY: 52.24 cycles
cpu0_STLB TOTAL        ACCESS:      20269 HIT:      16413 MISS:       3856
cpu0_STLB LOAD         ACCESS:      20269 HIT:      16413 MISS:       3856
cpu0_STLB RFO          ACCESS:          0 HIT:          0 MISS:          0
cpu0_STLB PREFETCH     ACCESS:          0 HIT:          0 MISS:          0
cpu0_STLB WRITE        ACCESS:          0 HIT:          0 MISS:          0
cpu0_STLB TRANSLATION  ACCESS:          0 HIT:          0 MISS:          0
cpu0_STLB PREFETCH REQUESTED:          0 ISSUED:          0 USEFUL:          0 USELESS:          0
cpu0_STLB AVERAGE MISS LATENCY: 132.5 cycles

DRAM Statistics

Channel 0 RQ ROW_BUFFER_HIT:      19062
  ROW_BUFFER_MISS:      18274
 AVG DBUS CONGESTED CYCLE: 3.829
WQ ROW_BUFFER_HIT: Channel 0 
  ROW_BUFFER_MISS:       1228
  FULL:       5440

Channel 1 RQ ROW_BUFFER_HIT:      18457
  ROW_BUFFER_MISS:      17583
 AVG DBUS CONGESTED CYCLE: 3.818
WQ ROW_BUFFER_HIT: Channel 1 
  ROW_BUFFER_MISS:       1190
  FULL:       5167
BERTI TO_L1: 1042954 TO_L2: 1745706 TO_L2_BC_MSHR: 884294
BERTI AVG_LAT: 56.9883 NUM_TRACK_LATENCY: 125128 NUM_CANT_TRACK_LATENCY: 0
BERTI CROSS_PAGE 564897 NO_CROSS_PAGE: 2223763
BERTI FOUND_BERTI: 716012 NO_FOUND_BERTI: 12296841
BERTI AVERAGE_ISSUED: 4.30318
CPU 0 L1I Entangling prefetcher final stats
IP accesses: 6f71 1bdc40 1341 / 276055
IP misses: 25bf 96fc0 137 / 33769
IP hits: 0 0 0 / 0
IP late: 59b0 166c00 40 / 16100
IP wrong: f801 3e0040 97 / 42854
miss rate: 0.122328
coverage: 0
coverage_late: 0.476769
accuracy: 0
accuracy_late: 0.273095
discarded: 0
evicts entangled j table: 0
evicts entangled k table: 5361
max bb size: 53
formats: 1340 0 4719 2361 957 1980 0 
hist_lookups: 4070 4420 3475 3028 2637 2186 1647 1283 966 744 522 353 245 131 78 0 3 4954 
hist_lookups_evict: 0.00975864 %
hist_lookups_shortlat: 16.1148 %
bb_found_hist: 0 68816 28709 14426 6461 3115 1436 1316 391 72 18 95 90 72 21 0 3 0 0 0 0 6 0 0 0 0 0 0 0 0 0 3 0 0 3 0 0 0 0 0 0 0 0 0 0 0 0 0 0 0 0 0 0 3 0 0 0 0 0 0 0 0 0 0 
bb_found_summary: 236598 125056 1.89194
entangled_found_hist: 0 35232 28961 47772 9345 1809 399 0 
entangled_found_summary: 285289 123518 2.3097
bb_ent_found_hist: 0 97508 41672 28475 12136 7928 3710 2010 1204 32 88 193 90 74 10 0 150 0 0 0 0 16 0 0 0 0 0 0 0 0 0 4 0 0 3 0 0 0 0 0 0 0 0 0 0 0 0 0 0 0 0 0 0 3 0 0 0 0 0 0 0 0 0 0 
bb_ent_found_summary: 409017 195306 2.09424
