WARNING: physical memory size is smaller than virtual memory size.

*** ChampSim Multicore Out-of-Order Simulator ***
Warmup Instructions: 30000000
Simulation Instructions: 100000000
Number of CPUs: 1
Page size: 4096

BTB:
Basic BTB sets: 1024 ways: 8
Indirect:
history lengths: 0 0 10 16 27 44 60 96 109 219 449 487 714 1313 2146 3881 
ITTAGE tables: 64768 bytes;Region table: 240 bytes;IUM: 384 bytes;Total Storage= 65392 bytes;
RAS:
RAS size: 64
[LLC] Demand IPV: 1 2 2 1 4 Prefetch IPV: 1 2 1 1 4
Berti Prefetcher
CPU 0 Entangling prefetcher
Off-chip DRAM Size: 8 GiB Channels: 2 Width: 64-bit Data Race: 6400 MT/s
Heartbeat CPU 0 instructions: 10000003 cycles: 1715488 heartbeat IPC: 5.829 cumulative IPC: 5.829 (Simulation time: 00 hr 00 min 31 sec)
Heartbeat CPU 0 instructions: 20000005 cycles: 3431959 heartbeat IPC: 5.826 cumulative IPC: 5.828 (Simulation time: 00 hr 01 min 01 sec)
Heartbeat CPU 0 instructions: 30000004 cycles: 5098713 heartbeat IPC: 6 cumulative IPC: 5.884 (Simulation time: 00 hr 01 min 29 sec)
Warmup finished CPU 0 instructions: 30000004 cycles: 5098714 cumulative IPC: 5.884 (Simulation time: 00 hr 01 min 29 sec)
Warmup complete CPU 0 instructions: 30000004 cycles: 5098714 cumulative IPC: 5.884 (Simulation time: 00 hr 01 min 29 sec)
*** Reached end of trace: (0, "../traces/secret_traces/crypto/crypto10.champsimtrace.xz")
Heartbeat CPU 0 instructions: 40000005 cycles: 7469518 heartbeat IPC: 4.218 cumulative IPC: 4.218 (Simulation time: 00 hr 02 min 09 sec)
Heartbeat CPU 0 instructions: 50000005 cycles: 9234989 heartbeat IPC: 5.664 cumulative IPC: 4.835 (Simulation time: 00 hr 02 min 44 sec)
Heartbeat CPU 0 instructions: 60000000 cycles: 11288317 heartbeat IPC: 4.87 cumulative IPC: 4.847 (Simulation time: 00 hr 03 min 22 sec)
*** Reached end of trace: (0, "../traces/secret_traces/crypto/crypto10.champsimtrace.xz")
Heartbeat CPU 0 instructions: 70000005 cycles: 13478034 heartbeat IPC: 4.567 cumulative IPC: 4.774 (Simulation time: 00 hr 04 min 01 sec)
Heartbeat CPU 0 instructions: 80000002 cycles: 15195277 heartbeat IPC: 5.823 cumulative IPC: 4.952 (Simulation time: 00 hr 04 min 35 sec)
Heartbeat CPU 0 instructions: 90000007 cycles: 17269492 heartbeat IPC: 4.821 cumulative IPC: 4.93 (Simulation time: 00 hr 05 min 13 sec)
*** Reached end of trace: (0, "../traces/secret_traces/crypto/crypto10.champsimtrace.xz")
Heartbeat CPU 0 instructions: 100000002 cycles: 19261626 heartbeat IPC: 5.02 cumulative IPC: 4.942 (Simulation time: 00 hr 05 min 52 sec)
Heartbeat CPU 0 instructions: 110000009 cycles: 21125058 heartbeat IPC: 5.366 cumulative IPC: 4.992 (Simulation time: 00 hr 06 min 29 sec)
Heartbeat CPU 0 instructions: 120000001 cycles: 23178161 heartbeat IPC: 4.871 cumulative IPC: 4.978 (Simulation time: 00 hr 07 min 06 sec)
Heartbeat CPU 0 instructions: 130000005 cycles: 24856036 heartbeat IPC: 5.96 cumulative IPC: 5.061 (Simulation time: 00 hr 07 min 40 sec)
Simulation finished CPU 0 instructions: 100000001 cycles: 19757323 cumulative IPC: 5.061 (Simulation time: 00 hr 07 min 40 sec)
Simulation complete CPU 0 instructions: 100000001 cycles: 19757323 cumulative IPC: 5.061 (Simulation time: 00 hr 07 min 40 sec)

ChampSim completed all CPUs

=== Simulation ===
CPU 0 runs ../traces/secret_traces/crypto/crypto10.champsimtrace.xz
Region of Interest Statistics

CPU 0 cumulative IPC: 5.061 instructions: 100000001 cycles: 19757323
CPU 0 Branch Prediction Accuracy: 98.92% MPKI: 0.8045 Average ROB Occupancy at Mispredict: 30.16
Branch type MPKI
BRANCH_DIRECT_JUMP: 0.0445
BRANCH_INDIRECT: 0.405
BRANCH_CONDITIONAL: 0.137
BRANCH_DIRECT_CALL: 0.13
BRANCH_INDIRECT_CALL: 0.0163
BRANCH_RETURN: 0.0714

LLC TOTAL        ACCESS:     345399 HIT:     258783 MISS:      86616
LLC LOAD         ACCESS:      38669 HIT:      20136 MISS:      18533
LLC RFO          ACCESS:     106797 HIT:      92089 MISS:      14708
LLC PREFETCH     ACCESS:      80902 HIT:      42873 MISS:      38029
LLC WRITE        ACCESS:     116990 HIT:     103306 MISS:      13684
LLC TRANSLATION  ACCESS:       2041 HIT:        379 MISS:       1662
LLC PREFETCH REQUESTED:          0 ISSUED:          0 USEFUL:          0 USELESS:          0
LLC AVERAGE MISS LATENCY: 129.7 cycles
cpu0_DTLB TOTAL        ACCESS:   10252244 HIT:   10218439 MISS:      33805
cpu0_DTLB LOAD         ACCESS:   10252244 HIT:   10218439 MISS:      33805
cpu0_DTLB RFO          ACCESS:          0 HIT:          0 MISS:          0
cpu0_DTLB PREFETCH     ACCESS:          0 HIT:          0 MISS:          0
cpu0_DTLB WRITE        ACCESS:          0 HIT:          0 MISS:          0
cpu0_DTLB TRANSLATION  ACCESS:          0 HIT:          0 MISS:          0
cpu0_DTLB PREFETCH REQUESTED:          0 ISSUED:          0 USEFUL:          0 USELESS:          0
cpu0_DTLB AVERAGE MISS LATENCY: 9.697 cycles
cpu0_ITLB TOTAL        ACCESS:     571874 HIT:     559816 MISS:      12058
cpu0_ITLB LOAD         ACCESS:     571874 HIT:     559816 MISS:      12058
cpu0_ITLB RFO          ACCESS:          0 HIT:          0 MISS:          0
cpu0_ITLB PREFETCH     ACCESS:          0 HIT:          0 MISS:          0
cpu0_ITLB WRITE        ACCESS:          0 HIT:          0 MISS:          0
cpu0_ITLB TRANSLATION  ACCESS:          0 HIT:          0 MISS:          0
cpu0_ITLB PREFETCH REQUESTED:          0 ISSUED:          0 USEFUL:          0 USELESS:          0
cpu0_ITLB AVERAGE MISS LATENCY: 20.09 cycles
cpu0_L1D TOTAL        ACCESS:   14405573 HIT:   13921446 MISS:     484127
cpu0_L1D LOAD         ACCESS:    9609028 HIT:    9480158 MISS:     128870
cpu0_L1D RFO          ACCESS:          0 HIT:          0 MISS:          0
cpu0_L1D PREFETCH     ACCESS:     415958 HIT:     344204 MISS:      71754
cpu0_L1D WRITE        ACCESS:    4376462 HIT:    4095609 MISS:     280853
cpu0_L1D TRANSLATION  ACCESS:       4125 HIT:       1475 MISS:       2650
cpu0_L1D PREFETCH REQUESTED:    2341949 ISSUED:     415958 USEFUL:       8637 USELESS:        936
cpu0_L1D AVERAGE MISS LATENCY: 22.47 cycles
cpu0_L1I TOTAL        ACCESS:     832307 HIT:     694850 MISS:     137457
cpu0_L1I LOAD         ACCESS:     274527 HIT:     242691 MISS:      31836
cpu0_L1I RFO          ACCESS:          0 HIT:          0 MISS:          0
cpu0_L1I PREFETCH     ACCESS:     557780 HIT:     452159 MISS:     105621
cpu0_L1I WRITE        ACCESS:          0 HIT:          0 MISS:          0
cpu0_L1I TRANSLATION  ACCESS:          0 HIT:          0 MISS:          0
cpu0_L1I PREFETCH REQUESTED:     859794 ISSUED:     557780 USEFUL:      59156 USELESS:      41796
cpu0_L1I AVERAGE MISS LATENCY: 29.88 cycles
cpu0_L2C TOTAL        ACCESS:     765049 HIT:     470716 MISS:     294333
cpu0_L2C LOAD         ACCESS:     104764 HIT:      58062 MISS:      46702
cpu0_L2C RFO          ACCESS:     116240 HIT:       9415 MISS:     106825
cpu0_L2C PREFETCH     ACCESS:     408590 HIT:     269825 MISS:     138765
cpu0_L2C WRITE        ACCESS:     132873 HIT:     132873 MISS:          0
cpu0_L2C TRANSLATION  ACCESS:       2582 HIT:        541 MISS:       2041
cpu0_L2C PREFETCH REQUESTED:     263081 ISSUED:     250273 USEFUL:      19350 USELESS:      20120
cpu0_L2C AVERAGE MISS LATENCY: 52.46 cycles
cpu0_STLB TOTAL        ACCESS:      20241 HIT:      16472 MISS:       3769
cpu0_STLB LOAD         ACCESS:      20241 HIT:      16472 MISS:       3769
cpu0_STLB RFO          ACCESS:          0 HIT:          0 MISS:          0
cpu0_STLB PREFETCH     ACCESS:          0 HIT:          0 MISS:          0
cpu0_STLB WRITE        ACCESS:          0 HIT:          0 MISS:          0
cpu0_STLB TRANSLATION  ACCESS:          0 HIT:          0 MISS:          0
cpu0_STLB PREFETCH REQUESTED:          0 ISSUED:          0 USEFUL:          0 USELESS:          0
cpu0_STLB AVERAGE MISS LATENCY: 127.8 cycles

DRAM Statistics

Channel 0 RQ ROW_BUFFER_HIT:      18772
  ROW_BUFFER_MISS:      18280
 AVG DBUS CONGESTED CYCLE: 3.846
WQ ROW_BUFFER_HIT: Channel 0 
  ROW_BUFFER_MISS:       1514
  FULL:       6194

Channel 1 RQ ROW_BUFFER_HIT:      18126
  ROW_BUFFER_MISS:      17743
 AVG DBUS CONGESTED CYCLE: 3.829
WQ ROW_BUFFER_HIT: Channel 1 
  ROW_BUFFER_MISS:       1316
  FULL:       5735
BERTI TO_L1: 1049583 TO_L2: 1767753 TO_L2_BC_MSHR: 915727
BERTI AVG_LAT: 54.4773 NUM_TRACK_LATENCY: 124884 NUM_CANT_TRACK_LATENCY: 0
BERTI CROSS_PAGE 564544 NO_CROSS_PAGE: 2252792
BERTI FOUND_BERTI: 1342710 NO_FOUND_BERTI: 11421305
BERTI AVERAGE_ISSUED: 4.22232
CPU 0 L1I Entangling prefetcher final stats
IP accesses: 6f71 1bdc40 1355 / 275525
IP misses: 5bf1 16fc40 126 / 32834
IP hits: 0 0 0 / 0
IP late: 3ffa ffe80 38 / 15826
IP wrong: f801 3e0040 97 / 41611
miss rate: 0.119169
coverage: 0
coverage_late: 0.482001
accuracy: 0
accuracy_late: 0.275537
discarded: 0
evicts entangled j table: 0
evicts entangled k table: 5109
max bb size: 53
formats: 1281 0 4642 2289 921 1974 0 
hist_lookups: 3959 4318 3299 2874 2501 2129 1617 1260 929 762 566 383 258 114 55 0 15 5036 
hist_lookups_evict: 0.0498754 %
hist_lookups_shortlat: 16.7449 %
bb_found_hist: 0 68897 28524 13993 6660 3202 1490 1286 409 84 16 95 90 72 21 0 3 0 0 0 1 6 0 0 0 0 0 0 0 0 0 3 3 0 3 0 0 0 0 0 0 0 0 0 0 0 0 0 0 0 0 0 0 2 0 0 0 0 0 0 0 0 0 0 
bb_found_summary: 236650 124860 1.89533
entangled_found_hist: 0 36978 28381 47439 8661 1854 587 0 
entangled_found_summary: 283493 123900 2.28808
bb_ent_found_hist: 0 94106 42133 27197 11988 7048 3672 1958 1379 65 32 112 64 40 11 0 3 0 0 0 1 15 0 0 0 0 0 0 0 0 0 3 3 0 5 0 0 0 0 0 0 0 0 0 0 0 0 0 0 0 0 0 0 2 0 0 0 0 0 0 0 0 0 0 
bb_ent_found_summary: 394352 189837 2.07732
