WARNING: physical memory size is smaller than virtual memory size.

*** ChampSim Multicore Out-of-Order Simulator ***
Warmup Instructions: 30000000
Simulation Instructions: 100000000
Number of CPUs: 1
Page size: 4096

BTB:
Basic BTB sets: 1024 ways: 8
Indirect:
history lengths: 0 0 10 16 27 44 60 96 109 219 449 487 714 1313 2146 3881 
ITTAGE tables: 64768 bytes;Region table: 240 bytes;IUM: 384 bytes;Total Storage= 65392 bytes;
RAS:
RAS size: 64
[LLC] Demand IPV: 1 2 2 1 4 Prefetch IPV: 1 2 1 1 4
Berti Prefetcher
CPU 0 Entangling prefetcher
Off-chip DRAM Size: 8 GiB Channels: 2 Width: 64-bit Data Race: 6400 MT/s
Heartbeat CPU 0 instructions: 10000001 cycles: 1714850 heartbeat IPC: 5.831 cumulative IPC: 5.831 (Simulation time: 00 hr 00 min 39 sec)
*** Reached end of trace: (0, "../traces/secret_traces/crypto/crypto102.champsimtrace.xz")
Heartbeat CPU 0 instructions: 20000003 cycles: 3432394 heartbeat IPC: 5.822 cumulative IPC: 5.827 (Simulation time: 00 hr 01 min 15 sec)
Heartbeat CPU 0 instructions: 30000008 cycles: 5100817 heartbeat IPC: 5.994 cumulative IPC: 5.881 (Simulation time: 00 hr 01 min 48 sec)
Warmup finished CPU 0 instructions: 30000008 cycles: 5100818 cumulative IPC: 5.881 (Simulation time: 00 hr 01 min 48 sec)
Warmup complete CPU 0 instructions: 30000008 cycles: 5100818 cumulative IPC: 5.881 (Simulation time: 00 hr 01 min 48 sec)
*** Reached end of trace: (0, "../traces/secret_traces/crypto/crypto102.champsimtrace.xz")
Heartbeat CPU 0 instructions: 40000006 cycles: 7188775 heartbeat IPC: 4.789 cumulative IPC: 4.789 (Simulation time: 00 hr 02 min 36 sec)
*** Reached end of trace: (0, "../traces/secret_traces/crypto/crypto102.champsimtrace.xz")
Heartbeat CPU 0 instructions: 50000000 cycles: 9096204 heartbeat IPC: 5.243 cumulative IPC: 5.006 (Simulation time: 00 hr 03 min 22 sec)
Heartbeat CPU 0 instructions: 60000002 cycles: 10970270 heartbeat IPC: 5.336 cumulative IPC: 5.111 (Simulation time: 00 hr 04 min 08 sec)
*** Reached end of trace: (0, "../traces/secret_traces/crypto/crypto102.champsimtrace.xz")
Heartbeat CPU 0 instructions: 70000001 cycles: 12987198 heartbeat IPC: 4.958 cumulative IPC: 5.072 (Simulation time: 00 hr 04 min 56 sec)
Heartbeat CPU 0 instructions: 80000000 cycles: 14737354 heartbeat IPC: 5.714 cumulative IPC: 5.189 (Simulation time: 00 hr 05 min 40 sec)
*** Reached end of trace: (0, "../traces/secret_traces/crypto/crypto102.champsimtrace.xz")
Heartbeat CPU 0 instructions: 90000003 cycles: 16768342 heartbeat IPC: 4.924 cumulative IPC: 5.142 (Simulation time: 00 hr 06 min 25 sec)
*** Reached end of trace: (0, "../traces/secret_traces/crypto/crypto102.champsimtrace.xz")
Heartbeat CPU 0 instructions: 100000008 cycles: 18708532 heartbeat IPC: 5.154 cumulative IPC: 5.144 (Simulation time: 00 hr 07 min 05 sec)
Heartbeat CPU 0 instructions: 110000000 cycles: 20524849 heartbeat IPC: 5.506 cumulative IPC: 5.187 (Simulation time: 00 hr 07 min 43 sec)
*** Reached end of trace: (0, "../traces/secret_traces/crypto/crypto102.champsimtrace.xz")
Heartbeat CPU 0 instructions: 120000003 cycles: 22549448 heartbeat IPC: 4.939 cumulative IPC: 5.158 (Simulation time: 00 hr 08 min 23 sec)
Heartbeat CPU 0 instructions: 130000004 cycles: 24290250 heartbeat IPC: 5.744 cumulative IPC: 5.211 (Simulation time: 00 hr 08 min 59 sec)
Simulation finished CPU 0 instructions: 100000002 cycles: 19189436 cumulative IPC: 5.211 (Simulation time: 00 hr 08 min 59 sec)
Simulation complete CPU 0 instructions: 100000002 cycles: 19189436 cumulative IPC: 5.211 (Simulation time: 00 hr 08 min 59 sec)

ChampSim completed all CPUs

=== Simulation ===
CPU 0 runs ../traces/secret_traces/crypto/crypto102.champsimtrace.xz
Region of Interest Statistics

CPU 0 cumulative IPC: 5.211 instructions: 100000002 cycles: 19189436
CPU 0 Branch Prediction Accuracy: 98.87% MPKI: 0.7816 Average ROB Occupancy at Mispredict: 27.21
Branch type MPKI
BRANCH_DIRECT_JUMP: 0.0435
BRANCH_INDIRECT: 0.444
BRANCH_CONDITIONAL: 0.0839
BRANCH_DIRECT_CALL: 0.125
BRANCH_INDIRECT_CALL: 0.0167
BRANCH_RETURN: 0.0681

LLC TOTAL        ACCESS:     193826 HIT:     192164 MISS:       1662
LLC LOAD         ACCESS:      24362 HIT:      24339 MISS:         23
LLC RFO          ACCESS:      55276 HIT:      55276 MISS:          0
LLC PREFETCH     ACCESS:      51693 HIT:      50213 MISS:       1480
LLC WRITE        ACCESS:      61615 HIT:      61613 MISS:          2
LLC TRANSLATION  ACCESS:        880 HIT:        723 MISS:        157
LLC PREFETCH REQUESTED:          0 ISSUED:          0 USEFUL:          0 USELESS:          0
LLC AVERAGE MISS LATENCY: 155 cycles
cpu0_DTLB TOTAL        ACCESS:    5785893 HIT:    5763743 MISS:      22150
cpu0_DTLB LOAD         ACCESS:    5785893 HIT:    5763743 MISS:      22150
cpu0_DTLB RFO          ACCESS:          0 HIT:          0 MISS:          0
cpu0_DTLB PREFETCH     ACCESS:          0 HIT:          0 MISS:          0
cpu0_DTLB WRITE        ACCESS:          0 HIT:          0 MISS:          0
cpu0_DTLB TRANSLATION  ACCESS:          0 HIT:          0 MISS:          0
cpu0_DTLB PREFETCH REQUESTED:          0 ISSUED:          0 USEFUL:          0 USELESS:          0
cpu0_DTLB AVERAGE MISS LATENCY: 5.484 cycles
cpu0_ITLB TOTAL        ACCESS:     611620 HIT:     600017 MISS:      11603
cpu0_ITLB LOAD         ACCESS:     611620 HIT:     600017 MISS:      11603
cpu0_ITLB RFO          ACCESS:          0 HIT:          0 MISS:          0
cpu0_ITLB PREFETCH     ACCESS:          0 HIT:          0 MISS:          0
cpu0_ITLB WRITE        ACCESS:          0 HIT:          0 MISS:          0
cpu0_ITLB TRANSLATION  ACCESS:          0 HIT:          0 MISS:          0
cpu0_ITLB PREFETCH REQUESTED:          0 ISSUED:          0 USEFUL:          0 USELESS:          0
cpu0_ITLB AVERAGE MISS LATENCY: 7.564 cycles
cpu0_L1D TOTAL        ACCESS:    9565168 HIT:    9220869 MISS:     344299
cpu0_L1D LOAD         ACCESS:    4075488 HIT:    3981165 MISS:      94323
cpu0_L1D RFO          ACCESS:          0 HIT:          0 MISS:          0
cpu0_L1D PREFETCH     ACCESS:    1015146 HIT:     897654 MISS:     117492
cpu0_L1D WRITE        ACCESS:    4472183 HIT:    4341027 MISS:     131156
cpu0_L1D TRANSLATION  ACCESS:       2351 HIT:       1023 MISS:       1328
cpu0_L1D PREFETCH REQUESTED:    2303579 ISSUED:    1015146 USEFUL:       5877 USELESS:       1470
cpu0_L1D AVERAGE MISS LATENCY: 9.565 cycles
cpu0_L1I TOTAL        ACCESS:     889618 HIT:     770588 MISS:     119030
cpu0_L1I LOAD         ACCESS:     290058 HIT:     266763 MISS:      23295
cpu0_L1I RFO          ACCESS:          0 HIT:          0 MISS:          0
cpu0_L1I PREFETCH     ACCESS:     599560 HIT:     503825 MISS:      95735
cpu0_L1I WRITE        ACCESS:          0 HIT:          0 MISS:          0
cpu0_L1I TRANSLATION  ACCESS:          0 HIT:          0 MISS:          0
cpu0_L1I PREFETCH REQUESTED:     867879 ISSUED:     599593 USEFUL:      59732 USELESS:      32300
cpu0_L1I AVERAGE MISS LATENCY: 15.11 cycles
cpu0_L2C TOTAL        ACCESS:     698683 HIT:     548642 MISS:     150041
cpu0_L2C LOAD         ACCESS:      79157 HIT:      54332 MISS:      24825
cpu0_L2C RFO          ACCESS:      67304 HIT:      12006 MISS:      55298
cpu0_L2C PREFETCH     ACCESS:     467757 HIT:     398719 MISS:      69038
cpu0_L2C WRITE        ACCESS:      83235 HIT:      83235 MISS:          0
cpu0_L2C TRANSLATION  ACCESS:       1230 HIT:        350 MISS:        880
cpu0_L2C PREFETCH REQUESTED:     281266 ISSUED:     265648 USEFUL:       9298 USELESS:      15990
cpu0_L2C AVERAGE MISS LATENCY: 19.55 cycles
cpu0_STLB TOTAL        ACCESS:      19285 HIT:      17120 MISS:       2165
cpu0_STLB LOAD         ACCESS:      19285 HIT:      17120 MISS:       2165
cpu0_STLB RFO          ACCESS:          0 HIT:          0 MISS:          0
cpu0_STLB PREFETCH     ACCESS:          0 HIT:          0 MISS:          0
cpu0_STLB WRITE        ACCESS:          0 HIT:          0 MISS:          0
cpu0_STLB TRANSLATION  ACCESS:          0 HIT:          0 MISS:          0
cpu0_STLB PREFETCH REQUESTED:          0 ISSUED:          0 USEFUL:          0 USELESS:          0
cpu0_STLB AVERAGE MISS LATENCY: 41.22 cycles

DRAM Statistics

Channel 0 RQ ROW_BUFFER_HIT:        114
  ROW_BUFFER_MISS:        723
 AVG DBUS CONGESTED CYCLE: 3.561
WQ ROW_BUFFER_HIT: Channel 0 
  ROW_BUFFER_MISS:          1
  FULL:          1

Channel 1 RQ ROW_BUFFER_HIT:        133
  ROW_BUFFER_MISS:        690
 AVG DBUS CONGESTED CYCLE: 3.624
WQ ROW_BUFFER_HIT: Channel 1 
  ROW_BUFFER_MISS:          0
  FULL:          0
BERTI TO_L1: 1926456 TO_L2: 1199135 TO_L2_BC_MSHR: 165766
BERTI AVG_LAT: 19.4969 NUM_TRACK_LATENCY: 95063 NUM_CANT_TRACK_LATENCY: 0
BERTI CROSS_PAGE 384429 NO_CROSS_PAGE: 2741162
BERTI FOUND_BERTI: 1599537 NO_FOUND_BERTI: 3997473
BERTI AVERAGE_ISSUED: 3.53081
CPU 0 L1I Entangling prefetcher final stats
IP accesses: 6f71 1bdc40 2983 / 290281
IP misses: f7cb 3df2c0 194 / 23518
IP hits: 0 0 0 / 0
IP late: 6e9e 1ba780 124 / 11652
IP wrong: 251e 94780 167 / 32159
miss rate: 0.0810181
coverage: 0
coverage_late: 0.495451
accuracy: 0
accuracy_late: 0.265961
discarded: 0
evicts entangled j table: 0
evicts entangled k table: 4056
max bb size: 53
formats: 1337 0 3001 1556 554 1120 0 
hist_lookups: 2725 3040 2241 1922 1853 1603 1252 1036 853 678 429 298 168 71 27 0 15 4585 
hist_lookups_evict: 0.0658011 %
hist_lookups_shortlat: 20.1132 %
bb_found_hist: 0 71684 28064 15331 6640 2722 1397 1068 313 140 0 40 24 0 24 30 6 0 0 0 0 12 0 0 0 0 0 0 0 0 0 6 0 0 6 0 0 0 0 0 0 0 0 0 0 0 0 0 0 0 0 0 0 6 0 0 0 0 0 0 0 0 0 0 
bb_found_summary: 236167 127513 1.85211
entangled_found_hist: 0 43762 27031 47062 8773 2263 1040 0 
entangled_found_summary: 291657 129931 2.24471
bb_ent_found_hist: 0 99529 40048 29624 10722 6989 1717 1162 967 56 0 45 76 0 6 111 442 0 0 0 0 30 0 0 0 0 0 0 0 0 0 12 0 0 6 0 0 0 0 0 0 0 0 0 0 0 0 0 0 0 0 0 0 11 0 0 0 0 0 0 0 0 0 0 
bb_ent_found_summary: 385023 191553 2.01001
