WARNING: physical memory size is smaller than virtual memory size.

*** ChampSim Multicore Out-of-Order Simulator ***
Warmup Instructions: 30000000
Simulation Instructions: 100000000
Number of CPUs: 1
Page size: 4096

BTB:
Basic BTB sets: 1024 ways: 8
Indirect:
history lengths: 0 0 10 16 27 44 60 96 109 219 449 487 714 1313 2146 3881 
ITTAGE tables: 64768 bytes;Region table: 240 bytes;IUM: 384 bytes;Total Storage= 65392 bytes;
RAS:
RAS size: 64
[LLC] Demand IPV: 1 2 2 1 4 Prefetch IPV: 1 2 1 1 4
Berti Prefetcher
CPU 0 Entangling prefetcher
Off-chip DRAM Size: 8 GiB Channels: 2 Width: 64-bit Data Race: 6400 MT/s
Heartbeat CPU 0 instructions: 10000005 cycles: 1715486 heartbeat IPC: 5.829 cumulative IPC: 5.829 (Simulation time: 00 hr 00 min 31 sec)
Heartbeat CPU 0 instructions: 20000005 cycles: 3431864 heartbeat IPC: 5.826 cumulative IPC: 5.828 (Simulation time: 00 hr 01 min 02 sec)
*** Reached end of trace: (0, "../traces/secret_traces/crypto/crypto105.champsimtrace.xz")
Heartbeat CPU 0 instructions: 30000005 cycles: 5150011 heartbeat IPC: 5.82 cumulative IPC: 5.825 (Simulation time: 00 hr 01 min 34 sec)
Warmup finished CPU 0 instructions: 30000005 cycles: 5150012 cumulative IPC: 5.825 (Simulation time: 00 hr 01 min 34 sec)
Warmup complete CPU 0 instructions: 30000005 cycles: 5150012 cumulative IPC: 5.825 (Simulation time: 00 hr 01 min 34 sec)
Heartbeat CPU 0 instructions: 40000000 cycles: 9179044 heartbeat IPC: 2.482 cumulative IPC: 2.482 (Simulation time: 00 hr 02 min 35 sec)
Heartbeat CPU 0 instructions: 50000002 cycles: 13465628 heartbeat IPC: 2.333 cumulative IPC: 2.405 (Simulation time: 00 hr 03 min 39 sec)
*** Reached end of trace: (0, "../traces/secret_traces/crypto/crypto105.champsimtrace.xz")
Heartbeat CPU 0 instructions: 60000006 cycles: 17230237 heartbeat IPC: 2.656 cumulative IPC: 2.483 (Simulation time: 00 hr 04 min 40 sec)
Heartbeat CPU 0 instructions: 70000000 cycles: 21442687 heartbeat IPC: 2.374 cumulative IPC: 2.455 (Simulation time: 00 hr 05 min 51 sec)
*** Reached end of trace: (0, "../traces/secret_traces/crypto/crypto105.champsimtrace.xz")
Heartbeat CPU 0 instructions: 80000000 cycles: 25104263 heartbeat IPC: 2.731 cumulative IPC: 2.506 (Simulation time: 00 hr 06 min 48 sec)
Heartbeat CPU 0 instructions: 90000000 cycles: 29140652 heartbeat IPC: 2.477 cumulative IPC: 2.501 (Simulation time: 00 hr 07 min 49 sec)
Heartbeat CPU 0 instructions: 100000000 cycles: 33329540 heartbeat IPC: 2.387 cumulative IPC: 2.484 (Simulation time: 00 hr 08 min 52 sec)
*** Reached end of trace: (0, "../traces/secret_traces/crypto/crypto105.champsimtrace.xz")
Heartbeat CPU 0 instructions: 110000000 cycles: 37023667 heartbeat IPC: 2.707 cumulative IPC: 2.51 (Simulation time: 00 hr 09 min 49 sec)
Heartbeat CPU 0 instructions: 120000007 cycles: 41169517 heartbeat IPC: 2.412 cumulative IPC: 2.499 (Simulation time: 00 hr 10 min 55 sec)
*** Reached end of trace: (0, "../traces/secret_traces/crypto/crypto105.champsimtrace.xz")
Heartbeat CPU 0 instructions: 130000002 cycles: 45044158 heartbeat IPC: 2.581 cumulative IPC: 2.507 (Simulation time: 00 hr 11 min 54 sec)
Simulation finished CPU 0 instructions: 100000009 cycles: 39894148 cumulative IPC: 2.507 (Simulation time: 00 hr 11 min 54 sec)
Simulation complete CPU 0 instructions: 100000009 cycles: 39894148 cumulative IPC: 2.507 (Simulation time: 00 hr 11 min 54 sec)

ChampSim completed all CPUs

=== Simulation ===
CPU 0 runs ../traces/secret_traces/crypto/crypto105.champsimtrace.xz
Region of Interest Statistics

CPU 0 cumulative IPC: 2.507 instructions: 100000009 cycles: 39894148
CPU 0 Branch Prediction Accuracy: 98.94% MPKI: 0.9242 Average ROB Occupancy at Mispredict: 31.17
Branch type MPKI
BRANCH_DIRECT_JUMP: 0.0555
BRANCH_INDIRECT: 0.488
BRANCH_CONDITIONAL: 0.115
BRANCH_DIRECT_CALL: 0.159
BRANCH_INDIRECT_CALL: 0.0198
BRANCH_RETURN: 0.0869

LLC TOTAL        ACCESS:     449474 HIT:     347919 MISS:     101555
LLC LOAD         ACCESS:      49598 HIT:      25261 MISS:      24337
LLC RFO          ACCESS:     139614 HIT:     125789 MISS:      13825
LLC PREFETCH     ACCESS:     103490 HIT:      53668 MISS:      49822
LLC WRITE        ACCESS:     154212 HIT:     142706 MISS:      11506
LLC TRANSLATION  ACCESS:       2560 HIT:        495 MISS:       2065
LLC PREFETCH REQUESTED:          0 ISSUED:          0 USEFUL:          0 USELESS:          0
LLC AVERAGE MISS LATENCY: 135.8 cycles
cpu0_DTLB TOTAL        ACCESS:   14811259 HIT:   14767628 MISS:      43631
cpu0_DTLB LOAD         ACCESS:   14811259 HIT:   14767628 MISS:      43631
cpu0_DTLB RFO          ACCESS:          0 HIT:          0 MISS:          0
cpu0_DTLB PREFETCH     ACCESS:          0 HIT:          0 MISS:          0
cpu0_DTLB WRITE        ACCESS:          0 HIT:          0 MISS:          0
cpu0_DTLB TRANSLATION  ACCESS:          0 HIT:          0 MISS:          0
cpu0_DTLB PREFETCH REQUESTED:          0 ISSUED:          0 USEFUL:          0 USELESS:          0
cpu0_DTLB AVERAGE MISS LATENCY: 9.99 cycles
cpu0_ITLB TOTAL        ACCESS:     731954 HIT:     717286 MISS:      14668
cpu0_ITLB LOAD         ACCESS:     731954 HIT:     717286 MISS:      14668
cpu0_ITLB RFO          ACCESS:          0 HIT:          0 MISS:          0
cpu0_ITLB PREFETCH     ACCESS:          0 HIT:          0 MISS:          0
cpu0_ITLB WRITE        ACCESS:          0 HIT:          0 MISS:          0
cpu0_ITLB TRANSLATION  ACCESS:          0 HIT:          0 MISS:          0
cpu0_ITLB PREFETCH REQUESTED:          0 ISSUED:          0 USEFUL:          0 USELESS:          0
cpu0_ITLB AVERAGE MISS LATENCY: 20.13 cycles
cpu0_L1D TOTAL        ACCESS:   18609792 HIT:   17981399 MISS:     628393
cpu0_L1D LOAD         ACCESS:   13384337 HIT:   13218768 MISS:     165569
cpu0_L1D RFO          ACCESS:          0 HIT:          0 MISS:          0
cpu0_L1D PREFETCH     ACCESS:     469601 HIT:     377438 MISS:      92163
cpu0_L1D WRITE        ACCESS:    4750530 HIT:    4383281 MISS:     367249
cpu0_L1D TRANSLATION  ACCESS:       5324 HIT:       1912 MISS:       3412
cpu0_L1D PREFETCH REQUESTED:    2736372 ISSUED:     469608 USEFUL:      10481 USELESS:       1220
cpu0_L1D AVERAGE MISS LATENCY: 21.05 cycles
cpu0_L1I TOTAL        ACCESS:    1066518 HIT:     892693 MISS:     173825
cpu0_L1I LOAD         ACCESS:     348198 HIT:     309285 MISS:      38913
cpu0_L1I RFO          ACCESS:          0 HIT:          0 MISS:          0
cpu0_L1I PREFETCH     ACCESS:     718320 HIT:     583408 MISS:     134912
cpu0_L1I WRITE        ACCESS:          0 HIT:          0 MISS:          0
cpu0_L1I TRANSLATION  ACCESS:          0 HIT:          0 MISS:          0
cpu0_L1I PREFETCH REQUESTED:    1150200 ISSUED:     718320 USEFUL:      75834 USELESS:      53339
cpu0_L1I AVERAGE MISS LATENCY: 30.54 cycles
cpu0_L2C TOTAL        ACCESS:     978321 HIT:     594774 MISS:     383547
cpu0_L2C LOAD         ACCESS:     133077 HIT:      72385 MISS:      60692
cpu0_L2C RFO          ACCESS:     150330 HIT:      10671 MISS:     139659
cpu0_L2C PREFETCH     ACCESS:     520320 HIT:     339684 MISS:     180636
cpu0_L2C WRITE        ACCESS:     171314 HIT:     171314 MISS:          0
cpu0_L2C TRANSLATION  ACCESS:       3280 HIT:        720 MISS:       2560
cpu0_L2C PREFETCH REQUESTED:     334844 ISSUED:     318571 USEFUL:      24258 USELESS:      25192
cpu0_L2C AVERAGE MISS LATENCY: 49.97 cycles
cpu0_STLB TOTAL        ACCESS:      25641 HIT:      20783 MISS:       4858
cpu0_STLB LOAD         ACCESS:      25641 HIT:      20783 MISS:       4858
cpu0_STLB RFO          ACCESS:          0 HIT:          0 MISS:          0
cpu0_STLB PREFETCH     ACCESS:          0 HIT:          0 MISS:          0
cpu0_STLB WRITE        ACCESS:          0 HIT:          0 MISS:          0
cpu0_STLB TRANSLATION  ACCESS:          0 HIT:          0 MISS:          0
cpu0_STLB PREFETCH REQUESTED:          0 ISSUED:          0 USEFUL:          0 USELESS:          0
cpu0_STLB AVERAGE MISS LATENCY: 127.5 cycles

DRAM Statistics

Channel 0 RQ ROW_BUFFER_HIT:      23294
  ROW_BUFFER_MISS:      22533
 AVG DBUS CONGESTED CYCLE: 3.828
WQ ROW_BUFFER_HIT: Channel 0 
  ROW_BUFFER_MISS:       1417
  FULL:       5656

Channel 1 RQ ROW_BUFFER_HIT:      22450
  ROW_BUFFER_MISS:      21751
 AVG DBUS CONGESTED CYCLE: 3.817
WQ ROW_BUFFER_HIT: Channel 1 
  ROW_BUFFER_MISS:       1288
  FULL:       5057
BERTI TO_L1: 1346938 TO_L2: 2196040 TO_L2_BC_MSHR: 1081841
BERTI AVG_LAT: 54.1073 NUM_TRACK_LATENCY: 161528 NUM_CANT_TRACK_LATENCY: 0
BERTI CROSS_PAGE 678488 NO_CROSS_PAGE: 2864490
BERTI FOUND_BERTI: 2564981 NO_FOUND_BERTI: 15163757
BERTI AVERAGE_ISSUED: 4.28482
CPU 0 L1I Entangling prefetcher final stats
IP accesses: 6f71 1bdc40 1830 / 349259
IP misses: 59ae 166b80 132 / 39974
IP hits: 0 0 0 / 0
IP late: 59b0 166c00 62 / 19481
IP wrong: f801 3e0040 119 / 53142
miss rate: 0.114454
coverage: 0
coverage_late: 0.487342
accuracy: 0
accuracy_late: 0.268249
discarded: 0
evicts entangled j table: 0
evicts entangled k table: 6734
max bb size: 53
formats: 1687 0 5519 2584 1017 1995 0 
hist_lookups: 4310 4854 3886 3609 3322 2749 2068 1503 1227 1065 752 461 308 205 87 0 18 7049 
hist_lookups_evict: 0.0480346 %
hist_lookups_shortlat: 18.8109 %
bb_found_hist: 0 89968 37510 18028 8595 3950 1810 1787 558 101 6 105 39 104 27 0 3 0 0 0 0 7 0 0 0 0 0 0 0 0 0 3 3 0 3 0 0 0 0 0 0 0 0 0 0 0 0 0 0 0 0 0 0 3 0 0 0 0 0 0 0 0 0 0 
bb_found_summary: 306002 162610 1.88182
entangled_found_hist: 0 47107 35339 65708 11892 2355 1045 0 
entangled_found_summary: 380522 163446 2.32813
bb_ent_found_hist: 0 128890 58055 38942 16395 9950 3892 2902 1404 119 0 185 117 41 11 0 3 0 0 0 0 21 0 0 0 0 0 0 0 0 0 6 3 0 6 0 0 0 0 0 0 0 0 0 0 0 0 0 0 0 0 0 0 3 0 0 0 0 0 0 0 0 0 0 
bb_ent_found_summary: 538385 260945 2.06322
