WARNING: physical memory size is smaller than virtual memory size.

*** ChampSim Multicore Out-of-Order Simulator ***
Warmup Instructions: 30000000
Simulation Instructions: 100000000
Number of CPUs: 1
Page size: 4096

BTB:
Basic BTB sets: 1024 ways: 8
Indirect:
history lengths: 0 0 10 16 27 44 60 96 109 219 449 487 714 1313 2146 3881 
ITTAGE tables: 64768 bytes;Region table: 240 bytes;IUM: 384 bytes;Total Storage= 65392 bytes;
RAS:
RAS size: 64
[LLC] Demand IPV: 1 2 2 1 4 Prefetch IPV: 1 2 1 1 4
Berti Prefetcher
CPU 0 Entangling prefetcher
Off-chip DRAM Size: 8 GiB Channels: 2 Width: 64-bit Data Race: 6400 MT/s
Heartbeat CPU 0 instructions: 10000000 cycles: 2109120 heartbeat IPC: 4.741 cumulative IPC: 4.741 (Simulation time: 00 hr 00 min 50 sec)
Heartbeat CPU 0 instructions: 20000008 cycles: 4211546 heartbeat IPC: 4.756 cumulative IPC: 4.749 (Simulation time: 00 hr 01 min 38 sec)
Heartbeat CPU 0 instructions: 30000001 cycles: 6307041 heartbeat IPC: 4.772 cumulative IPC: 4.757 (Simulation time: 00 hr 02 min 29 sec)
Warmup finished CPU 0 instructions: 30000001 cycles: 6307042 cumulative IPC: 4.757 (Simulation time: 00 hr 02 min 29 sec)
Warmup complete CPU 0 instructions: 30000001 cycles: 6307042 cumulative IPC: 4.757 (Simulation time: 00 hr 02 min 29 sec)
*** Reached end of trace: (0, "../traces/public_traces/srv/srv_36.champsimtrace.xz")
Heartbeat CPU 0 instructions: 40000000 cycles: 11828515 heartbeat IPC: 1.811 cumulative IPC: 1.811 (Simulation time: 00 hr 04 min 06 sec)
Heartbeat CPU 0 instructions: 50000003 cycles: 17999335 heartbeat IPC: 1.621 cumulative IPC: 1.711 (Simulation time: 00 hr 05 min 45 sec)
Heartbeat CPU 0 instructions: 60000000 cycles: 23936928 heartbeat IPC: 1.684 cumulative IPC: 1.702 (Simulation time: 00 hr 07 min 23 sec)
*** Reached end of trace: (0, "../traces/public_traces/srv/srv_36.champsimtrace.xz")
Heartbeat CPU 0 instructions: 70000004 cycles: 29553472 heartbeat IPC: 1.78 cumulative IPC: 1.721 (Simulation time: 00 hr 09 min 14 sec)
Heartbeat CPU 0 instructions: 80000000 cycles: 35620119 heartbeat IPC: 1.648 cumulative IPC: 1.706 (Simulation time: 00 hr 11 min 10 sec)
Heartbeat CPU 0 instructions: 90000008 cycles: 41572100 heartbeat IPC: 1.68 cumulative IPC: 1.701 (Simulation time: 00 hr 13 min 02 sec)
*** Reached end of trace: (0, "../traces/public_traces/srv/srv_36.champsimtrace.xz")
Heartbeat CPU 0 instructions: 100000009 cycles: 47243241 heartbeat IPC: 1.763 cumulative IPC: 1.71 (Simulation time: 00 hr 14 min 42 sec)
Heartbeat CPU 0 instructions: 110000006 cycles: 53134102 heartbeat IPC: 1.698 cumulative IPC: 1.708 (Simulation time: 00 hr 16 min 21 sec)
Heartbeat CPU 0 instructions: 120000007 cycles: 59209901 heartbeat IPC: 1.646 cumulative IPC: 1.701 (Simulation time: 00 hr 18 min 20 sec)
*** Reached end of trace: (0, "../traces/public_traces/srv/srv_36.champsimtrace.xz")
Heartbeat CPU 0 instructions: 130000007 cycles: 65067582 heartbeat IPC: 1.707 cumulative IPC: 1.702 (Simulation time: 00 hr 20 min 13 sec)
Simulation finished CPU 0 instructions: 100000006 cycles: 58760541 cumulative IPC: 1.702 (Simulation time: 00 hr 20 min 13 sec)
Simulation complete CPU 0 instructions: 100000006 cycles: 58760541 cumulative IPC: 1.702 (Simulation time: 00 hr 20 min 13 sec)

ChampSim completed all CPUs

=== Simulation ===
CPU 0 runs ../traces/public_traces/srv/srv_36.champsimtrace.xz
Region of Interest Statistics

CPU 0 cumulative IPC: 1.702 instructions: 100000006 cycles: 58760541
CPU 0 Branch Prediction Accuracy: 99.88% MPKI: 0.1817 Average ROB Occupancy at Mispredict: 211.6
Branch type MPKI
BRANCH_DIRECT_JUMP: 0.00021
BRANCH_INDIRECT: 0.135
BRANCH_CONDITIONAL: 0.0459
BRANCH_DIRECT_CALL: 3e-05
BRANCH_INDIRECT_CALL: 2e-05
BRANCH_RETURN: 0.00019

LLC TOTAL        ACCESS:    4732345 HIT:    1769266 MISS:    2963079
LLC LOAD         ACCESS:     469021 HIT:     310201 MISS:     158820
LLC RFO          ACCESS:    1601960 HIT:     497221 MISS:    1104739
LLC PREFETCH     ACCESS:     818691 HIT:     238639 MISS:     580052
LLC WRITE        ACCESS:    1830398 HIT:     722915 MISS:    1107483
LLC TRANSLATION  ACCESS:      12275 HIT:        290 MISS:      11985
LLC PREFETCH REQUESTED:          0 ISSUED:          0 USEFUL:          0 USELESS:          0
LLC AVERAGE MISS LATENCY: 180.6 cycles
cpu0_DTLB TOTAL        ACCESS:   18546960 HIT:   17512719 MISS:    1034241
cpu0_DTLB LOAD         ACCESS:   18546960 HIT:   17512719 MISS:    1034241
cpu0_DTLB RFO          ACCESS:          0 HIT:          0 MISS:          0
cpu0_DTLB PREFETCH     ACCESS:          0 HIT:          0 MISS:          0
cpu0_DTLB WRITE        ACCESS:          0 HIT:          0 MISS:          0
cpu0_DTLB TRANSLATION  ACCESS:          0 HIT:          0 MISS:          0
cpu0_DTLB PREFETCH REQUESTED:          0 ISSUED:          0 USEFUL:          0 USELESS:          0
cpu0_DTLB AVERAGE MISS LATENCY: 7.932 cycles
cpu0_ITLB TOTAL        ACCESS:   14804749 HIT:   14786508 MISS:      18241
cpu0_ITLB LOAD         ACCESS:   14804749 HIT:   14786508 MISS:      18241
cpu0_ITLB RFO          ACCESS:          0 HIT:          0 MISS:          0
cpu0_ITLB PREFETCH     ACCESS:          0 HIT:          0 MISS:          0
cpu0_ITLB WRITE        ACCESS:          0 HIT:          0 MISS:          0
cpu0_ITLB TRANSLATION  ACCESS:          0 HIT:          0 MISS:          0
cpu0_ITLB PREFETCH REQUESTED:          0 ISSUED:          0 USEFUL:          0 USELESS:          0
cpu0_ITLB AVERAGE MISS LATENCY: 22.63 cycles
cpu0_L1D TOTAL        ACCESS:   33797386 HIT:   20289875 MISS:   13507511
cpu0_L1D LOAD         ACCESS:   13288066 HIT:   10310460 MISS:    2977606
cpu0_L1D RFO          ACCESS:          0 HIT:          0 MISS:          0
cpu0_L1D PREFETCH     ACCESS:    3434641 HIT:     964565 MISS:    2470076
cpu0_L1D WRITE        ACCESS:   17041077 HIT:    9001608 MISS:    8039469
cpu0_L1D TRANSLATION  ACCESS:      33602 HIT:      13242 MISS:      20360
cpu0_L1D PREFETCH REQUESTED:    8997911 ISSUED:    3434611 USEFUL:     333229 USELESS:      50256
cpu0_L1D AVERAGE MISS LATENCY: 36.61 cycles
cpu0_L1I TOTAL        ACCESS:   21503415 HIT:   15243663 MISS:    6259752
cpu0_L1I LOAD         ACCESS:   11181928 HIT:    6523074 MISS:    4658854
cpu0_L1I RFO          ACCESS:          0 HIT:          0 MISS:          0
cpu0_L1I PREFETCH     ACCESS:   10321487 HIT:    8720589 MISS:    1600898
cpu0_L1I WRITE        ACCESS:          0 HIT:          0 MISS:          0
cpu0_L1I TRANSLATION  ACCESS:          0 HIT:          0 MISS:          0
cpu0_L1I PREFETCH REQUESTED:   33089749 ISSUED:   10321492 USEFUL:    1307318 USELESS:     134423
cpu0_L1I AVERAGE MISS LATENCY: 10.51 cycles
cpu0_L2C TOTAL        ACCESS:   17384676 HIT:   12342729 MISS:    5041947
cpu0_L2C LOAD         ACCESS:    4433783 HIT:    3886527 MISS:     547256
cpu0_L2C RFO          ACCESS:    1841401 HIT:     239113 MISS:    1602288
cpu0_L2C PREFETCH     ACCESS:    8886112 HIT:    6006076 MISS:    2880036
cpu0_L2C WRITE        ACCESS:    2203155 HIT:    2203063 MISS:         92
cpu0_L2C TRANSLATION  ACCESS:      20225 HIT:       7950 MISS:      12275
cpu0_L2C PREFETCH REQUESTED:    7768479 ISSUED:    5554512 USEFUL:     106279 USELESS:     181226
cpu0_L2C AVERAGE MISS LATENCY: 115.6 cycles
cpu0_STLB TOTAL        ACCESS:     501913 HIT:     471647 MISS:      30266
cpu0_STLB LOAD         ACCESS:     501913 HIT:     471647 MISS:      30266
cpu0_STLB RFO          ACCESS:          0 HIT:          0 MISS:          0
cpu0_STLB PREFETCH     ACCESS:          0 HIT:          0 MISS:          0
cpu0_STLB WRITE        ACCESS:          0 HIT:          0 MISS:          0
cpu0_STLB TRANSLATION  ACCESS:          0 HIT:          0 MISS:          0
cpu0_STLB PREFETCH REQUESTED:          0 ISSUED:          0 USEFUL:          0 USELESS:          0
cpu0_STLB AVERAGE MISS LATENCY: 219.1 cycles

DRAM Statistics

Channel 0 RQ ROW_BUFFER_HIT:     430335
  ROW_BUFFER_MISS:     507936
 AVG DBUS CONGESTED CYCLE: 3.944
WQ ROW_BUFFER_HIT: Channel 0 
  ROW_BUFFER_MISS:      79059
  FULL:     496627

Channel 1 RQ ROW_BUFFER_HIT:     430965
  ROW_BUFFER_MISS:     486269
 AVG DBUS CONGESTED CYCLE: 3.933
WQ ROW_BUFFER_HIT: Channel 1 
  ROW_BUFFER_MISS:      86334
  FULL:     473005
BERTI TO_L1: 3462326 TO_L2: 8526508 TO_L2_BC_MSHR: 3919751
BERTI AVG_LAT: 78.3515 NUM_TRACK_LATENCY: 2137923 NUM_CANT_TRACK_LATENCY: 4
BERTI CROSS_PAGE 1566284 NO_CROSS_PAGE: 10422550
BERTI FOUND_BERTI: 3537543 NO_FOUND_BERTI: 15841284
BERTI AVERAGE_ISSUED: 4.79566
CPU 0 L1I Entangling prefetcher final stats
IP accesses: 5cd0 173400 137154 / 11312910
IP misses: 13dd 4f740 20461 / 4789836
IP hits: 0 0 0 / 0
IP late: 9d3d 274f40 8616 / 2026514
IP wrong: 585d 161740 4387 / 129695
miss rate: 0.423396
coverage: 0
coverage_late: 0.423087
accuracy: 0
accuracy_late: 0.939851
discarded: 0
evicts entangled j table: 0
evicts entangled k table: 351066
max bb size: 13
formats: 62812 0 247644 86551 34296 50942 0 
hist_lookups: 46519 125062 220192 291726 281045 248609 173435 137330 128033 123269 97745 65784 41402 23321 6551 0 429 790338 
hist_lookups_evict: 0.0153172 %
hist_lookups_shortlat: 28.2184 %
bb_found_hist: 0 2428080 1144889 473704 243536 114616 62960 29332 9504 459 0 469 0 4465 0 0 0 0 0 0 0 0 0 0 0 0 0 0 0 0 0 0 0 0 0 0 0 0 0 0 0 0 0 0 0 0 0 0 0 0 0 0 0 0 0 0 0 0 0 0 0 0 0 0 
bb_found_summary: 8412645 4512014 1.8645
entangled_found_hist: 0 1249049 759340 2256396 621972 65826 31052 0 
entangled_found_summary: 12540247 4983635 2.51629
bb_ent_found_hist: 0 3812423 2496653 1052070 552034 221538 162984 77608 32966 2745 0 2573 0 23909 0 0 0 0 0 0 0 0 0 0 0 0 0 0 0 0 0 0 0 0 0 0 0 0 0 0 0 0 0 0 0 0 0 0 0 0 0 0 0 0 0 0 0 0 0 0 0 0 0 0 
bb_ent_found_summary: 17426478 8437503 2.06536
