WARNING: physical memory size is smaller than virtual memory size.

*** ChampSim Multicore Out-of-Order Simulator ***
Warmup Instructions: 30000000
Simulation Instructions: 100000000
Number of CPUs: 1
Page size: 4096

BTB:
Basic BTB sets: 1024 ways: 8
Indirect:
history lengths: 0 0 10 16 27 44 60 96 109 219 449 487 714 1313 2146 3881 
ITTAGE tables: 64768 bytes;Region table: 240 bytes;IUM: 384 bytes;Total Storage= 65392 bytes;
RAS:
RAS size: 64
[LLC] Demand IPV: 1 2 2 1 4 Prefetch IPV: 1 2 1 1 4
Berti Prefetcher
CPU 0 Entangling prefetcher
Off-chip DRAM Size: 8 GiB Channels: 2 Width: 64-bit Data Race: 6400 MT/s
Heartbeat CPU 0 instructions: 10000010 cycles: 1694701 heartbeat IPC: 5.901 cumulative IPC: 5.901 (Simulation time: 00 hr 00 min 40 sec)
Heartbeat CPU 0 instructions: 20000006 cycles: 3389578 heartbeat IPC: 5.9 cumulative IPC: 5.9 (Simulation time: 00 hr 01 min 21 sec)
Heartbeat CPU 0 instructions: 30000004 cycles: 5084983 heartbeat IPC: 5.898 cumulative IPC: 5.9 (Simulation time: 00 hr 02 min 02 sec)
Warmup finished CPU 0 instructions: 30000004 cycles: 5084984 cumulative IPC: 5.9 (Simulation time: 00 hr 02 min 02 sec)
Warmup complete CPU 0 instructions: 30000004 cycles: 5084984 cumulative IPC: 5.9 (Simulation time: 00 hr 02 min 02 sec)
*** Reached end of trace: (0, "../traces/public_traces/srv/srv_10.champsimtrace.xz")
Heartbeat CPU 0 instructions: 40000001 cycles: 9029062 heartbeat IPC: 2.535 cumulative IPC: 2.535 (Simulation time: 00 hr 03 min 02 sec)
Heartbeat CPU 0 instructions: 50000003 cycles: 13012371 heartbeat IPC: 2.51 cumulative IPC: 2.523 (Simulation time: 00 hr 04 min 03 sec)
Heartbeat CPU 0 instructions: 60000001 cycles: 17048032 heartbeat IPC: 2.478 cumulative IPC: 2.508 (Simulation time: 00 hr 05 min 03 sec)
*** Reached end of trace: (0, "../traces/public_traces/srv/srv_10.champsimtrace.xz")
Heartbeat CPU 0 instructions: 70000000 cycles: 20881113 heartbeat IPC: 2.609 cumulative IPC: 2.532 (Simulation time: 00 hr 06 min 03 sec)
Heartbeat CPU 0 instructions: 80000001 cycles: 24842677 heartbeat IPC: 2.524 cumulative IPC: 2.531 (Simulation time: 00 hr 07 min 03 sec)
Heartbeat CPU 0 instructions: 90000010 cycles: 28818518 heartbeat IPC: 2.515 cumulative IPC: 2.528 (Simulation time: 00 hr 08 min 04 sec)
*** Reached end of trace: (0, "../traces/public_traces/srv/srv_10.champsimtrace.xz")
Heartbeat CPU 0 instructions: 100000006 cycles: 32631356 heartbeat IPC: 2.623 cumulative IPC: 2.541 (Simulation time: 00 hr 09 min 04 sec)
Heartbeat CPU 0 instructions: 110000009 cycles: 36604132 heartbeat IPC: 2.517 cumulative IPC: 2.538 (Simulation time: 00 hr 10 min 04 sec)
Heartbeat CPU 0 instructions: 120000009 cycles: 40588404 heartbeat IPC: 2.51 cumulative IPC: 2.535 (Simulation time: 00 hr 11 min 05 sec)
*** Reached end of trace: (0, "../traces/public_traces/srv/srv_10.champsimtrace.xz")
Heartbeat CPU 0 instructions: 130000001 cycles: 44304896 heartbeat IPC: 2.691 cumulative IPC: 2.55 (Simulation time: 00 hr 12 min 04 sec)
Simulation finished CPU 0 instructions: 100000006 cycles: 39219914 cumulative IPC: 2.55 (Simulation time: 00 hr 12 min 04 sec)
Simulation complete CPU 0 instructions: 100000006 cycles: 39219914 cumulative IPC: 2.55 (Simulation time: 00 hr 12 min 04 sec)

ChampSim completed all CPUs

=== Simulation ===
CPU 0 runs ../traces/public_traces/srv/srv_10.champsimtrace.xz
Region of Interest Statistics

CPU 0 cumulative IPC: 2.55 instructions: 100000006 cycles: 39219914
CPU 0 Branch Prediction Accuracy: 94.75% MPKI: 9.447 Average ROB Occupancy at Mispredict: 39.24
Branch type MPKI
BRANCH_DIRECT_JUMP: 0.753
BRANCH_INDIRECT: 4.83
BRANCH_CONDITIONAL: 1.29
BRANCH_DIRECT_CALL: 1.44
BRANCH_INDIRECT_CALL: 0.111
BRANCH_RETURN: 1.02

LLC TOTAL        ACCESS:    1123603 HIT:     988304 MISS:     135299
LLC LOAD         ACCESS:     181804 HIT:     159876 MISS:      21928
LLC RFO          ACCESS:      51513 HIT:      44164 MISS:       7349
LLC PREFETCH     ACCESS:     621525 HIT:     556149 MISS:      65376
LLC WRITE        ACCESS:     178978 HIT:     165679 MISS:      13299
LLC TRANSLATION  ACCESS:      89783 HIT:      62436 MISS:      27347
LLC PREFETCH REQUESTED:          0 ISSUED:          0 USEFUL:          0 USELESS:          0
LLC AVERAGE MISS LATENCY: 135.5 cycles
cpu0_DTLB TOTAL        ACCESS:   17028164 HIT:   16007439 MISS:    1020725
cpu0_DTLB LOAD         ACCESS:   17028164 HIT:   16007439 MISS:    1020725
cpu0_DTLB RFO          ACCESS:          0 HIT:          0 MISS:          0
cpu0_DTLB PREFETCH     ACCESS:          0 HIT:          0 MISS:          0
cpu0_DTLB WRITE        ACCESS:          0 HIT:          0 MISS:          0
cpu0_DTLB TRANSLATION  ACCESS:          0 HIT:          0 MISS:          0
cpu0_DTLB PREFETCH REQUESTED:          0 ISSUED:          0 USEFUL:          0 USELESS:          0
cpu0_DTLB AVERAGE MISS LATENCY: 9.936 cycles
cpu0_ITLB TOTAL        ACCESS:   17005373 HIT:   16443305 MISS:     562068
cpu0_ITLB LOAD         ACCESS:   17005373 HIT:   16443305 MISS:     562068
cpu0_ITLB RFO          ACCESS:          0 HIT:          0 MISS:          0
cpu0_ITLB PREFETCH     ACCESS:          0 HIT:          0 MISS:          0
cpu0_ITLB WRITE        ACCESS:          0 HIT:          0 MISS:          0
cpu0_ITLB TRANSLATION  ACCESS:          0 HIT:          0 MISS:          0
cpu0_ITLB PREFETCH REQUESTED:          0 ISSUED:          0 USEFUL:          0 USELESS:          0
cpu0_ITLB AVERAGE MISS LATENCY: 8.459 cycles
cpu0_L1D TOTAL        ACCESS:   25508002 HIT:   23096533 MISS:    2411469
cpu0_L1D LOAD         ACCESS:   15225121 HIT:   13527341 MISS:    1697780
cpu0_L1D RFO          ACCESS:          0 HIT:          0 MISS:          0
cpu0_L1D PREFETCH     ACCESS:      43548 HIT:      13591 MISS:      29957
cpu0_L1D WRITE        ACCESS:   10075388 HIT:    9543035 MISS:     532353
cpu0_L1D TRANSLATION  ACCESS:     163945 HIT:      12566 MISS:     151379
cpu0_L1D PREFETCH REQUESTED:     104820 ISSUED:      43548 USEFUL:       2933 USELESS:       2447
cpu0_L1D AVERAGE MISS LATENCY: 12.12 cycles
cpu0_L1I TOTAL        ACCESS:   25482549 HIT:   21605380 MISS:    3877169
cpu0_L1I LOAD         ACCESS:    8368861 HIT:    7337420 MISS:    1031441
cpu0_L1I RFO          ACCESS:          0 HIT:          0 MISS:          0
cpu0_L1I PREFETCH     ACCESS:   17113688 HIT:   14267960 MISS:    2845728
cpu0_L1I WRITE        ACCESS:          0 HIT:          0 MISS:          0
cpu0_L1I TRANSLATION  ACCESS:          0 HIT:          0 MISS:          0
cpu0_L1I PREFETCH REQUESTED:   40835516 ISSUED:   17113695 USEFUL:    1952505 USELESS:     796392
cpu0_L1I AVERAGE MISS LATENCY: 13.28 cycles
cpu0_L2C TOTAL        ACCESS:    9635046 HIT:    8466727 MISS:    1168319
cpu0_L2C LOAD         ACCESS:    1831778 HIT:    1629475 MISS:     202303
cpu0_L2C RFO          ACCESS:     180543 HIT:     128410 MISS:      52133
cpu0_L2C PREFETCH     ACCESS:    6952804 HIT:    6128745 MISS:     824059
cpu0_L2C WRITE        ACCESS:     519779 HIT:     519741 MISS:         38
cpu0_L2C TRANSLATION  ACCESS:     150142 HIT:      60356 MISS:      89786
cpu0_L2C PREFETCH REQUESTED:    4593735 ISSUED:    4190850 USEFUL:     124797 USELESS:     176517
cpu0_L2C AVERAGE MISS LATENCY: 31.07 cycles
cpu0_STLB TOTAL        ACCESS:     982354 HIT:     856037 MISS:     126317
cpu0_STLB LOAD         ACCESS:     982354 HIT:     856037 MISS:     126317
cpu0_STLB RFO          ACCESS:          0 HIT:          0 MISS:          0
cpu0_STLB PREFETCH     ACCESS:          0 HIT:          0 MISS:          0
cpu0_STLB WRITE        ACCESS:          0 HIT:          0 MISS:          0
cpu0_STLB TRANSLATION  ACCESS:          0 HIT:          0 MISS:          0
cpu0_STLB PREFETCH REQUESTED:          0 ISSUED:          0 USEFUL:          0 USELESS:          0
cpu0_STLB AVERAGE MISS LATENCY: 71.12 cycles

DRAM Statistics

Channel 0 RQ ROW_BUFFER_HIT:       9669
  ROW_BUFFER_MISS:      54893
 AVG DBUS CONGESTED CYCLE: 3.736
WQ ROW_BUFFER_HIT: Channel 0 
  ROW_BUFFER_MISS:       4994
  FULL:      20651

Channel 1 RQ ROW_BUFFER_HIT:       8495
  ROW_BUFFER_MISS:      48940
 AVG DBUS CONGESTED CYCLE: 3.716
WQ ROW_BUFFER_HIT: Channel 1 
  ROW_BUFFER_MISS:       4402
  FULL:      18980
BERTI TO_L1: 83796 TO_L2: 102272 TO_L2_BC_MSHR: 15803
BERTI AVG_LAT: 15.5824 NUM_TRACK_LATENCY: 1463641 NUM_CANT_TRACK_LATENCY: 0
BERTI CROSS_PAGE 17436 NO_CROSS_PAGE: 168632
BERTI FOUND_BERTI: 541004 NO_FOUND_BERTI: 19590251
BERTI AVERAGE_ISSUED: 2.37771
CPU 0 L1I Entangling prefetcher final stats
IP accesses: bfb3 2fecc0 93932 / 8404423
IP misses: 4b3d 12cf40 4323 / 1067003
IP hits: 0 0 0 / 0
IP late: 3a84 ea100 1488 / 464702
IP wrong: abec 2afb00 1898 / 793355
miss rate: 0.126958
coverage: 0
coverage_late: 0.435521
accuracy: 0
accuracy_late: 0.369381
discarded: 0
evicts entangled j table: 0
evicts entangled k table: 131254
max bb size: 111
formats: 18962 26485 86672 19144 9888 17601 0 
hist_lookups: 49976 72792 75853 81003 72653 57026 42764 32919 26124 20631 15549 10256 6297 3361 1086 0 399 136057 
hist_lookups_evict: 0.0566162 %
hist_lookups_shortlat: 19.3059 %
bb_found_hist: 0 1843254 1027624 386847 229751 147912 96690 96005 150910 64905 41789 55632 47688 11488 7385 35624 5210 13118 4081 3011 1896 764 477 1786 989 0 1313 487 771 243 73 489 243 0 260 0 316 243 243 0 243 0 0 0 0 0 0 203 37 0 0 0 0 0 0 0 0 0 0 0 243 243 486 0 
bb_found_summary: 12936764 4280972 3.02193
entangled_found_hist: 0 1247720 1122572 1371412 183245 57217 5511 0 
entangled_found_summary: 8659231 3987677 2.1715
bb_ent_found_hist: 0 2588079 1675880 820001 402176 347437 190423 78442 115886 86593 125496 64032 28927 30668 21109 115540 8314 39386 16118 5817 5771 1722 623 7128 124 0 696 217 4678 243 146 12 0 0 1698 0 362 0 0 0 264 0 0 0 0 0 0 754 134 0 0 0 0 0 0 0 0 0 0 0 257 729 994 0 
bb_ent_found_summary: 21824424 6786876 3.21569
