WARNING: physical memory size is smaller than virtual memory size.

*** ChampSim Multicore Out-of-Order Simulator ***
Warmup Instructions: 30000000
Simulation Instructions: 100000000
Number of CPUs: 1
Page size: 4096

BTB:
Basic BTB sets: 1024 ways: 8
Indirect:
history lengths: 0 0 10 16 27 44 60 96 109 219 449 487 714 1313 2146 3881 
ITTAGE tables: 64768 bytes;Region table: 240 bytes;IUM: 384 bytes;Total Storage= 65392 bytes;
RAS:
RAS size: 64
[LLC] Demand IPV: 1 2 2 1 4 Prefetch IPV: 1 2 1 1 4
Berti Prefetcher
CPU 0 Entangling prefetcher
Off-chip DRAM Size: 8 GiB Channels: 2 Width: 64-bit Data Race: 6400 MT/s
Heartbeat CPU 0 instructions: 10000010 cycles: 1694324 heartbeat IPC: 5.902 cumulative IPC: 5.902 (Simulation time: 00 hr 00 min 40 sec)
Heartbeat CPU 0 instructions: 20000000 cycles: 3389928 heartbeat IPC: 5.898 cumulative IPC: 5.9 (Simulation time: 00 hr 01 min 21 sec)
Heartbeat CPU 0 instructions: 30000000 cycles: 5086898 heartbeat IPC: 5.893 cumulative IPC: 5.898 (Simulation time: 00 hr 02 min 01 sec)
Warmup finished CPU 0 instructions: 30000000 cycles: 5086899 cumulative IPC: 5.898 (Simulation time: 00 hr 02 min 01 sec)
Warmup complete CPU 0 instructions: 30000000 cycles: 5086899 cumulative IPC: 5.898 (Simulation time: 00 hr 02 min 01 sec)
*** Reached end of trace: (0, "../traces/public_traces/srv/srv_64.champsimtrace.xz")
Heartbeat CPU 0 instructions: 40000007 cycles: 8186139 heartbeat IPC: 3.227 cumulative IPC: 3.227 (Simulation time: 00 hr 03 min 10 sec)
Heartbeat CPU 0 instructions: 50000007 cycles: 11337830 heartbeat IPC: 3.173 cumulative IPC: 3.2 (Simulation time: 00 hr 04 min 18 sec)
Heartbeat CPU 0 instructions: 60000011 cycles: 14612585 heartbeat IPC: 3.054 cumulative IPC: 3.149 (Simulation time: 00 hr 05 min 27 sec)
*** Reached end of trace: (0, "../traces/public_traces/srv/srv_64.champsimtrace.xz")
Heartbeat CPU 0 instructions: 70000010 cycles: 17664975 heartbeat IPC: 3.276 cumulative IPC: 3.18 (Simulation time: 00 hr 06 min 33 sec)
Heartbeat CPU 0 instructions: 80000006 cycles: 20706789 heartbeat IPC: 3.288 cumulative IPC: 3.201 (Simulation time: 00 hr 07 min 30 sec)
Heartbeat CPU 0 instructions: 90000003 cycles: 23846452 heartbeat IPC: 3.185 cumulative IPC: 3.198 (Simulation time: 00 hr 08 min 31 sec)
*** Reached end of trace: (0, "../traces/public_traces/srv/srv_64.champsimtrace.xz")
Heartbeat CPU 0 instructions: 100000009 cycles: 26937321 heartbeat IPC: 3.235 cumulative IPC: 3.204 (Simulation time: 00 hr 09 min 34 sec)
Heartbeat CPU 0 instructions: 110000004 cycles: 29958244 heartbeat IPC: 3.31 cumulative IPC: 3.217 (Simulation time: 00 hr 10 min 30 sec)
Heartbeat CPU 0 instructions: 120000004 cycles: 33094196 heartbeat IPC: 3.189 cumulative IPC: 3.213 (Simulation time: 00 hr 11 min 47 sec)
*** Reached end of trace: (0, "../traces/public_traces/srv/srv_64.champsimtrace.xz")
Heartbeat CPU 0 instructions: 130000005 cycles: 36157019 heartbeat IPC: 3.265 cumulative IPC: 3.219 (Simulation time: 00 hr 12 min 56 sec)
Simulation finished CPU 0 instructions: 100000005 cycles: 31070121 cumulative IPC: 3.219 (Simulation time: 00 hr 12 min 56 sec)
Simulation complete CPU 0 instructions: 100000005 cycles: 31070121 cumulative IPC: 3.219 (Simulation time: 00 hr 12 min 56 sec)

ChampSim completed all CPUs

=== Simulation ===
CPU 0 runs ../traces/public_traces/srv/srv_64.champsimtrace.xz
Region of Interest Statistics

CPU 0 cumulative IPC: 3.219 instructions: 100000005 cycles: 31070121
CPU 0 Branch Prediction Accuracy: 97.05% MPKI: 5.285 Average ROB Occupancy at Mispredict: 46.69
Branch type MPKI
BRANCH_DIRECT_JUMP: 0.394
BRANCH_INDIRECT: 2.84
BRANCH_CONDITIONAL: 0.739
BRANCH_DIRECT_CALL: 0.722
BRANCH_INDIRECT_CALL: 0.0494
BRANCH_RETURN: 0.543

LLC TOTAL        ACCESS:     689220 HIT:     569810 MISS:     119410
LLC LOAD         ACCESS:     122857 HIT:      93495 MISS:      29362
LLC RFO          ACCESS:      34616 HIT:      29491 MISS:       5125
LLC PREFETCH     ACCESS:     341711 HIT:     289282 MISS:      52429
LLC WRITE        ACCESS:     147673 HIT:     134705 MISS:      12968
LLC TRANSLATION  ACCESS:      42363 HIT:      22837 MISS:      19526
LLC PREFETCH REQUESTED:          0 ISSUED:          0 USEFUL:          0 USELESS:          0
LLC AVERAGE MISS LATENCY: 141 cycles
cpu0_DTLB TOTAL        ACCESS:   16529589 HIT:   15492178 MISS:    1037411
cpu0_DTLB LOAD         ACCESS:   16529589 HIT:   15492178 MISS:    1037411
cpu0_DTLB RFO          ACCESS:          0 HIT:          0 MISS:          0
cpu0_DTLB PREFETCH     ACCESS:          0 HIT:          0 MISS:          0
cpu0_DTLB WRITE        ACCESS:          0 HIT:          0 MISS:          0
cpu0_DTLB TRANSLATION  ACCESS:          0 HIT:          0 MISS:          0
cpu0_DTLB PREFETCH REQUESTED:          0 ISSUED:          0 USEFUL:          0 USELESS:          0
cpu0_DTLB AVERAGE MISS LATENCY: 8.589 cycles
cpu0_ITLB TOTAL        ACCESS:   15974044 HIT:   15475549 MISS:     498495
cpu0_ITLB LOAD         ACCESS:   15974044 HIT:   15475549 MISS:     498495
cpu0_ITLB RFO          ACCESS:          0 HIT:          0 MISS:          0
cpu0_ITLB PREFETCH     ACCESS:          0 HIT:          0 MISS:          0
cpu0_ITLB WRITE        ACCESS:          0 HIT:          0 MISS:          0
cpu0_ITLB TRANSLATION  ACCESS:          0 HIT:          0 MISS:          0
cpu0_ITLB PREFETCH REQUESTED:          0 ISSUED:          0 USEFUL:          0 USELESS:          0
cpu0_ITLB AVERAGE MISS LATENCY: 5.612 cycles
cpu0_L1D TOTAL        ACCESS:   25113628 HIT:   22899698 MISS:    2213930
cpu0_L1D LOAD         ACCESS:   14998644 HIT:   13325506 MISS:    1673138
cpu0_L1D RFO          ACCESS:          0 HIT:          0 MISS:          0
cpu0_L1D PREFETCH     ACCESS:       1997 HIT:        924 MISS:       1073
cpu0_L1D WRITE        ACCESS:   10026010 HIT:    9565961 MISS:     460049
cpu0_L1D TRANSLATION  ACCESS:      86977 HIT:       7307 MISS:      79670
cpu0_L1D PREFETCH REQUESTED:       1997 ISSUED:       1997 USEFUL:          0 USELESS:          0
cpu0_L1D AVERAGE MISS LATENCY: 11.52 cycles
cpu0_L1I TOTAL        ACCESS:   23811771 HIT:   19898992 MISS:    3912779
cpu0_L1I LOAD         ACCESS:    8423218 HIT:    7053039 MISS:    1370179
cpu0_L1I RFO          ACCESS:          0 HIT:          0 MISS:          0
cpu0_L1I PREFETCH     ACCESS:   15388553 HIT:   12845953 MISS:    2542600
cpu0_L1I WRITE        ACCESS:          0 HIT:          0 MISS:          0
cpu0_L1I TRANSLATION  ACCESS:          0 HIT:          0 MISS:          0
cpu0_L1I PREFETCH REQUESTED:   40698746 ISSUED:   15388520 USEFUL:    1742323 USELESS:     684795
cpu0_L1I AVERAGE MISS LATENCY: 11.85 cycles
cpu0_L2C TOTAL        ACCESS:    9047987 HIT:    8398851 MISS:     649136
cpu0_L2C LOAD         ACCESS:    2016599 HIT:    1875069 MISS:     141530
cpu0_L2C RFO          ACCESS:     162758 HIT:     127572 MISS:      35186
cpu0_L2C PREFETCH     ACCESS:    6272998 HIT:    5842951 MISS:     430047
cpu0_L2C WRITE        ACCESS:     516507 HIT:     516498 MISS:          9
cpu0_L2C TRANSLATION  ACCESS:      79125 HIT:      36761 MISS:      42364
cpu0_L2C PREFETCH REQUESTED:    4444674 ISSUED:    3844927 USEFUL:      94592 USELESS:     104232
cpu0_L2C AVERAGE MISS LATENCY: 41.67 cycles
cpu0_STLB TOTAL        ACCESS:     980191 HIT:     921347 MISS:      58844
cpu0_STLB LOAD         ACCESS:     980191 HIT:     921347 MISS:      58844
cpu0_STLB RFO          ACCESS:          0 HIT:          0 MISS:          0
cpu0_STLB PREFETCH     ACCESS:          0 HIT:          0 MISS:          0
cpu0_STLB WRITE        ACCESS:          0 HIT:          0 MISS:          0
cpu0_STLB TRANSLATION  ACCESS:          0 HIT:          0 MISS:          0
cpu0_STLB PREFETCH REQUESTED:          0 ISSUED:          0 USEFUL:          0 USELESS:          0
cpu0_STLB AVERAGE MISS LATENCY: 96.45 cycles

DRAM Statistics

Channel 0 RQ ROW_BUFFER_HIT:      14323
  ROW_BUFFER_MISS:      40707
 AVG DBUS CONGESTED CYCLE: 3.826
WQ ROW_BUFFER_HIT: Channel 0 
  ROW_BUFFER_MISS:       3119
  FULL:      12660

Channel 1 RQ ROW_BUFFER_HIT:      13260
  ROW_BUFFER_MISS:      38150
 AVG DBUS CONGESTED CYCLE: 3.826
WQ ROW_BUFFER_HIT: Channel 1 
  ROW_BUFFER_MISS:       2797
  FULL:      12099
BERTI TO_L1: 0 TO_L2: 2014 TO_L2_BC_MSHR: 0
BERTI AVG_LAT: 15.4933 NUM_TRACK_LATENCY: 1415689 NUM_CANT_TRACK_LATENCY: 0
BERTI CROSS_PAGE 67 NO_CROSS_PAGE: 1947
BERTI FOUND_BERTI: 512039 NO_FOUND_BERTI: 19378158
BERTI AVERAGE_ISSUED: 1.12014
CPU 0 L1I Entangling prefetcher final stats
IP accesses: bfb3 2fecc0 101342 / 8482438
IP misses: 3a80 ea000 7542 / 1429399
IP hits: 0 0 0 / 0
IP late: 3a83 ea0c0 2337 / 601967
IP wrong: 3d40 f5000 2094 / 680910
miss rate: 0.168513
coverage: 0
coverage_late: 0.421133
accuracy: 0
accuracy_late: 0.469233
discarded: 0
evicts entangled j table: 0
evicts entangled k table: 162373
max bb size: 111
formats: 23269 28257 101515 22065 13711 21769 0 
hist_lookups: 52553 85775 94621 99125 88733 70530 53413 40604 33783 26878 19402 13165 8122 3973 1344 0 645 181221 
hist_lookups_evict: 0.0738082 %
hist_lookups_shortlat: 20.7374 %
bb_found_hist: 0 1815721 993014 335526 244999 164290 95386 90410 142693 66150 64357 56561 47658 10671 16465 34038 8691 6004 1803 2245 1175 1827 492 8 1471 1291 249 1499 248 90 257 514 514 0 242 0 0 258 360 0 257 0 0 0 0 514 0 254 0 0 0 0 0 0 0 0 152 0 0 257 264 0 246 0 
bb_found_summary: 12954142 4209121 3.07764
entangled_found_hist: 0 1271084 1088886 1412594 168138 64862 5638 0 
entangled_found_summary: 8717328 4011202 2.17325
bb_ent_found_hist: 0 2607914 1509124 739970 312633 409417 333401 62888 151904 71226 129588 87897 37075 42854 44794 85899 19884 10030 5328 4895 2150 7385 285 68 7409 113 1053 2976 626 7 514 0 0 0 956 0 0 275 577 0 1675 0 0 0 0 1061 0 1076 0 0 0 0 0 0 0 0 420 0 0 0 257 0 336 0 
bb_ent_found_summary: 22115625 6695940 3.30285
