WARNING: physical memory size is smaller than virtual memory size.

*** ChampSim Multicore Out-of-Order Simulator ***
Warmup Instructions: 30000000
Simulation Instructions: 100000000
Number of CPUs: 1
Page size: 4096

BTB:
Basic BTB sets: 1024 ways: 8
Indirect:
history lengths: 0 0 10 16 27 44 60 96 109 219 449 487 714 1313 2146 3881 
ITTAGE tables: 64768 bytes;Region table: 240 bytes;IUM: 384 bytes;Total Storage= 65392 bytes;
RAS:
RAS size: 64
[LLC] Demand IPV: 1 2 2 1 4 Prefetch IPV: 1 2 1 1 4
Berti Prefetcher
CPU 0 Entangling prefetcher
Off-chip DRAM Size: 8 GiB Channels: 2 Width: 64-bit Data Race: 6400 MT/s
Heartbeat CPU 0 instructions: 10000010 cycles: 1698181 heartbeat IPC: 5.889 cumulative IPC: 5.889 (Simulation time: 00 hr 00 min 48 sec)
Heartbeat CPU 0 instructions: 20000008 cycles: 3397114 heartbeat IPC: 5.886 cumulative IPC: 5.887 (Simulation time: 00 hr 01 min 36 sec)
Heartbeat CPU 0 instructions: 30000000 cycles: 5094332 heartbeat IPC: 5.892 cumulative IPC: 5.889 (Simulation time: 00 hr 02 min 26 sec)
Warmup finished CPU 0 instructions: 30000000 cycles: 5094333 cumulative IPC: 5.889 (Simulation time: 00 hr 02 min 26 sec)
Warmup complete CPU 0 instructions: 30000000 cycles: 5094333 cumulative IPC: 5.889 (Simulation time: 00 hr 02 min 26 sec)
*** Reached end of trace: (0, "../traces/public_traces/srv/srv_3.champsimtrace.xz")
Heartbeat CPU 0 instructions: 40000001 cycles: 8319116 heartbeat IPC: 3.101 cumulative IPC: 3.101 (Simulation time: 00 hr 03 min 35 sec)
Heartbeat CPU 0 instructions: 50000002 cycles: 11624343 heartbeat IPC: 3.026 cumulative IPC: 3.063 (Simulation time: 00 hr 04 min 44 sec)
Heartbeat CPU 0 instructions: 60000002 cycles: 14862666 heartbeat IPC: 3.088 cumulative IPC: 3.071 (Simulation time: 00 hr 05 min 41 sec)
*** Reached end of trace: (0, "../traces/public_traces/srv/srv_3.champsimtrace.xz")
Heartbeat CPU 0 instructions: 70000000 cycles: 18108930 heartbeat IPC: 3.08 cumulative IPC: 3.073 (Simulation time: 00 hr 06 min 38 sec)
Heartbeat CPU 0 instructions: 80000008 cycles: 21356041 heartbeat IPC: 3.08 cumulative IPC: 3.075 (Simulation time: 00 hr 07 min 37 sec)
Heartbeat CPU 0 instructions: 90000003 cycles: 24503706 heartbeat IPC: 3.177 cumulative IPC: 3.091 (Simulation time: 00 hr 08 min 41 sec)
*** Reached end of trace: (0, "../traces/public_traces/srv/srv_3.champsimtrace.xz")
Heartbeat CPU 0 instructions: 100000007 cycles: 27761355 heartbeat IPC: 3.07 cumulative IPC: 3.088 (Simulation time: 00 hr 09 min 43 sec)
Heartbeat CPU 0 instructions: 110000003 cycles: 30937033 heartbeat IPC: 3.149 cumulative IPC: 3.096 (Simulation time: 00 hr 10 min 42 sec)
Heartbeat CPU 0 instructions: 120000000 cycles: 34107126 heartbeat IPC: 3.154 cumulative IPC: 3.102 (Simulation time: 00 hr 11 min 39 sec)
*** Reached end of trace: (0, "../traces/public_traces/srv/srv_3.champsimtrace.xz")
Heartbeat CPU 0 instructions: 130000009 cycles: 37360429 heartbeat IPC: 3.074 cumulative IPC: 3.099 (Simulation time: 00 hr 12 min 36 sec)
Simulation finished CPU 0 instructions: 100000009 cycles: 32266097 cumulative IPC: 3.099 (Simulation time: 00 hr 12 min 36 sec)
Simulation complete CPU 0 instructions: 100000009 cycles: 32266097 cumulative IPC: 3.099 (Simulation time: 00 hr 12 min 36 sec)

ChampSim completed all CPUs

=== Simulation ===
CPU 0 runs ../traces/public_traces/srv/srv_3.champsimtrace.xz
Region of Interest Statistics

CPU 0 cumulative IPC: 3.099 instructions: 100000009 cycles: 32266097
CPU 0 Branch Prediction Accuracy: 96.73% MPKI: 5.858 Average ROB Occupancy at Mispredict: 47.47
Branch type MPKI
BRANCH_DIRECT_JUMP: 0.432
BRANCH_INDIRECT: 3.14
BRANCH_CONDITIONAL: 0.794
BRANCH_DIRECT_CALL: 0.817
BRANCH_INDIRECT_CALL: 0.0503
BRANCH_RETURN: 0.628

LLC TOTAL        ACCESS:     667684 HIT:     540795 MISS:     126889
LLC LOAD         ACCESS:     117037 HIT:      87419 MISS:      29618
LLC RFO          ACCESS:      29960 HIT:      25463 MISS:       4497
LLC PREFETCH     ACCESS:     333823 HIT:     274780 MISS:      59043
LLC WRITE        ACCESS:     138698 HIT:     125497 MISS:      13201
LLC TRANSLATION  ACCESS:      48166 HIT:      27636 MISS:      20530
LLC PREFETCH REQUESTED:          0 ISSUED:          0 USEFUL:          0 USELESS:          0
LLC AVERAGE MISS LATENCY: 138.5 cycles
cpu0_DTLB TOTAL        ACCESS:   16628688 HIT:   15653566 MISS:     975122
cpu0_DTLB LOAD         ACCESS:   16628688 HIT:   15653566 MISS:     975122
cpu0_DTLB RFO          ACCESS:          0 HIT:          0 MISS:          0
cpu0_DTLB PREFETCH     ACCESS:          0 HIT:          0 MISS:          0
cpu0_DTLB WRITE        ACCESS:          0 HIT:          0 MISS:          0
cpu0_DTLB TRANSLATION  ACCESS:          0 HIT:          0 MISS:          0
cpu0_DTLB PREFETCH REQUESTED:          0 ISSUED:          0 USEFUL:          0 USELESS:          0
cpu0_DTLB AVERAGE MISS LATENCY: 8.965 cycles
cpu0_ITLB TOTAL        ACCESS:   16578120 HIT:   16071350 MISS:     506770
cpu0_ITLB LOAD         ACCESS:   16578120 HIT:   16071350 MISS:     506770
cpu0_ITLB RFO          ACCESS:          0 HIT:          0 MISS:          0
cpu0_ITLB PREFETCH     ACCESS:          0 HIT:          0 MISS:          0
cpu0_ITLB WRITE        ACCESS:          0 HIT:          0 MISS:          0
cpu0_ITLB TRANSLATION  ACCESS:          0 HIT:          0 MISS:          0
cpu0_ITLB PREFETCH REQUESTED:          0 ISSUED:          0 USEFUL:          0 USELESS:          0
cpu0_ITLB AVERAGE MISS LATENCY: 5.543 cycles
cpu0_L1D TOTAL        ACCESS:   25183140 HIT:   23007672 MISS:    2175468
cpu0_L1D LOAD         ACCESS:   15005620 HIT:   13370382 MISS:    1635238
cpu0_L1D RFO          ACCESS:          0 HIT:          0 MISS:          0
cpu0_L1D PREFETCH     ACCESS:       1149 HIT:        426 MISS:        723
cpu0_L1D WRITE        ACCESS:   10079253 HIT:    9628924 MISS:     450329
cpu0_L1D TRANSLATION  ACCESS:      97118 HIT:       7940 MISS:      89178
cpu0_L1D PREFETCH REQUESTED:       1149 ISSUED:       1149 USEFUL:         10 USELESS:          0
cpu0_L1D AVERAGE MISS LATENCY: 11.54 cycles
cpu0_L1I TOTAL        ACCESS:   24730249 HIT:   20873584 MISS:    3856665
cpu0_L1I LOAD         ACCESS:    8539234 HIT:    7285495 MISS:    1253739
cpu0_L1I RFO          ACCESS:          0 HIT:          0 MISS:          0
cpu0_L1I PREFETCH     ACCESS:   16191015 HIT:   13588089 MISS:    2602926
cpu0_L1I WRITE        ACCESS:          0 HIT:          0 MISS:          0
cpu0_L1I TRANSLATION  ACCESS:          0 HIT:          0 MISS:          0
cpu0_L1I PREFETCH REQUESTED:   42844510 ISSUED:   16191047 USEFUL:    1783377 USELESS:     707941
cpu0_L1I AVERAGE MISS LATENCY: 12.22 cycles
cpu0_L2C TOTAL        ACCESS:    9075609 HIT:    8435450 MISS:     640159
cpu0_L2C LOAD         ACCESS:    1929276 HIT:    1794287 MISS:     134989
cpu0_L2C RFO          ACCESS:     164431 HIT:     134188 MISS:      30243
cpu0_L2C PREFETCH     ACCESS:    6379972 HIT:    5953269 MISS:     426703
cpu0_L2C WRITE        ACCESS:     513398 HIT:     513343 MISS:         55
cpu0_L2C TRANSLATION  ACCESS:      88532 HIT:      40363 MISS:      48169
cpu0_L2C PREFETCH REQUESTED:    4421299 ISSUED:    3887952 USEFUL:      92116 USELESS:      98418
cpu0_L2C AVERAGE MISS LATENCY: 43.06 cycles
cpu0_STLB TOTAL        ACCESS:     919544 HIT:     852399 MISS:      67145
cpu0_STLB LOAD         ACCESS:     919544 HIT:     852399 MISS:      67145
cpu0_STLB RFO          ACCESS:          0 HIT:          0 MISS:          0
cpu0_STLB PREFETCH     ACCESS:          0 HIT:          0 MISS:          0
cpu0_STLB WRITE        ACCESS:          0 HIT:          0 MISS:          0
cpu0_STLB TRANSLATION  ACCESS:          0 HIT:          0 MISS:          0
cpu0_STLB PREFETCH REQUESTED:          0 ISSUED:          0 USEFUL:          0 USELESS:          0
cpu0_STLB AVERAGE MISS LATENCY: 90.15 cycles

DRAM Statistics

Channel 0 RQ ROW_BUFFER_HIT:      16077
  ROW_BUFFER_MISS:      42738
 AVG DBUS CONGESTED CYCLE: 3.807
WQ ROW_BUFFER_HIT: Channel 0 
  ROW_BUFFER_MISS:       3122
  FULL:      12872

Channel 1 RQ ROW_BUFFER_HIT:      15124
  ROW_BUFFER_MISS:      39749
 AVG DBUS CONGESTED CYCLE: 3.8
WQ ROW_BUFFER_HIT: Channel 1 
  ROW_BUFFER_MISS:       2870
  FULL:      11539
BERTI TO_L1: 10 TO_L2: 1143 TO_L2_BC_MSHR: 0
BERTI AVG_LAT: 15.243 NUM_TRACK_LATENCY: 1395082 NUM_CANT_TRACK_LATENCY: 0
BERTI CROSS_PAGE 38 NO_CROSS_PAGE: 1115
BERTI FOUND_BERTI: 458816 NO_FOUND_BERTI: 19411895
BERTI AVERAGE_ISSUED: 1.42346
CPU 0 L1I Entangling prefetcher final stats
IP accesses: bfb3 2fecc0 103579 / 8584520
IP misses: 3a85 ea140 5851 / 1299025
IP hits: 0 0 0 / 0
IP late: 3a83 ea0c0 2464 / 550775
IP wrong: 3a86 ea180 1977 / 704606
miss rate: 0.151322
coverage: 0
coverage_late: 0.423992
accuracy: 0
accuracy_late: 0.438732
discarded: 0
evicts entangled j table: 0
evicts entangled k table: 152714
max bb size: 111
formats: 22251 26059 95607 20115 13312 20470 0 
hist_lookups: 50538 80937 86647 91719 84678 67905 51633 40793 32354 24133 17398 11949 7719 3952 1424 0 645 167244 
hist_lookups_evict: 0.0784989 %
hist_lookups_shortlat: 20.3543 %
bb_found_hist: 0 1888461 1040039 431736 273487 169716 100796 118152 140734 100078 64425 78813 45946 11766 14259 38493 7719 2498 3742 2080 4442 1227 309 966 485 1620 494 679 169 684 10 752 252 237 267 20 0 0 0 0 252 0 0 153 242 252 0 252 0 0 0 0 0 0 0 0 0 0 0 0 252 0 252 0 
bb_found_summary: 14312077 4547208 3.14745
entangled_found_hist: 0 1270355 1253464 1418231 174908 65088 6074 0 
entangled_found_summary: 9093492 4188120 2.17126
bb_ent_found_hist: 0 2698698 1780020 836901 434921 311879 245695 69491 133369 75973 100225 68089 35800 32696 24779 140575 19190 7369 11660 7183 11810 1294 269 0 0 3937 2693 946 25 499 34 1010 504 4 818 0 0 0 0 0 1709 0 0 8 1185 252 0 1253 0 0 0 0 0 0 0 0 0 0 0 0 0 0 395 0 
bb_ent_found_summary: 22390329 7063158 3.17002
