WARNING: physical memory size is smaller than virtual memory size.

*** ChampSim Multicore Out-of-Order Simulator ***
Warmup Instructions: 30000000
Simulation Instructions: 100000000
Number of CPUs: 1
Page size: 4096

BTB:
Basic BTB sets: 1024 ways: 8
Indirect:
history lengths: 0 0 10 16 27 44 60 96 109 219 449 487 714 1313 2146 3881 
ITTAGE tables: 64768 bytes;Region table: 240 bytes;IUM: 384 bytes;Total Storage= 65392 bytes;
RAS:
RAS size: 64
[LLC] Demand IPV: 1 2 2 1 4 Prefetch IPV: 1 2 1 1 4
Berti Prefetcher
CPU 0 Entangling prefetcher
Off-chip DRAM Size: 8 GiB Channels: 2 Width: 64-bit Data Race: 6400 MT/s
Heartbeat CPU 0 instructions: 10000002 cycles: 1763837 heartbeat IPC: 5.669 cumulative IPC: 5.669 (Simulation time: 00 hr 00 min 43 sec)
Heartbeat CPU 0 instructions: 20000001 cycles: 3528955 heartbeat IPC: 5.665 cumulative IPC: 5.667 (Simulation time: 00 hr 01 min 27 sec)
Heartbeat CPU 0 instructions: 30000004 cycles: 5293558 heartbeat IPC: 5.667 cumulative IPC: 5.667 (Simulation time: 00 hr 02 min 14 sec)
Warmup finished CPU 0 instructions: 30000004 cycles: 5293559 cumulative IPC: 5.667 (Simulation time: 00 hr 02 min 14 sec)
Warmup complete CPU 0 instructions: 30000004 cycles: 5293559 cumulative IPC: 5.667 (Simulation time: 00 hr 02 min 14 sec)
*** Reached end of trace: (0, "../traces/public_traces/srv/srv_46.champsimtrace.xz")
Heartbeat CPU 0 instructions: 40000000 cycles: 8937501 heartbeat IPC: 2.744 cumulative IPC: 2.744 (Simulation time: 00 hr 03 min 18 sec)
Heartbeat CPU 0 instructions: 50000000 cycles: 12502869 heartbeat IPC: 2.805 cumulative IPC: 2.774 (Simulation time: 00 hr 04 min 20 sec)
Heartbeat CPU 0 instructions: 60000010 cycles: 16202103 heartbeat IPC: 2.703 cumulative IPC: 2.75 (Simulation time: 00 hr 05 min 24 sec)
*** Reached end of trace: (0, "../traces/public_traces/srv/srv_46.champsimtrace.xz")
Heartbeat CPU 0 instructions: 70000003 cycles: 19825788 heartbeat IPC: 2.76 cumulative IPC: 2.753 (Simulation time: 00 hr 06 min 26 sec)
Heartbeat CPU 0 instructions: 80000002 cycles: 23284357 heartbeat IPC: 2.891 cumulative IPC: 2.779 (Simulation time: 00 hr 07 min 28 sec)
Heartbeat CPU 0 instructions: 90000003 cycles: 26882241 heartbeat IPC: 2.779 cumulative IPC: 2.779 (Simulation time: 00 hr 08 min 38 sec)
*** Reached end of trace: (0, "../traces/public_traces/srv/srv_46.champsimtrace.xz")
Heartbeat CPU 0 instructions: 100000007 cycles: 30480842 heartbeat IPC: 2.779 cumulative IPC: 2.779 (Simulation time: 00 hr 09 min 46 sec)
Heartbeat CPU 0 instructions: 110000005 cycles: 33986208 heartbeat IPC: 2.853 cumulative IPC: 2.788 (Simulation time: 00 hr 10 min 49 sec)
Heartbeat CPU 0 instructions: 120000006 cycles: 37435100 heartbeat IPC: 2.899 cumulative IPC: 2.8 (Simulation time: 00 hr 11 min 51 sec)
*** Reached end of trace: (0, "../traces/public_traces/srv/srv_46.champsimtrace.xz")
Heartbeat CPU 0 instructions: 130000003 cycles: 41046701 heartbeat IPC: 2.769 cumulative IPC: 2.797 (Simulation time: 00 hr 12 min 57 sec)
Simulation finished CPU 0 instructions: 100000001 cycles: 35753144 cumulative IPC: 2.797 (Simulation time: 00 hr 12 min 57 sec)
Simulation complete CPU 0 instructions: 100000001 cycles: 35753144 cumulative IPC: 2.797 (Simulation time: 00 hr 12 min 57 sec)

ChampSim completed all CPUs

=== Simulation ===
CPU 0 runs ../traces/public_traces/srv/srv_46.champsimtrace.xz
Region of Interest Statistics

CPU 0 cumulative IPC: 2.797 instructions: 100000001 cycles: 35753144
CPU 0 Branch Prediction Accuracy: 96% MPKI: 7.001 Average ROB Occupancy at Mispredict: 33.5
Branch type MPKI
BRANCH_DIRECT_JUMP: 0.562
BRANCH_INDIRECT: 3.21
BRANCH_CONDITIONAL: 0.937
BRANCH_DIRECT_CALL: 1.1
BRANCH_INDIRECT_CALL: 0.394
BRANCH_RETURN: 0.802

LLC TOTAL        ACCESS:     665123 HIT:     491661 MISS:     173462
LLC LOAD         ACCESS:      95707 HIT:      56305 MISS:      39402
LLC RFO          ACCESS:     149676 HIT:     135057 MISS:      14619
LLC PREFETCH     ACCESS:     209497 HIT:     117688 MISS:      91809
LLC WRITE        ACCESS:     190246 HIT:     177778 MISS:      12468
LLC TRANSLATION  ACCESS:      19997 HIT:       4833 MISS:      15164
LLC PREFETCH REQUESTED:          0 ISSUED:          0 USEFUL:          0 USELESS:          0
LLC AVERAGE MISS LATENCY: 120.7 cycles
cpu0_DTLB TOTAL        ACCESS:   19520485 HIT:   19058641 MISS:     461844
cpu0_DTLB LOAD         ACCESS:   19520485 HIT:   19058641 MISS:     461844
cpu0_DTLB RFO          ACCESS:          0 HIT:          0 MISS:          0
cpu0_DTLB PREFETCH     ACCESS:          0 HIT:          0 MISS:          0
cpu0_DTLB WRITE        ACCESS:          0 HIT:          0 MISS:          0
cpu0_DTLB TRANSLATION  ACCESS:          0 HIT:          0 MISS:          0
cpu0_DTLB PREFETCH REQUESTED:          0 ISSUED:          0 USEFUL:          0 USELESS:          0
cpu0_DTLB AVERAGE MISS LATENCY: 11.27 cycles
cpu0_ITLB TOTAL        ACCESS:   18006308 HIT:   17620846 MISS:     385462
cpu0_ITLB LOAD         ACCESS:   18006308 HIT:   17620846 MISS:     385462
cpu0_ITLB RFO          ACCESS:          0 HIT:          0 MISS:          0
cpu0_ITLB PREFETCH     ACCESS:          0 HIT:          0 MISS:          0
cpu0_ITLB WRITE        ACCESS:          0 HIT:          0 MISS:          0
cpu0_ITLB TRANSLATION  ACCESS:          0 HIT:          0 MISS:          0
cpu0_ITLB PREFETCH REQUESTED:          0 ISSUED:          0 USEFUL:          0 USELESS:          0
cpu0_ITLB AVERAGE MISS LATENCY: 4.22 cycles
cpu0_L1D TOTAL        ACCESS:   32175143 HIT:   28819663 MISS:    3355480
cpu0_L1D LOAD         ACCESS:   19471535 HIT:   18175686 MISS:    1295849
cpu0_L1D RFO          ACCESS:          0 HIT:          0 MISS:          0
cpu0_L1D PREFETCH     ACCESS:     469993 HIT:     224101 MISS:     245892
cpu0_L1D WRITE        ACCESS:   12208929 HIT:   10418641 MISS:    1790288
cpu0_L1D TRANSLATION  ACCESS:      24686 HIT:       1235 MISS:      23451
cpu0_L1D PREFETCH REQUESTED:     840147 ISSUED:     469993 USEFUL:      17177 USELESS:       8986
cpu0_L1D AVERAGE MISS LATENCY: 8.159 cycles
cpu0_L1I TOTAL        ACCESS:   26092882 HIT:   22475579 MISS:    3617303
cpu0_L1I LOAD         ACCESS:    9955811 HIT:    9116818 MISS:     838993
cpu0_L1I RFO          ACCESS:          0 HIT:          0 MISS:          0
cpu0_L1I PREFETCH     ACCESS:   16137071 HIT:   13358761 MISS:    2778310
cpu0_L1I WRITE        ACCESS:          0 HIT:          0 MISS:          0
cpu0_L1I TRANSLATION  ACCESS:          0 HIT:          0 MISS:          0
cpu0_L1I PREFETCH REQUESTED:   35990378 ISSUED:   16137041 USEFUL:    1991161 USELESS:     691408
cpu0_L1I AVERAGE MISS LATENCY: 10.9 cycles
cpu0_L2C TOTAL        ACCESS:    9493732 HIT:    8904893 MISS:     588839
cpu0_L2C LOAD         ACCESS:    1418204 HIT:    1311439 MISS:     106765
cpu0_L2C RFO          ACCESS:     428514 HIT:     278321 MISS:     150193
cpu0_L2C PREFETCH     ACCESS:    6991979 HIT:    6680096 MISS:     311883
cpu0_L2C WRITE        ACCESS:     632773 HIT:     632772 MISS:          1
cpu0_L2C TRANSLATION  ACCESS:      22262 HIT:       2265 MISS:      19997
cpu0_L2C PREFETCH REQUESTED:    4328897 ISSUED:    4082224 USEFUL:      55850 USELESS:      67659
cpu0_L2C AVERAGE MISS LATENCY: 50.99 cycles
cpu0_STLB TOTAL        ACCESS:     527275 HIT:     512412 MISS:      14863
cpu0_STLB LOAD         ACCESS:     527275 HIT:     512412 MISS:      14863
cpu0_STLB RFO          ACCESS:          0 HIT:          0 MISS:          0
cpu0_STLB PREFETCH     ACCESS:          0 HIT:          0 MISS:          0
cpu0_STLB WRITE        ACCESS:          0 HIT:          0 MISS:          0
cpu0_STLB TRANSLATION  ACCESS:          0 HIT:          0 MISS:          0
cpu0_STLB PREFETCH REQUESTED:          0 ISSUED:          0 USEFUL:          0 USELESS:          0
cpu0_STLB AVERAGE MISS LATENCY: 243.4 cycles

DRAM Statistics

Channel 0 RQ ROW_BUFFER_HIT:      42606
  ROW_BUFFER_MISS:      39445
 AVG DBUS CONGESTED CYCLE: 3.799
WQ ROW_BUFFER_HIT: Channel 0 
  ROW_BUFFER_MISS:       2795
  FULL:       7810

Channel 1 RQ ROW_BUFFER_HIT:      41643
  ROW_BUFFER_MISS:      37297
 AVG DBUS CONGESTED CYCLE: 3.789
WQ ROW_BUFFER_HIT: Channel 1 
  ROW_BUFFER_MISS:       2650
  FULL:       7378
BERTI TO_L1: 312795 TO_L2: 876501 TO_L2_BC_MSHR: 175854
BERTI AVG_LAT: 19.3214 NUM_TRACK_LATENCY: 1168129 NUM_CANT_TRACK_LATENCY: 0
BERTI CROSS_PAGE 238963 NO_CROSS_PAGE: 950333
BERTI FOUND_BERTI: 1052228 NO_FOUND_BERTI: 24727614
BERTI AVERAGE_ISSUED: 4.49092
CPU 0 L1I Entangling prefetcher final stats
IP accesses: cd42 335080 60690 / 9966357
IP misses: 1462 51880 5727 / 849539
IP hits: 0 0 0 / 0
IP late: 1462 51880 1888 / 393833
IP wrong: 9a9c 26a700 2308 / 687470
miss rate: 0.0852407
coverage: 0
coverage_late: 0.463585
accuracy: 0
accuracy_late: 0.364221
discarded: 0
evicts entangled j table: 0
evicts entangled k table: 143658
max bb size: 40
formats: 55159 0 99761 16825 9406 21546 0 
hist_lookups: 44257 71601 76061 76738 76031 73565 54400 41736 30763 21551 16898 11488 6842 4313 2060 0 18 180492 
hist_lookups_evict: 0.00228191 %
hist_lookups_shortlat: 22.8815 %
bb_found_hist: 0 2875696 1061947 433482 160048 50374 21445 7348 14210 18405 3440 1251 0 2041 0 0 0 0 0 0 0 0 0 0 0 0 0 0 0 0 61 0 0 0 0 0 0 71 0 0 78 0 0 0 0 0 0 0 0 0 0 0 0 0 0 0 0 0 0 0 0 0 0 0 
bb_found_summary: 7733800 4649897 1.66322
entangled_found_hist: 0 1550350 1136138 2829223 317192 57224 8504 0 
entangled_found_summary: 13916207 5898631 2.35923
bb_ent_found_hist: 0 5161932 2204197 899541 377201 187326 88598 16023 34958 70627 17734 8375 0 1113 0 0 0 0 0 0 0 0 0 0 0 0 0 0 0 0 0 0 0 0 0 0 0 416 0 0 42 0 0 0 0 0 0 0 0 0 0 0 0 0 0 0 0 0 0 0 0 0 0 0 
bb_ent_found_summary: 16574445 9068083 1.82778
