WARNING: physical memory size is smaller than virtual memory size.

*** ChampSim Multicore Out-of-Order Simulator ***
Warmup Instructions: 30000000
Simulation Instructions: 100000000
Number of CPUs: 1
Page size: 4096

BTB:
Basic BTB sets: 1024 ways: 8
Indirect:
history lengths: 0 0 10 16 27 44 60 96 109 219 449 487 714 1313 2146 3881 
ITTAGE tables: 64768 bytes;Region table: 240 bytes;IUM: 384 bytes;Total Storage= 65392 bytes;
RAS:
RAS size: 64
[LLC] Demand IPV: 1 2 2 1 4 Prefetch IPV: 1 2 1 1 4
Berti Prefetcher
CPU 0 Entangling prefetcher
Off-chip DRAM Size: 8 GiB Channels: 2 Width: 64-bit Data Race: 6400 MT/s
Heartbeat CPU 0 instructions: 10000005 cycles: 2110682 heartbeat IPC: 4.738 cumulative IPC: 4.738 (Simulation time: 00 hr 00 min 59 sec)
Heartbeat CPU 0 instructions: 20000000 cycles: 4207365 heartbeat IPC: 4.769 cumulative IPC: 4.754 (Simulation time: 00 hr 01 min 54 sec)
Heartbeat CPU 0 instructions: 30000002 cycles: 6309772 heartbeat IPC: 4.756 cumulative IPC: 4.755 (Simulation time: 00 hr 02 min 44 sec)
Warmup finished CPU 0 instructions: 30000002 cycles: 6309773 cumulative IPC: 4.755 (Simulation time: 00 hr 02 min 44 sec)
Warmup complete CPU 0 instructions: 30000002 cycles: 6309773 cumulative IPC: 4.755 (Simulation time: 00 hr 02 min 44 sec)
*** Reached end of trace: (0, "../traces/public_traces/srv/srv_38.champsimtrace.xz")
Heartbeat CPU 0 instructions: 40000005 cycles: 11804145 heartbeat IPC: 1.82 cumulative IPC: 1.82 (Simulation time: 00 hr 04 min 11 sec)
Heartbeat CPU 0 instructions: 50000006 cycles: 17700118 heartbeat IPC: 1.696 cumulative IPC: 1.756 (Simulation time: 00 hr 05 min 48 sec)
Heartbeat CPU 0 instructions: 60000000 cycles: 23657535 heartbeat IPC: 1.679 cumulative IPC: 1.729 (Simulation time: 00 hr 07 min 42 sec)
*** Reached end of trace: (0, "../traces/public_traces/srv/srv_38.champsimtrace.xz")
Heartbeat CPU 0 instructions: 70000002 cycles: 29183649 heartbeat IPC: 1.81 cumulative IPC: 1.749 (Simulation time: 00 hr 09 min 28 sec)
Heartbeat CPU 0 instructions: 80000005 cycles: 35124907 heartbeat IPC: 1.683 cumulative IPC: 1.735 (Simulation time: 00 hr 11 min 18 sec)
Heartbeat CPU 0 instructions: 90000002 cycles: 40938566 heartbeat IPC: 1.72 cumulative IPC: 1.733 (Simulation time: 00 hr 12 min 55 sec)
*** Reached end of trace: (0, "../traces/public_traces/srv/srv_38.champsimtrace.xz")
Heartbeat CPU 0 instructions: 100000002 cycles: 46563872 heartbeat IPC: 1.778 cumulative IPC: 1.739 (Simulation time: 00 hr 14 min 30 sec)
Heartbeat CPU 0 instructions: 110000000 cycles: 52480011 heartbeat IPC: 1.69 cumulative IPC: 1.733 (Simulation time: 00 hr 16 min 02 sec)
Heartbeat CPU 0 instructions: 120000006 cycles: 58359415 heartbeat IPC: 1.701 cumulative IPC: 1.729 (Simulation time: 00 hr 17 min 40 sec)
*** Reached end of trace: (0, "../traces/public_traces/srv/srv_38.champsimtrace.xz")
Heartbeat CPU 0 instructions: 130000011 cycles: 64241694 heartbeat IPC: 1.7 cumulative IPC: 1.726 (Simulation time: 00 hr 19 min 18 sec)
Simulation finished CPU 0 instructions: 100000009 cycles: 57931922 cumulative IPC: 1.726 (Simulation time: 00 hr 19 min 18 sec)
Simulation complete CPU 0 instructions: 100000009 cycles: 57931922 cumulative IPC: 1.726 (Simulation time: 00 hr 19 min 18 sec)

ChampSim completed all CPUs

=== Simulation ===
CPU 0 runs ../traces/public_traces/srv/srv_38.champsimtrace.xz
Region of Interest Statistics

CPU 0 cumulative IPC: 1.726 instructions: 100000009 cycles: 57931922
CPU 0 Branch Prediction Accuracy: 99.88% MPKI: 0.1908 Average ROB Occupancy at Mispredict: 217.5
Branch type MPKI
BRANCH_DIRECT_JUMP: 6e-05
BRANCH_INDIRECT: 0.144
BRANCH_CONDITIONAL: 0.0458
BRANCH_DIRECT_CALL: 3e-05
BRANCH_INDIRECT_CALL: 0
BRANCH_RETURN: 0.00084

LLC TOTAL        ACCESS:    4696478 HIT:    1747702 MISS:    2948776
LLC LOAD         ACCESS:     482826 HIT:     334881 MISS:     147945
LLC RFO          ACCESS:    1574136 HIT:     464664 MISS:    1109472
LLC PREFETCH     ACCESS:     826882 HIT:     262001 MISS:     564881
LLC WRITE        ACCESS:    1804931 HIT:     686075 MISS:    1118856
LLC TRANSLATION  ACCESS:       7703 HIT:         81 MISS:       7622
LLC PREFETCH REQUESTED:          0 ISSUED:          0 USEFUL:          0 USELESS:          0
LLC AVERAGE MISS LATENCY: 183.6 cycles
cpu0_DTLB TOTAL        ACCESS:   18575787 HIT:   17561400 MISS:    1014387
cpu0_DTLB LOAD         ACCESS:   18575787 HIT:   17561400 MISS:    1014387
cpu0_DTLB RFO          ACCESS:          0 HIT:          0 MISS:          0
cpu0_DTLB PREFETCH     ACCESS:          0 HIT:          0 MISS:          0
cpu0_DTLB WRITE        ACCESS:          0 HIT:          0 MISS:          0
cpu0_DTLB TRANSLATION  ACCESS:          0 HIT:          0 MISS:          0
cpu0_DTLB PREFETCH REQUESTED:          0 ISSUED:          0 USEFUL:          0 USELESS:          0
cpu0_DTLB AVERAGE MISS LATENCY: 6.984 cycles
cpu0_ITLB TOTAL        ACCESS:   14820518 HIT:   14800518 MISS:      20000
cpu0_ITLB LOAD         ACCESS:   14820518 HIT:   14800518 MISS:      20000
cpu0_ITLB RFO          ACCESS:          0 HIT:          0 MISS:          0
cpu0_ITLB PREFETCH     ACCESS:          0 HIT:          0 MISS:          0
cpu0_ITLB WRITE        ACCESS:          0 HIT:          0 MISS:          0
cpu0_ITLB TRANSLATION  ACCESS:          0 HIT:          0 MISS:          0
cpu0_ITLB PREFETCH REQUESTED:          0 ISSUED:          0 USEFUL:          0 USELESS:          0
cpu0_ITLB AVERAGE MISS LATENCY: 17.96 cycles
cpu0_L1D TOTAL        ACCESS:   33840574 HIT:   20385158 MISS:   13455416
cpu0_L1D LOAD         ACCESS:   13320787 HIT:   10369825 MISS:    2950962
cpu0_L1D RFO          ACCESS:          0 HIT:          0 MISS:          0
cpu0_L1D PREFETCH     ACCESS:    3485419 HIT:    1024823 MISS:    2460596
cpu0_L1D WRITE        ACCESS:   17006552 HIT:    8977459 MISS:    8029093
cpu0_L1D TRANSLATION  ACCESS:      27816 HIT:      13051 MISS:      14765
cpu0_L1D PREFETCH REQUESTED:    9573559 ISSUED:    3485419 USEFUL:     332739 USELESS:      50175
cpu0_L1D AVERAGE MISS LATENCY: 37.4 cycles
cpu0_L1I TOTAL        ACCESS:   21540824 HIT:   15316981 MISS:    6223843
cpu0_L1I LOAD         ACCESS:   11142556 HIT:    6523768 MISS:    4618788
cpu0_L1I RFO          ACCESS:          0 HIT:          0 MISS:          0
cpu0_L1I PREFETCH     ACCESS:   10398268 HIT:    8793213 MISS:    1605055
cpu0_L1I WRITE        ACCESS:          0 HIT:          0 MISS:          0
cpu0_L1I TRANSLATION  ACCESS:          0 HIT:          0 MISS:          0
cpu0_L1I PREFETCH REQUESTED:   32854155 ISSUED:   10398268 USEFUL:    1306161 USELESS:     137790
cpu0_L1I AVERAGE MISS LATENCY: 9.681 cycles
cpu0_L2C TOTAL        ACCESS:   17351920 HIT:   12313069 MISS:    5038851
cpu0_L2C LOAD         ACCESS:    4415114 HIT:    3850988 MISS:     564126
cpu0_L2C RFO          ACCESS:    1838294 HIT:     263857 MISS:    1574437
cpu0_L2C PREFETCH     ACCESS:    8887652 HIT:    5995073 MISS:    2892579
cpu0_L2C WRITE        ACCESS:    2196130 HIT:    2196124 MISS:          6
cpu0_L2C TRANSLATION  ACCESS:      14730 HIT:       7027 MISS:       7703
cpu0_L2C PREFETCH REQUESTED:    7758199 ISSUED:    5548267 USEFUL:     109941 USELESS:     185441
cpu0_L2C AVERAGE MISS LATENCY: 116.7 cycles
cpu0_STLB TOTAL        ACCESS:     496368 HIT:     469349 MISS:      27019
cpu0_STLB LOAD         ACCESS:     496368 HIT:     469349 MISS:      27019
cpu0_STLB RFO          ACCESS:          0 HIT:          0 MISS:          0
cpu0_STLB PREFETCH     ACCESS:          0 HIT:          0 MISS:          0
cpu0_STLB WRITE        ACCESS:          0 HIT:          0 MISS:          0
cpu0_STLB TRANSLATION  ACCESS:          0 HIT:          0 MISS:          0
cpu0_STLB PREFETCH REQUESTED:          0 ISSUED:          0 USEFUL:          0 USELESS:          0
cpu0_STLB AVERAGE MISS LATENCY: 199.4 cycles

DRAM Statistics

Channel 0 RQ ROW_BUFFER_HIT:     407807
  ROW_BUFFER_MISS:     520983
 AVG DBUS CONGESTED CYCLE: 3.947
WQ ROW_BUFFER_HIT: Channel 0 
  ROW_BUFFER_MISS:      86067
  FULL:     490222

Channel 1 RQ ROW_BUFFER_HIT:     411059
  ROW_BUFFER_MISS:     490021
 AVG DBUS CONGESTED CYCLE: 3.935
WQ ROW_BUFFER_HIT: Channel 1 
  ROW_BUFFER_MISS:      97614
  FULL:     463736
BERTI TO_L1: 3489872 TO_L2: 9087667 TO_L2_BC_MSHR: 4219687
BERTI AVG_LAT: 78.3911 NUM_TRACK_LATENCY: 2126981 NUM_CANT_TRACK_LATENCY: 1
BERTI CROSS_PAGE 1659163 NO_CROSS_PAGE: 10918376
BERTI FOUND_BERTI: 3624637 NO_FOUND_BERTI: 15883978
BERTI AVERAGE_ISSUED: 4.82546
CPU 0 L1I Entangling prefetcher final stats
IP accesses: 5cd0 173400 137232 / 11249285
IP misses: 13dd 4f740 19723 / 4725517
IP hits: 0 0 0 / 0
IP late: 9d3d 274f40 8659 / 1989705
IP wrong: 55ff 157fc0 7278 / 132296
miss rate: 0.420073
coverage: 0
coverage_late: 0.421056
accuracy: 0
accuracy_late: 0.937656
discarded: 0
evicts entangled j table: 0
evicts entangled k table: 351760
max bb size: 13
formats: 62582 0 242925 86937 32720 51845 0 
hist_lookups: 47532 129406 226512 292930 288239 235291 174850 135779 127417 120384 95898 61681 38598 21973 6658 0 504 761465 
hist_lookups_evict: 0.0182271 %
hist_lookups_shortlat: 27.5383 %
bb_found_hist: 0 2417177 1187847 436659 233757 115705 61091 24970 4855 1473 0 468 0 4436 0 0 0 0 0 0 0 0 0 0 0 0 0 0 0 0 0 0 0 0 0 0 0 0 0 0 0 0 0 0 0 0 0 0 0 0 0 0 0 0 0 0 0 0 0 0 0 0 0 0 
bb_found_summary: 8272650 4488438 1.84311
entangled_found_hist: 0 1417035 785837 2304824 573031 78645 29276 0 
entangled_found_summary: 12764186 5188648 2.46003
bb_ent_found_hist: 0 4022005 2471869 1079659 465584 216173 204863 65221 16880 3460 0 2281 0 18190 0 0 0 0 0 0 0 0 0 0 0 0 0 0 0 0 0 0 0 0 0 0 0 0 0 0 0 0 0 0 0 0 0 0 0 0 0 0 0 0 0 0 0 0 0 0 0 0 0 0 
bb_ent_found_summary: 17261387 8566185 2.01507
