WARNING: physical memory size is smaller than virtual memory size.

*** ChampSim Multicore Out-of-Order Simulator ***
Warmup Instructions: 30000000
Simulation Instructions: 100000000
Number of CPUs: 1
Page size: 4096

BTB:
Basic BTB sets: 1024 ways: 8
Indirect:
history lengths: 0 0 10 16 27 44 60 96 109 219 449 487 714 1313 2146 3881 
ITTAGE tables: 64768 bytes;Region table: 240 bytes;IUM: 384 bytes;Total Storage= 65392 bytes;
RAS:
RAS size: 64
[LLC] Demand IPV: 1 2 2 1 4 Prefetch IPV: 1 2 1 1 4
Berti Prefetcher
CPU 0 Entangling prefetcher
Off-chip DRAM Size: 8 GiB Channels: 2 Width: 64-bit Data Race: 6400 MT/s
Heartbeat CPU 0 instructions: 10000004 cycles: 1725875 heartbeat IPC: 5.794 cumulative IPC: 5.794 (Simulation time: 00 hr 00 min 41 sec)
Heartbeat CPU 0 instructions: 20000003 cycles: 3452057 heartbeat IPC: 5.793 cumulative IPC: 5.794 (Simulation time: 00 hr 01 min 23 sec)
Heartbeat CPU 0 instructions: 30000001 cycles: 5179975 heartbeat IPC: 5.787 cumulative IPC: 5.792 (Simulation time: 00 hr 02 min 04 sec)
Warmup finished CPU 0 instructions: 30000001 cycles: 5179976 cumulative IPC: 5.792 (Simulation time: 00 hr 02 min 04 sec)
Warmup complete CPU 0 instructions: 30000001 cycles: 5179976 cumulative IPC: 5.792 (Simulation time: 00 hr 02 min 04 sec)
*** Reached end of trace: (0, "../traces/public_traces/srv/srv_28.champsimtrace.xz")
Heartbeat CPU 0 instructions: 40000001 cycles: 7991177 heartbeat IPC: 3.557 cumulative IPC: 3.557 (Simulation time: 00 hr 03 min 01 sec)
Heartbeat CPU 0 instructions: 50000001 cycles: 10786405 heartbeat IPC: 3.578 cumulative IPC: 3.567 (Simulation time: 00 hr 03 min 57 sec)
Heartbeat CPU 0 instructions: 60000000 cycles: 13630923 heartbeat IPC: 3.516 cumulative IPC: 3.55 (Simulation time: 00 hr 04 min 54 sec)
*** Reached end of trace: (0, "../traces/public_traces/srv/srv_28.champsimtrace.xz")
Heartbeat CPU 0 instructions: 70000008 cycles: 16360861 heartbeat IPC: 3.663 cumulative IPC: 3.578 (Simulation time: 00 hr 05 min 50 sec)
Heartbeat CPU 0 instructions: 80000000 cycles: 19059063 heartbeat IPC: 3.706 cumulative IPC: 3.603 (Simulation time: 00 hr 06 min 46 sec)
Heartbeat CPU 0 instructions: 90000000 cycles: 21854032 heartbeat IPC: 3.578 cumulative IPC: 3.598 (Simulation time: 00 hr 07 min 42 sec)
*** Reached end of trace: (0, "../traces/public_traces/srv/srv_28.champsimtrace.xz")
Heartbeat CPU 0 instructions: 100000001 cycles: 24595288 heartbeat IPC: 3.648 cumulative IPC: 3.605 (Simulation time: 00 hr 08 min 38 sec)
Heartbeat CPU 0 instructions: 110000006 cycles: 27231695 heartbeat IPC: 3.793 cumulative IPC: 3.628 (Simulation time: 00 hr 09 min 33 sec)
Heartbeat CPU 0 instructions: 120000004 cycles: 29979009 heartbeat IPC: 3.64 cumulative IPC: 3.629 (Simulation time: 00 hr 10 min 30 sec)
*** Reached end of trace: (0, "../traces/public_traces/srv/srv_28.champsimtrace.xz")
Heartbeat CPU 0 instructions: 130000003 cycles: 32740080 heartbeat IPC: 3.622 cumulative IPC: 3.628 (Simulation time: 00 hr 11 min 26 sec)
Simulation finished CPU 0 instructions: 100000002 cycles: 27560105 cumulative IPC: 3.628 (Simulation time: 00 hr 11 min 26 sec)
Simulation complete CPU 0 instructions: 100000002 cycles: 27560105 cumulative IPC: 3.628 (Simulation time: 00 hr 11 min 26 sec)

ChampSim completed all CPUs

=== Simulation ===
CPU 0 runs ../traces/public_traces/srv/srv_28.champsimtrace.xz
Region of Interest Statistics

CPU 0 cumulative IPC: 3.628 instructions: 100000002 cycles: 27560105
CPU 0 Branch Prediction Accuracy: 99.81% MPKI: 0.3376 Average ROB Occupancy at Mispredict: 149.6
Branch type MPKI
BRANCH_DIRECT_JUMP: 8e-05
BRANCH_INDIRECT: 0.23
BRANCH_CONDITIONAL: 0.107
BRANCH_DIRECT_CALL: 0.00014
BRANCH_INDIRECT_CALL: 3e-05
BRANCH_RETURN: 0.00029

LLC TOTAL        ACCESS:     413729 HIT:     262914 MISS:     150815
LLC LOAD         ACCESS:     130270 HIT:      62706 MISS:      67564
LLC RFO          ACCESS:      59095 HIT:      56179 MISS:       2916
LLC PREFETCH     ACCESS:     116584 HIT:      56061 MISS:      60523
LLC WRITE        ACCESS:      78381 HIT:      76058 MISS:       2323
LLC TRANSLATION  ACCESS:      29399 HIT:      11910 MISS:      17489
LLC PREFETCH REQUESTED:          0 ISSUED:          0 USEFUL:          0 USELESS:          0
LLC AVERAGE MISS LATENCY: 148.7 cycles
cpu0_DTLB TOTAL        ACCESS:   16827073 HIT:   15978676 MISS:     848397
cpu0_DTLB LOAD         ACCESS:   16827073 HIT:   15978676 MISS:     848397
cpu0_DTLB RFO          ACCESS:          0 HIT:          0 MISS:          0
cpu0_DTLB PREFETCH     ACCESS:          0 HIT:          0 MISS:          0
cpu0_DTLB WRITE        ACCESS:          0 HIT:          0 MISS:          0
cpu0_DTLB TRANSLATION  ACCESS:          0 HIT:          0 MISS:          0
cpu0_DTLB PREFETCH REQUESTED:          0 ISSUED:          0 USEFUL:          0 USELESS:          0
cpu0_DTLB AVERAGE MISS LATENCY: 9.908 cycles
cpu0_ITLB TOTAL        ACCESS:   15911320 HIT:   15910257 MISS:       1063
cpu0_ITLB LOAD         ACCESS:   15911320 HIT:   15910257 MISS:       1063
cpu0_ITLB RFO          ACCESS:          0 HIT:          0 MISS:          0
cpu0_ITLB PREFETCH     ACCESS:          0 HIT:          0 MISS:          0
cpu0_ITLB WRITE        ACCESS:          0 HIT:          0 MISS:          0
cpu0_ITLB TRANSLATION  ACCESS:          0 HIT:          0 MISS:          0
cpu0_ITLB PREFETCH REQUESTED:          0 ISSUED:          0 USEFUL:          0 USELESS:          0
cpu0_ITLB AVERAGE MISS LATENCY: 59.48 cycles
cpu0_L1D TOTAL        ACCESS:   29106513 HIT:   28098817 MISS:    1007696
cpu0_L1D LOAD         ACCESS:   15727719 HIT:   15252738 MISS:     474981
cpu0_L1D RFO          ACCESS:          0 HIT:          0 MISS:          0
cpu0_L1D PREFETCH     ACCESS:    1279479 HIT:    1149231 MISS:     130248
cpu0_L1D WRITE        ACCESS:   12048345 HIT:   11691863 MISS:     356482
cpu0_L1D TRANSLATION  ACCESS:      50970 HIT:       4985 MISS:      45985
cpu0_L1D PREFETCH REQUESTED:    2893480 ISSUED:    1279479 USEFUL:      15582 USELESS:       5989
cpu0_L1D AVERAGE MISS LATENCY: 20.93 cycles
cpu0_L1I TOTAL        ACCESS:   23109754 HIT:   22605191 MISS:     504563
cpu0_L1I LOAD         ACCESS:   10211487 HIT:    9840545 MISS:     370942
cpu0_L1I RFO          ACCESS:          0 HIT:          0 MISS:          0
cpu0_L1I PREFETCH     ACCESS:   12898267 HIT:   12764646 MISS:     133621
cpu0_L1I WRITE        ACCESS:          0 HIT:          0 MISS:          0
cpu0_L1I TRANSLATION  ACCESS:          0 HIT:          0 MISS:          0
cpu0_L1I PREFETCH REQUESTED:   28591668 ISSUED:   12898286 USEFUL:      98053 USELESS:      18853
cpu0_L1I AVERAGE MISS LATENCY: 9.255 cycles
cpu0_L2C TOTAL        ACCESS:    1341867 HIT:     901583 MISS:     440284
cpu0_L2C LOAD         ACCESS:     435040 HIT:     298329 MISS:     136711
cpu0_L2C RFO          ACCESS:      68946 HIT:       9826 MISS:      59120
cpu0_L2C PREFETCH     ACCESS:     695996 HIT:     481081 MISS:     214915
cpu0_L2C WRITE        ACCESS:      96407 HIT:      96268 MISS:        139
cpu0_L2C TRANSLATION  ACCESS:      45478 HIT:      16079 MISS:      29399
cpu0_L2C PREFETCH REQUESTED:     646766 ISSUED:     484420 USEFUL:      13530 USELESS:      71570
cpu0_L2C AVERAGE MISS LATENCY: 65.87 cycles
cpu0_STLB TOTAL        ACCESS:     635667 HIT:     601402 MISS:      34265
cpu0_STLB LOAD         ACCESS:     635667 HIT:     601402 MISS:      34265
cpu0_STLB RFO          ACCESS:          0 HIT:          0 MISS:          0
cpu0_STLB PREFETCH     ACCESS:          0 HIT:          0 MISS:          0
cpu0_STLB WRITE        ACCESS:          0 HIT:          0 MISS:          0
cpu0_STLB TRANSLATION  ACCESS:          0 HIT:          0 MISS:          0
cpu0_STLB PREFETCH REQUESTED:          0 ISSUED:          0 USEFUL:          0 USELESS:          0
cpu0_STLB AVERAGE MISS LATENCY: 122.3 cycles

DRAM Statistics

Channel 0 RQ ROW_BUFFER_HIT:      15819
  ROW_BUFFER_MISS:      59817
 AVG DBUS CONGESTED CYCLE: 3.667
WQ ROW_BUFFER_HIT: Channel 0 
  ROW_BUFFER_MISS:        205
  FULL:        920

Channel 1 RQ ROW_BUFFER_HIT:      14960
  ROW_BUFFER_MISS:      57894
 AVG DBUS CONGESTED CYCLE: 3.634
WQ ROW_BUFFER_HIT: Channel 1 
  ROW_BUFFER_MISS:        203
  FULL:        868
BERTI TO_L1: 2521451 TO_L2: 4069085 TO_L2_BC_MSHR: 119222
BERTI AVG_LAT: 67.8443 NUM_TRACK_LATENCY: 264467 NUM_CANT_TRACK_LATENCY: 0
BERTI CROSS_PAGE 124013 NO_CROSS_PAGE: 6466523
BERTI FOUND_BERTI: 2813765 NO_FOUND_BERTI: 18673825
BERTI AVERAGE_ISSUED: 2.98031
CPU 0 L1I Entangling prefetcher final stats
IP accesses: 5ccf 1733c0 595059 / 10219382
IP misses: 13c3 4f0c0 1742 / 378837
IP hits: 0 0 0 / 0
IP late: 9d3d 274f40 502 / 159871
IP wrong: 5b87 16e1c0 354 / 18328
miss rate: 0.0370705
coverage: 0
coverage_late: 0.422005
accuracy: 0
accuracy_late: 0.897149
discarded: 0
evicts entangled j table: 0
evicts entangled k table: 32053
max bb size: 13
formats: 4980 0 21844 7602 3170 4923 0 
hist_lookups: 4433 10955 19127 23655 23544 20232 14292 11896 10451 9833 7892 5166 3387 1862 481 0 39 58571 
hist_lookups_evict: 0.0172707 %
hist_lookups_shortlat: 25.9375 %
bb_found_hist: 0 2919750 955447 427208 129957 36301 81219 2316 402 3 359 0 0 384 0 0 0 0 0 0 0 0 0 0 0 0 0 0 0 0 0 0 0 0 0 0 0 0 0 0 0 0 0 0 0 0 0 0 0 0 0 0 0 0 0 0 0 0 0 0 0 0 0 0 
bb_found_summary: 7328952 4553346 1.60958
entangled_found_hist: 0 1725476 847614 1058855 663982 82826 1563 0 
entangled_found_summary: 9676705 4380316 2.20914
bb_ent_found_hist: 0 2636559 1672894 1067696 39413 22199 401304 6808 2819 7 1354 0 0 2194 0 0 0 0 0 0 0 0 0 0 0 0 0 0 0 0 0 0 0 0 0 0 0 0 0 0 0 0 0 0 0 0 0 0 0 0 0 0 0 0 0 0 0 0 0 0 0 0 0 0 
bb_ent_found_summary: 11974239 5853247 2.04575
