WARNING: physical memory size is smaller than virtual memory size.

*** ChampSim Multicore Out-of-Order Simulator ***
Warmup Instructions: 30000000
Simulation Instructions: 100000000
Number of CPUs: 1
Page size: 4096

BTB:
Basic BTB sets: 1024 ways: 8
Indirect:
history lengths: 0 0 10 16 27 44 60 96 109 219 449 487 714 1313 2146 3881 
ITTAGE tables: 64768 bytes;Region table: 240 bytes;IUM: 384 bytes;Total Storage= 65392 bytes;
RAS:
RAS size: 64
[LLC] Demand IPV: 1 2 2 1 4 Prefetch IPV: 1 2 1 1 4
Berti Prefetcher
CPU 0 Entangling prefetcher
Off-chip DRAM Size: 8 GiB Channels: 2 Width: 64-bit Data Race: 6400 MT/s
Heartbeat CPU 0 instructions: 10000002 cycles: 1744411 heartbeat IPC: 5.733 cumulative IPC: 5.733 (Simulation time: 00 hr 01 min 01 sec)
Heartbeat CPU 0 instructions: 20000007 cycles: 3488415 heartbeat IPC: 5.734 cumulative IPC: 5.733 (Simulation time: 00 hr 01 min 56 sec)
Heartbeat CPU 0 instructions: 30000010 cycles: 5231784 heartbeat IPC: 5.736 cumulative IPC: 5.734 (Simulation time: 00 hr 02 min 51 sec)
Warmup finished CPU 0 instructions: 30000010 cycles: 5231785 cumulative IPC: 5.734 (Simulation time: 00 hr 02 min 51 sec)
Warmup complete CPU 0 instructions: 30000010 cycles: 5231785 cumulative IPC: 5.734 (Simulation time: 00 hr 02 min 51 sec)
*** Reached end of trace: (0, "../traces/public_traces/srv/srv_71.champsimtrace.xz")
Heartbeat CPU 0 instructions: 40000003 cycles: 8794370 heartbeat IPC: 2.807 cumulative IPC: 2.807 (Simulation time: 00 hr 04 min 05 sec)
Heartbeat CPU 0 instructions: 50000001 cycles: 12291566 heartbeat IPC: 2.859 cumulative IPC: 2.833 (Simulation time: 00 hr 05 min 13 sec)
Heartbeat CPU 0 instructions: 60000000 cycles: 15821139 heartbeat IPC: 2.833 cumulative IPC: 2.833 (Simulation time: 00 hr 06 min 13 sec)
*** Reached end of trace: (0, "../traces/public_traces/srv/srv_71.champsimtrace.xz")
Heartbeat CPU 0 instructions: 70000011 cycles: 19286377 heartbeat IPC: 2.886 cumulative IPC: 2.846 (Simulation time: 00 hr 07 min 18 sec)
Heartbeat CPU 0 instructions: 80000011 cycles: 22779470 heartbeat IPC: 2.863 cumulative IPC: 2.849 (Simulation time: 00 hr 08 min 20 sec)
Heartbeat CPU 0 instructions: 90000006 cycles: 26262591 heartbeat IPC: 2.871 cumulative IPC: 2.853 (Simulation time: 00 hr 09 min 27 sec)
*** Reached end of trace: (0, "../traces/public_traces/srv/srv_71.champsimtrace.xz")
Heartbeat CPU 0 instructions: 100000000 cycles: 29718605 heartbeat IPC: 2.894 cumulative IPC: 2.859 (Simulation time: 00 hr 10 min 41 sec)
Heartbeat CPU 0 instructions: 110000004 cycles: 33169910 heartbeat IPC: 2.897 cumulative IPC: 2.863 (Simulation time: 00 hr 11 min 54 sec)
Heartbeat CPU 0 instructions: 120000007 cycles: 36676933 heartbeat IPC: 2.851 cumulative IPC: 2.862 (Simulation time: 00 hr 13 min 08 sec)
*** Reached end of trace: (0, "../traces/public_traces/srv/srv_71.champsimtrace.xz")
Heartbeat CPU 0 instructions: 130000007 cycles: 40159424 heartbeat IPC: 2.872 cumulative IPC: 2.863 (Simulation time: 00 hr 14 min 22 sec)
Simulation finished CPU 0 instructions: 100000009 cycles: 34927641 cumulative IPC: 2.863 (Simulation time: 00 hr 14 min 22 sec)
Simulation complete CPU 0 instructions: 100000009 cycles: 34927641 cumulative IPC: 2.863 (Simulation time: 00 hr 14 min 22 sec)

ChampSim completed all CPUs

=== Simulation ===
CPU 0 runs ../traces/public_traces/srv/srv_71.champsimtrace.xz
Region of Interest Statistics

CPU 0 cumulative IPC: 2.863 instructions: 100000009 cycles: 34927641
CPU 0 Branch Prediction Accuracy: 95.2% MPKI: 8.631 Average ROB Occupancy at Mispredict: 44.66
Branch type MPKI
BRANCH_DIRECT_JUMP: 0.552
BRANCH_INDIRECT: 3.54
BRANCH_CONDITIONAL: 1.24
BRANCH_DIRECT_CALL: 1.7
BRANCH_INDIRECT_CALL: 0.291
BRANCH_RETURN: 1.31

LLC TOTAL        ACCESS:      73654 HIT:      72249 MISS:       1405
LLC LOAD         ACCESS:      34469 HIT:      34109 MISS:        360
LLC RFO          ACCESS:       8335 HIT:       8295 MISS:         40
LLC PREFETCH     ACCESS:      19806 HIT:      18966 MISS:        840
LLC WRITE        ACCESS:      10293 HIT:      10290 MISS:          3
LLC TRANSLATION  ACCESS:        751 HIT:        589 MISS:        162
LLC PREFETCH REQUESTED:          0 ISSUED:          0 USEFUL:          0 USELESS:          0
LLC AVERAGE MISS LATENCY: 151.7 cycles
cpu0_DTLB TOTAL        ACCESS:   19632018 HIT:   18586892 MISS:    1045126
cpu0_DTLB LOAD         ACCESS:   19632018 HIT:   18586892 MISS:    1045126
cpu0_DTLB RFO          ACCESS:          0 HIT:          0 MISS:          0
cpu0_DTLB PREFETCH     ACCESS:          0 HIT:          0 MISS:          0
cpu0_DTLB WRITE        ACCESS:          0 HIT:          0 MISS:          0
cpu0_DTLB TRANSLATION  ACCESS:          0 HIT:          0 MISS:          0
cpu0_DTLB PREFETCH REQUESTED:          0 ISSUED:          0 USEFUL:          0 USELESS:          0
cpu0_DTLB AVERAGE MISS LATENCY: 4.676 cycles
cpu0_ITLB TOTAL        ACCESS:   22466947 HIT:   21454804 MISS:    1012143
cpu0_ITLB LOAD         ACCESS:   22466947 HIT:   21454804 MISS:    1012143
cpu0_ITLB RFO          ACCESS:          0 HIT:          0 MISS:          0
cpu0_ITLB PREFETCH     ACCESS:          0 HIT:          0 MISS:          0
cpu0_ITLB WRITE        ACCESS:          0 HIT:          0 MISS:          0
cpu0_ITLB TRANSLATION  ACCESS:          0 HIT:          0 MISS:          0
cpu0_ITLB PREFETCH REQUESTED:          0 ISSUED:          0 USEFUL:          0 USELESS:          0
cpu0_ITLB AVERAGE MISS LATENCY: 3.759 cycles
cpu0_L1D TOTAL        ACCESS:   30077356 HIT:   25063282 MISS:    5014074
cpu0_L1D LOAD         ACCESS:   16624932 HIT:   13604745 MISS:    3020187
cpu0_L1D RFO          ACCESS:          0 HIT:          0 MISS:          0
cpu0_L1D PREFETCH     ACCESS:     133504 HIT:      65222 MISS:      68282
cpu0_L1D WRITE        ACCESS:   13317472 HIT:   11393229 MISS:    1924243
cpu0_L1D TRANSLATION  ACCESS:       1448 HIT:         86 MISS:       1362
cpu0_L1D PREFETCH REQUESTED:    1141402 ISSUED:     133504 USEFUL:       3218 USELESS:        624
cpu0_L1D AVERAGE MISS LATENCY: 7.039 cycles
cpu0_L1I TOTAL        ACCESS:   32815481 HIT:   25294283 MISS:    7521198
cpu0_L1I LOAD         ACCESS:   10889155 HIT:    9340238 MISS:    1548917
cpu0_L1I RFO          ACCESS:          0 HIT:          0 MISS:          0
cpu0_L1I PREFETCH     ACCESS:   21926326 HIT:   15954045 MISS:    5972281
cpu0_L1I WRITE        ACCESS:          0 HIT:          0 MISS:          0
cpu0_L1I TRANSLATION  ACCESS:          0 HIT:          0 MISS:          0
cpu0_L1I PREFETCH REQUESTED:   35008275 ISSUED:   21926321 USEFUL:    4787089 USELESS:    1006584
cpu0_L1I AVERAGE MISS LATENCY: 11.11 cycles
cpu0_L2C TOTAL        ACCESS:   18847803 HIT:   18776402 MISS:      71401
cpu0_L2C LOAD         ACCESS:    3306738 HIT:    3271818 MISS:      34920
cpu0_L2C RFO          ACCESS:     601589 HIT:     593242 MISS:       8347
cpu0_L2C PREFETCH     ACCESS:   13761207 HIT:   13733824 MISS:      27383
cpu0_L2C WRITE        ACCESS:    1176910 HIT:    1176910 MISS:          0
cpu0_L2C TRANSLATION  ACCESS:       1359 HIT:        608 MISS:        751
cpu0_L2C PREFETCH REQUESTED:    9122788 ISSUED:    7945131 USEFUL:       4072 USELESS:      10148
cpu0_L2C AVERAGE MISS LATENCY: 20.71 cycles
cpu0_STLB TOTAL        ACCESS:    1287737 HIT:    1286427 MISS:       1310
cpu0_STLB LOAD         ACCESS:    1287737 HIT:    1286427 MISS:       1310
cpu0_STLB RFO          ACCESS:          0 HIT:          0 MISS:          0
cpu0_STLB PREFETCH     ACCESS:          0 HIT:          0 MISS:          0
cpu0_STLB WRITE        ACCESS:          0 HIT:          0 MISS:          0
cpu0_STLB TRANSLATION  ACCESS:          0 HIT:          0 MISS:          0
cpu0_STLB PREFETCH REQUESTED:          0 ISSUED:          0 USEFUL:          0 USELESS:          0
cpu0_STLB AVERAGE MISS LATENCY: 54.67 cycles

DRAM Statistics

Channel 0 RQ ROW_BUFFER_HIT:        119
  ROW_BUFFER_MISS:        556
 AVG DBUS CONGESTED CYCLE: 3.526
WQ ROW_BUFFER_HIT: Channel 0 
  ROW_BUFFER_MISS:          0
  FULL:          0

Channel 1 RQ ROW_BUFFER_HIT:        125
  ROW_BUFFER_MISS:        602
 AVG DBUS CONGESTED CYCLE: 3.434
WQ ROW_BUFFER_HIT: Channel 1 
  ROW_BUFFER_MISS:          0
  FULL:          1
BERTI TO_L1: 120075 TO_L2: 2381005 TO_L2_BC_MSHR: 1300703
BERTI AVG_LAT: 14.5847 NUM_TRACK_LATENCY: 2923555 NUM_CANT_TRACK_LATENCY: 0
BERTI CROSS_PAGE 715424 NO_CROSS_PAGE: 1785656
BERTI FOUND_BERTI: 1671318 NO_FOUND_BERTI: 20415877
BERTI AVERAGE_ISSUED: 2.31054
CPU 0 L1I Entangling prefetcher final stats
IP accesses: a3d2 28f480 46981 / 10903524
IP misses: 5641 159040 10600 / 1563287
IP hits: 0 0 0 / 0
IP late: 9d10 274400 3334 / 772731
IP wrong: f410 3d0400 5795 / 998788
miss rate: 0.143375
coverage: 0
coverage_late: 0.494299
accuracy: 0
accuracy_late: 0.436197
discarded: 0
evicts entangled j table: 0
evicts entangled k table: 231450
max bb size: 13
formats: 108217 25391 115481 24660 10467 23220 0 
hist_lookups: 61173 115169 136578 144366 129240 111367 81615 66330 58419 42101 32035 22411 15027 7835 2813 0 3 210951 
hist_lookups_evict: 0.000242438 %
hist_lookups_shortlat: 17.0475 %
bb_found_hist: 0 2793857 1177950 542755 210711 101901 100210 31401 12321 56 7838 4672 0 1574 0 0 0 0 0 0 0 0 0 0 0 0 0 0 0 0 0 0 0 0 0 0 0 0 0 0 0 0 0 0 0 0 0 0 0 0 0 0 0 0 0 0 0 0 0 0 0 0 0 0 
bb_found_summary: 9200744 4985246 1.8456
entangled_found_hist: 0 1831963 1378645 2243244 272239 83100 22113 0 
entangled_found_summary: 12956119 5831304 2.22183
bb_ent_found_hist: 0 4003789 2393675 1053173 475002 231925 226153 101660 20544 114 17430 31858 0 13397 0 0 0 0 0 0 0 0 0 0 0 0 0 0 0 0 0 0 0 0 0 0 0 0 0 0 0 0 0 0 0 0 0 0 0 0 0 0 0 0 0 0 0 0 0 0 0 0 0 0 
bb_ent_found_summary: 17943106 8568720 2.09403
