WARNING: physical memory size is smaller than virtual memory size.

*** ChampSim Multicore Out-of-Order Simulator ***
Warmup Instructions: 30000000
Simulation Instructions: 100000000
Number of CPUs: 1
Page size: 4096

BTB:
Basic BTB sets: 1024 ways: 8
Indirect:
history lengths: 0 0 10 16 27 44 60 96 109 219 449 487 714 1313 2146 3881 
ITTAGE tables: 64768 bytes;Region table: 240 bytes;IUM: 384 bytes;Total Storage= 65392 bytes;
RAS:
RAS size: 64
[LLC] Demand IPV: 1 2 2 1 4 Prefetch IPV: 1 2 1 1 4
Berti Prefetcher
CPU 0 Entangling prefetcher
Off-chip DRAM Size: 8 GiB Channels: 2 Width: 64-bit Data Race: 6400 MT/s
Heartbeat CPU 0 instructions: 10000003 cycles: 1781575 heartbeat IPC: 5.613 cumulative IPC: 5.613 (Simulation time: 00 hr 00 min 44 sec)
Heartbeat CPU 0 instructions: 20000004 cycles: 3569346 heartbeat IPC: 5.594 cumulative IPC: 5.603 (Simulation time: 00 hr 01 min 33 sec)
Heartbeat CPU 0 instructions: 30000000 cycles: 5348808 heartbeat IPC: 5.62 cumulative IPC: 5.609 (Simulation time: 00 hr 02 min 23 sec)
Warmup finished CPU 0 instructions: 30000000 cycles: 5348809 cumulative IPC: 5.609 (Simulation time: 00 hr 02 min 23 sec)
Warmup complete CPU 0 instructions: 30000000 cycles: 5348809 cumulative IPC: 5.609 (Simulation time: 00 hr 02 min 23 sec)
*** Reached end of trace: (0, "../traces/public_traces/srv/srv_52.champsimtrace.xz")
Heartbeat CPU 0 instructions: 40000011 cycles: 10353617 heartbeat IPC: 1.998 cumulative IPC: 1.998 (Simulation time: 00 hr 03 min 39 sec)
Heartbeat CPU 0 instructions: 50000004 cycles: 15504548 heartbeat IPC: 1.941 cumulative IPC: 1.969 (Simulation time: 00 hr 04 min 49 sec)
Heartbeat CPU 0 instructions: 60000001 cycles: 20473222 heartbeat IPC: 2.013 cumulative IPC: 1.984 (Simulation time: 00 hr 05 min 59 sec)
*** Reached end of trace: (0, "../traces/public_traces/srv/srv_52.champsimtrace.xz")
Heartbeat CPU 0 instructions: 70000003 cycles: 25386495 heartbeat IPC: 2.035 cumulative IPC: 1.996 (Simulation time: 00 hr 07 min 08 sec)
Heartbeat CPU 0 instructions: 80000001 cycles: 30511527 heartbeat IPC: 1.951 cumulative IPC: 1.987 (Simulation time: 00 hr 08 min 21 sec)
Heartbeat CPU 0 instructions: 90000006 cycles: 35432421 heartbeat IPC: 2.032 cumulative IPC: 1.994 (Simulation time: 00 hr 09 min 33 sec)
*** Reached end of trace: (0, "../traces/public_traces/srv/srv_52.champsimtrace.xz")
Heartbeat CPU 0 instructions: 100000000 cycles: 40320959 heartbeat IPC: 2.046 cumulative IPC: 2.002 (Simulation time: 00 hr 10 min 59 sec)
Heartbeat CPU 0 instructions: 110000003 cycles: 45338454 heartbeat IPC: 1.993 cumulative IPC: 2.001 (Simulation time: 00 hr 12 min 23 sec)
Heartbeat CPU 0 instructions: 120000006 cycles: 50306479 heartbeat IPC: 2.013 cumulative IPC: 2.002 (Simulation time: 00 hr 13 min 40 sec)
*** Reached end of trace: (0, "../traces/public_traces/srv/srv_52.champsimtrace.xz")
Heartbeat CPU 0 instructions: 130000001 cycles: 55187729 heartbeat IPC: 2.049 cumulative IPC: 2.006 (Simulation time: 00 hr 14 min 53 sec)
Simulation finished CPU 0 instructions: 100000001 cycles: 49838921 cumulative IPC: 2.006 (Simulation time: 00 hr 14 min 53 sec)
Simulation complete CPU 0 instructions: 100000001 cycles: 49838921 cumulative IPC: 2.006 (Simulation time: 00 hr 14 min 53 sec)

ChampSim completed all CPUs

=== Simulation ===
CPU 0 runs ../traces/public_traces/srv/srv_52.champsimtrace.xz
Region of Interest Statistics

CPU 0 cumulative IPC: 2.006 instructions: 100000001 cycles: 49838921
CPU 0 Branch Prediction Accuracy: 91.41% MPKI: 14.95 Average ROB Occupancy at Mispredict: 26.38
Branch type MPKI
BRANCH_DIRECT_JUMP: 1.43
BRANCH_INDIRECT: 6.44
BRANCH_CONDITIONAL: 1.77
BRANCH_DIRECT_CALL: 2.68
BRANCH_INDIRECT_CALL: 0.71
BRANCH_RETURN: 1.92

LLC TOTAL        ACCESS:     808695 HIT:     689346 MISS:     119349
LLC LOAD         ACCESS:     173842 HIT:     145924 MISS:      27918
LLC RFO          ACCESS:     128039 HIT:     111265 MISS:      16774
LLC PREFETCH     ACCESS:     230128 HIT:     183472 MISS:      46656
LLC WRITE        ACCESS:     244187 HIT:     234884 MISS:       9303
LLC TRANSLATION  ACCESS:      32499 HIT:      13801 MISS:      18698
LLC PREFETCH REQUESTED:          0 ISSUED:          0 USEFUL:          0 USELESS:          0
LLC AVERAGE MISS LATENCY: 131.1 cycles
cpu0_DTLB TOTAL        ACCESS:   19602442 HIT:   18794398 MISS:     808044
cpu0_DTLB LOAD         ACCESS:   19602442 HIT:   18794398 MISS:     808044
cpu0_DTLB RFO          ACCESS:          0 HIT:          0 MISS:          0
cpu0_DTLB PREFETCH     ACCESS:          0 HIT:          0 MISS:          0
cpu0_DTLB WRITE        ACCESS:          0 HIT:          0 MISS:          0
cpu0_DTLB TRANSLATION  ACCESS:          0 HIT:          0 MISS:          0
cpu0_DTLB PREFETCH REQUESTED:          0 ISSUED:          0 USEFUL:          0 USELESS:          0
cpu0_DTLB AVERAGE MISS LATENCY: 9.704 cycles
cpu0_ITLB TOTAL        ACCESS:   22471993 HIT:   21735113 MISS:     736880
cpu0_ITLB LOAD         ACCESS:   22471993 HIT:   21735113 MISS:     736880
cpu0_ITLB RFO          ACCESS:          0 HIT:          0 MISS:          0
cpu0_ITLB PREFETCH     ACCESS:          0 HIT:          0 MISS:          0
cpu0_ITLB WRITE        ACCESS:          0 HIT:          0 MISS:          0
cpu0_ITLB TRANSLATION  ACCESS:          0 HIT:          0 MISS:          0
cpu0_ITLB PREFETCH REQUESTED:          0 ISSUED:          0 USEFUL:          0 USELESS:          0
cpu0_ITLB AVERAGE MISS LATENCY: 4.066 cycles
cpu0_L1D TOTAL        ACCESS:   29395790 HIT:   25513474 MISS:    3882316
cpu0_L1D LOAD         ACCESS:   17502418 HIT:   15408366 MISS:    2094052
cpu0_L1D RFO          ACCESS:          0 HIT:          0 MISS:          0
cpu0_L1D PREFETCH     ACCESS:      94369 HIT:      30408 MISS:      63961
cpu0_L1D WRITE        ACCESS:   11752582 HIT:   10071763 MISS:    1680819
cpu0_L1D TRANSLATION  ACCESS:      46421 HIT:       2937 MISS:      43484
cpu0_L1D PREFETCH REQUESTED:     231250 ISSUED:      94369 USEFUL:       7264 USELESS:        830
cpu0_L1D AVERAGE MISS LATENCY: 9.236 cycles
cpu0_L1I TOTAL        ACCESS:   32902611 HIT:   26655179 MISS:    6247432
cpu0_L1I LOAD         ACCESS:   10718938 HIT:    9359005 MISS:    1359933
cpu0_L1I RFO          ACCESS:          0 HIT:          0 MISS:          0
cpu0_L1I PREFETCH     ACCESS:   22183673 HIT:   17296174 MISS:    4887499
cpu0_L1I WRITE        ACCESS:          0 HIT:          0 MISS:          0
cpu0_L1I TRANSLATION  ACCESS:          0 HIT:          0 MISS:          0
cpu0_L1I PREFETCH REQUESTED:   41221781 ISSUED:   22183652 USEFUL:    3565451 USELESS:    1175541
cpu0_L1I AVERAGE MISS LATENCY: 10.86 cycles
cpu0_L2C TOTAL        ACCESS:   15713897 HIT:   15040383 MISS:     673514
cpu0_L2C LOAD         ACCESS:    2418199 HIT:    2233213 MISS:     184986
cpu0_L2C RFO          ACCESS:     590293 HIT:     461438 MISS:     128855
cpu0_L2C PREFETCH     ACCESS:   11605287 HIT:   11278159 MISS:     327128
cpu0_L2C WRITE        ACCESS:    1058163 HIT:    1058117 MISS:         46
cpu0_L2C TRANSLATION  ACCESS:      41955 HIT:       9456 MISS:      32499
cpu0_L2C PREFETCH REQUESTED:    7207126 ISSUED:    6816350 USEFUL:      68223 USELESS:      98964
cpu0_L2C AVERAGE MISS LATENCY: 39.58 cycles
cpu0_STLB TOTAL        ACCESS:     973336 HIT:     945228 MISS:      28108
cpu0_STLB LOAD         ACCESS:     973336 HIT:     945228 MISS:      28108
cpu0_STLB RFO          ACCESS:          0 HIT:          0 MISS:          0
cpu0_STLB PREFETCH     ACCESS:          0 HIT:          0 MISS:          0
cpu0_STLB WRITE        ACCESS:          0 HIT:          0 MISS:          0
cpu0_STLB TRANSLATION  ACCESS:          0 HIT:          0 MISS:          0
cpu0_STLB PREFETCH REQUESTED:          0 ISSUED:          0 USEFUL:          0 USELESS:          0
cpu0_STLB AVERAGE MISS LATENCY: 168.4 cycles

DRAM Statistics

Channel 0 RQ ROW_BUFFER_HIT:      19578
  ROW_BUFFER_MISS:      37974
 AVG DBUS CONGESTED CYCLE: 3.847
WQ ROW_BUFFER_HIT: Channel 0 
  ROW_BUFFER_MISS:       1938
  FULL:      12264

Channel 1 RQ ROW_BUFFER_HIT:      18183
  ROW_BUFFER_MISS:      34303
 AVG DBUS CONGESTED CYCLE: 3.829
WQ ROW_BUFFER_HIT: Channel 1 
  ROW_BUFFER_MISS:       1743
  FULL:      10205
BERTI TO_L1: 85916 TO_L2: 216297 TO_L2_BC_MSHR: 102449
BERTI AVG_LAT: 14.7372 NUM_TRACK_LATENCY: 1948688 NUM_CANT_TRACK_LATENCY: 0
BERTI CROSS_PAGE 53442 NO_CROSS_PAGE: 248771
BERTI FOUND_BERTI: 776950 NO_FOUND_BERTI: 21921316
BERTI AVERAGE_ISSUED: 6.3104
CPU 0 L1I Entangling prefetcher final stats
IP accesses: dabe 36af80 36281 / 10777847
IP misses: 3f25 fc940 6901 / 1418842
IP hits: 0 0 0 / 0
IP late: 426d 109b40 2485 / 617466
IP wrong: dac0 36b000 4688 / 1167461
miss rate: 0.131645
coverage: 0
coverage_late: 0.435191
accuracy: 0
accuracy_late: 0.345934
discarded: 0
evicts entangled j table: 0
evicts entangled k table: 243330
max bb size: 38
formats: 95803 0 162813 21973 16721 38731 0 
hist_lookups: 78867 121526 139194 137130 119692 101473 79732 58525 41842 32187 23717 16251 10091 5041 2144 0 309 289741 
hist_lookups_evict: 0.0245734 %
hist_lookups_shortlat: 23.0418 %
bb_found_hist: 0 2671344 1267943 583763 277211 133165 49631 40111 31124 2641 12324 5118 2842 0 0 0 0 0 0 0 0 0 0 0 0 0 0 0 0 0 0 0 0 0 0 0 828 1401 743 0 0 0 0 0 0 0 0 0 0 0 0 0 0 0 0 0 0 0 0 0 0 0 0 0 
bb_found_summary: 9908033 5080189 1.95033
entangled_found_hist: 0 1866248 1043156 2847325 279192 103208 31182 0 
entangled_found_summary: 14314435 6170311 2.31989
bb_ent_found_hist: 0 4242697 2773771 1193217 556447 368363 98295 112103 56520 6017 54373 26444 10665 0 0 0 0 0 0 0 0 0 0 0 0 0 0 0 0 0 0 0 0 0 0 0 460 84 2488 0 0 0 0 0 0 0 0 0 0 0 0 0 0 0 0 0 0 0 0 0 0 0 0 0 
bb_ent_found_summary: 20395103 9501944 2.14642
