WARNING: physical memory size is smaller than virtual memory size.

*** ChampSim Multicore Out-of-Order Simulator ***
Warmup Instructions: 30000000
Simulation Instructions: 100000000
Number of CPUs: 1
Page size: 4096

BTB:
Basic BTB sets: 1024 ways: 8
Indirect:
history lengths: 0 0 10 16 27 44 60 96 109 219 449 487 714 1313 2146 3881 
ITTAGE tables: 64768 bytes;Region table: 240 bytes;IUM: 384 bytes;Total Storage= 65392 bytes;
RAS:
RAS size: 64
[LLC] Demand IPV: 1 2 2 1 4 Prefetch IPV: 1 2 1 1 4
Berti Prefetcher
CPU 0 Entangling prefetcher
Off-chip DRAM Size: 8 GiB Channels: 2 Width: 64-bit Data Race: 6400 MT/s
Heartbeat CPU 0 instructions: 10000009 cycles: 2115353 heartbeat IPC: 4.727 cumulative IPC: 4.727 (Simulation time: 00 hr 00 min 59 sec)
Heartbeat CPU 0 instructions: 20000000 cycles: 4212017 heartbeat IPC: 4.769 cumulative IPC: 4.748 (Simulation time: 00 hr 01 min 57 sec)
Heartbeat CPU 0 instructions: 30000007 cycles: 6303087 heartbeat IPC: 4.782 cumulative IPC: 4.76 (Simulation time: 00 hr 02 min 55 sec)
Warmup finished CPU 0 instructions: 30000007 cycles: 6303088 cumulative IPC: 4.76 (Simulation time: 00 hr 02 min 55 sec)
Warmup complete CPU 0 instructions: 30000007 cycles: 6303088 cumulative IPC: 4.76 (Simulation time: 00 hr 02 min 55 sec)
*** Reached end of trace: (0, "../traces/public_traces/srv/srv_37.champsimtrace.xz")
Heartbeat CPU 0 instructions: 40000008 cycles: 12042150 heartbeat IPC: 1.742 cumulative IPC: 1.742 (Simulation time: 00 hr 04 min 33 sec)
Heartbeat CPU 0 instructions: 50000010 cycles: 18124439 heartbeat IPC: 1.644 cumulative IPC: 1.692 (Simulation time: 00 hr 06 min 31 sec)
Heartbeat CPU 0 instructions: 60000001 cycles: 24264897 heartbeat IPC: 1.629 cumulative IPC: 1.67 (Simulation time: 00 hr 08 min 13 sec)
*** Reached end of trace: (0, "../traces/public_traces/srv/srv_37.champsimtrace.xz")
Heartbeat CPU 0 instructions: 70000003 cycles: 29945599 heartbeat IPC: 1.76 cumulative IPC: 1.692 (Simulation time: 00 hr 09 min 44 sec)
Heartbeat CPU 0 instructions: 80000001 cycles: 36078942 heartbeat IPC: 1.63 cumulative IPC: 1.679 (Simulation time: 00 hr 11 min 22 sec)
Heartbeat CPU 0 instructions: 90000010 cycles: 42142821 heartbeat IPC: 1.649 cumulative IPC: 1.674 (Simulation time: 00 hr 13 min 18 sec)
*** Reached end of trace: (0, "../traces/public_traces/srv/srv_37.champsimtrace.xz")
Heartbeat CPU 0 instructions: 100000001 cycles: 47926723 heartbeat IPC: 1.729 cumulative IPC: 1.682 (Simulation time: 00 hr 15 min 08 sec)
Heartbeat CPU 0 instructions: 110000005 cycles: 54048400 heartbeat IPC: 1.634 cumulative IPC: 1.676 (Simulation time: 00 hr 17 min 08 sec)
Heartbeat CPU 0 instructions: 120000001 cycles: 60113467 heartbeat IPC: 1.649 cumulative IPC: 1.673 (Simulation time: 00 hr 18 min 50 sec)
*** Reached end of trace: (0, "../traces/public_traces/srv/srv_37.champsimtrace.xz")
Heartbeat CPU 0 instructions: 130000002 cycles: 66160346 heartbeat IPC: 1.654 cumulative IPC: 1.671 (Simulation time: 00 hr 20 min 31 sec)
Simulation finished CPU 0 instructions: 100000007 cycles: 59857260 cumulative IPC: 1.671 (Simulation time: 00 hr 20 min 31 sec)
Simulation complete CPU 0 instructions: 100000007 cycles: 59857260 cumulative IPC: 1.671 (Simulation time: 00 hr 20 min 31 sec)

ChampSim completed all CPUs

=== Simulation ===
CPU 0 runs ../traces/public_traces/srv/srv_37.champsimtrace.xz
Region of Interest Statistics

CPU 0 cumulative IPC: 1.671 instructions: 100000007 cycles: 59857260
CPU 0 Branch Prediction Accuracy: 99.87% MPKI: 0.2023 Average ROB Occupancy at Mispredict: 212.6
Branch type MPKI
BRANCH_DIRECT_JUMP: 0.00048
BRANCH_INDIRECT: 0.148
BRANCH_CONDITIONAL: 0.0494
BRANCH_DIRECT_CALL: 0.0015
BRANCH_INDIRECT_CALL: 0.00012
BRANCH_RETURN: 0.00245

LLC TOTAL        ACCESS:    4733793 HIT:    1759587 MISS:    2974206
LLC LOAD         ACCESS:     475551 HIT:     315264 MISS:     160287
LLC RFO          ACCESS:    1596074 HIT:     484041 MISS:    1112033
LLC PREFETCH     ACCESS:     822653 HIT:     243222 MISS:     579431
LLC WRITE        ACCESS:    1825797 HIT:     716689 MISS:    1109108
LLC TRANSLATION  ACCESS:      13718 HIT:        371 MISS:      13347
LLC PREFETCH REQUESTED:          0 ISSUED:          0 USEFUL:          0 USELESS:          0
LLC AVERAGE MISS LATENCY: 183.9 cycles
cpu0_DTLB TOTAL        ACCESS:   18527543 HIT:   17492868 MISS:    1034675
cpu0_DTLB LOAD         ACCESS:   18527543 HIT:   17492868 MISS:    1034675
cpu0_DTLB RFO          ACCESS:          0 HIT:          0 MISS:          0
cpu0_DTLB PREFETCH     ACCESS:          0 HIT:          0 MISS:          0
cpu0_DTLB WRITE        ACCESS:          0 HIT:          0 MISS:          0
cpu0_DTLB TRANSLATION  ACCESS:          0 HIT:          0 MISS:          0
cpu0_DTLB PREFETCH REQUESTED:          0 ISSUED:          0 USEFUL:          0 USELESS:          0
cpu0_DTLB AVERAGE MISS LATENCY: 8.53 cycles
cpu0_ITLB TOTAL        ACCESS:   14842305 HIT:   14819751 MISS:      22554
cpu0_ITLB LOAD         ACCESS:   14842305 HIT:   14819751 MISS:      22554
cpu0_ITLB RFO          ACCESS:          0 HIT:          0 MISS:          0
cpu0_ITLB PREFETCH     ACCESS:          0 HIT:          0 MISS:          0
cpu0_ITLB WRITE        ACCESS:          0 HIT:          0 MISS:          0
cpu0_ITLB TRANSLATION  ACCESS:          0 HIT:          0 MISS:          0
cpu0_ITLB PREFETCH REQUESTED:          0 ISSUED:          0 USEFUL:          0 USELESS:          0
cpu0_ITLB AVERAGE MISS LATENCY: 26.41 cycles
cpu0_L1D TOTAL        ACCESS:   33757359 HIT:   20266034 MISS:   13491325
cpu0_L1D LOAD         ACCESS:   13243465 HIT:   10275996 MISS:    2967469
cpu0_L1D RFO          ACCESS:          0 HIT:          0 MISS:          0
cpu0_L1D PREFETCH     ACCESS:    3458423 HIT:     971657 MISS:    2486766
cpu0_L1D WRITE        ACCESS:   17020605 HIT:    9005297 MISS:    8015308
cpu0_L1D TRANSLATION  ACCESS:      34866 HIT:      13084 MISS:      21782
cpu0_L1D PREFETCH REQUESTED:    9337198 ISSUED:    3458423 USEFUL:     326955 USELESS:      49836
cpu0_L1D AVERAGE MISS LATENCY: 37.27 cycles
cpu0_L1I TOTAL        ACCESS:   21583218 HIT:   15281493 MISS:    6301725
cpu0_L1I LOAD         ACCESS:   11178907 HIT:    6572849 MISS:    4606058
cpu0_L1I RFO          ACCESS:          0 HIT:          0 MISS:          0
cpu0_L1I PREFETCH     ACCESS:   10404311 HIT:    8708644 MISS:    1695667
cpu0_L1I WRITE        ACCESS:          0 HIT:          0 MISS:          0
cpu0_L1I TRANSLATION  ACCESS:          0 HIT:          0 MISS:          0
cpu0_L1I PREFETCH REQUESTED:   33052593 ISSUED:   10404324 USEFUL:    1368048 USELESS:     155912
cpu0_L1I AVERAGE MISS LATENCY: 10.07 cycles
cpu0_L2C TOTAL        ACCESS:   17580537 HIT:   12509998 MISS:    5070539
cpu0_L2C LOAD         ACCESS:    4402550 HIT:    3844435 MISS:     558115
cpu0_L2C RFO          ACCESS:    1835082 HIT:     238624 MISS:    1596458
cpu0_L2C PREFETCH     ACCESS:    9124720 HIT:    6222487 MISS:    2902233
cpu0_L2C WRITE        ACCESS:    2196560 HIT:    2196545 MISS:         15
cpu0_L2C TRANSLATION  ACCESS:      21625 HIT:       7907 MISS:      13718
cpu0_L2C PREFETCH REQUESTED:    7842568 ISSUED:    5693987 USEFUL:     110988 USELESS:     184317
cpu0_L2C AVERAGE MISS LATENCY: 117 cycles
cpu0_STLB TOTAL        ACCESS:     512459 HIT:     481420 MISS:      31039
cpu0_STLB LOAD         ACCESS:     512459 HIT:     481420 MISS:      31039
cpu0_STLB RFO          ACCESS:          0 HIT:          0 MISS:          0
cpu0_STLB PREFETCH     ACCESS:          0 HIT:          0 MISS:          0
cpu0_STLB WRITE        ACCESS:          0 HIT:          0 MISS:          0
cpu0_STLB TRANSLATION  ACCESS:          0 HIT:          0 MISS:          0
cpu0_STLB PREFETCH REQUESTED:          0 ISSUED:          0 USEFUL:          0 USELESS:          0
cpu0_STLB AVERAGE MISS LATENCY: 237.7 cycles

DRAM Statistics

Channel 0 RQ ROW_BUFFER_HIT:     421857
  ROW_BUFFER_MISS:     524443
 AVG DBUS CONGESTED CYCLE: 3.949
WQ ROW_BUFFER_HIT: Channel 0 
  ROW_BUFFER_MISS:      73979
  FULL:     506194

Channel 1 RQ ROW_BUFFER_HIT:     424679
  ROW_BUFFER_MISS:     494039
 AVG DBUS CONGESTED CYCLE: 3.935
WQ ROW_BUFFER_HIT: Channel 1 
  ROW_BUFFER_MISS:      84658
  FULL:     478259
BERTI TO_L1: 3512240 TO_L2: 8878072 TO_L2_BC_MSHR: 4039650
BERTI AVG_LAT: 80.2719 NUM_TRACK_LATENCY: 2134039 NUM_CANT_TRACK_LATENCY: 2
BERTI CROSS_PAGE 1601157 NO_CROSS_PAGE: 10789155
BERTI FOUND_BERTI: 3586506 NO_FOUND_BERTI: 15819051
BERTI AVERAGE_ISSUED: 4.8237
CPU 0 L1I Entangling prefetcher final stats
IP accesses: 5cd0 173400 136638 / 11290319
IP misses: 13dd 4f740 20921 / 4717470
IP hits: 0 0 0 / 0
IP late: 9d3d 274f40 8542 / 2039709
IP wrong: 5a3c 168f00 4365 / 151481
miss rate: 0.417834
coverage: 0
coverage_late: 0.432374
accuracy: 0
accuracy_late: 0.930869
discarded: 0
evicts entangled j table: 0
evicts entangled k table: 344203
max bb size: 13
formats: 62774 0 240351 81493 32128 50923 0 
hist_lookups: 47115 130717 225954 286642 274073 237329 171029 130070 128273 120457 94062 64773 40568 22355 6738 0 528 749867 
hist_lookups_evict: 0.0193368 %
hist_lookups_shortlat: 27.4622 %
bb_found_hist: 0 2486451 1209707 438795 239394 124092 71024 32402 4926 4911 0 560 0 4455 0 0 0 0 0 0 0 0 0 0 0 0 0 0 0 0 0 0 0 0 0 0 0 0 0 0 0 0 0 0 0 0 0 0 0 0 0 0 0 0 0 0 0 0 0 0 0 0 0 0 
bb_found_summary: 8600926 4616717 1.863
entangled_found_hist: 0 1224768 731823 2327194 563148 71537 33152 0 
entangled_found_summary: 12479185 4951622 2.52023
bb_ent_found_hist: 0 3943469 2458194 1048151 582542 216124 195112 83500 19713 2972 0 2666 0 16698 0 0 0 0 0 0 0 0 0 0 0 0 0 0 0 0 0 0 0 0 0 0 0 0 0 0 0 0 0 0 0 0 0 0 0 0 0 0 0 0 0 0 0 0 0 0 0 0 0 0 
bb_ent_found_summary: 17601122 8569141 2.05402
