WARNING: physical memory size is smaller than virtual memory size.

*** ChampSim Multicore Out-of-Order Simulator ***
Warmup Instructions: 30000000
Simulation Instructions: 100000000
Number of CPUs: 1
Page size: 4096

BTB:
Basic BTB sets: 1024 ways: 8
Indirect:
history lengths: 0 0 10 16 27 44 60 96 109 219 449 487 714 1313 2146 3881 
ITTAGE tables: 64768 bytes;Region table: 240 bytes;IUM: 384 bytes;Total Storage= 65392 bytes;
RAS:
RAS size: 64
[LLC] Demand IPV: 1 2 2 1 4 Prefetch IPV: 1 2 1 1 4
Berti Prefetcher
CPU 0 Entangling prefetcher
Off-chip DRAM Size: 8 GiB Channels: 2 Width: 64-bit Data Race: 6400 MT/s
Heartbeat CPU 0 instructions: 10000002 cycles: 1737246 heartbeat IPC: 5.756 cumulative IPC: 5.756 (Simulation time: 00 hr 00 min 54 sec)
Heartbeat CPU 0 instructions: 20000000 cycles: 3473070 heartbeat IPC: 5.761 cumulative IPC: 5.759 (Simulation time: 00 hr 01 min 46 sec)
Heartbeat CPU 0 instructions: 30000011 cycles: 5209264 heartbeat IPC: 5.76 cumulative IPC: 5.759 (Simulation time: 00 hr 02 min 31 sec)
Warmup finished CPU 0 instructions: 30000011 cycles: 5209265 cumulative IPC: 5.759 (Simulation time: 00 hr 02 min 31 sec)
Warmup complete CPU 0 instructions: 30000011 cycles: 5209265 cumulative IPC: 5.759 (Simulation time: 00 hr 02 min 31 sec)
*** Reached end of trace: (0, "../traces/public_traces/srv/srv_73.champsimtrace.xz")
Heartbeat CPU 0 instructions: 40000010 cycles: 8876200 heartbeat IPC: 2.727 cumulative IPC: 2.727 (Simulation time: 00 hr 03 min 42 sec)
Heartbeat CPU 0 instructions: 50000010 cycles: 12485149 heartbeat IPC: 2.771 cumulative IPC: 2.749 (Simulation time: 00 hr 04 min 44 sec)
Heartbeat CPU 0 instructions: 60000007 cycles: 16102324 heartbeat IPC: 2.765 cumulative IPC: 2.754 (Simulation time: 00 hr 05 min 52 sec)
*** Reached end of trace: (0, "../traces/public_traces/srv/srv_73.champsimtrace.xz")
Heartbeat CPU 0 instructions: 70000000 cycles: 19617915 heartbeat IPC: 2.844 cumulative IPC: 2.776 (Simulation time: 00 hr 07 min 01 sec)
Heartbeat CPU 0 instructions: 80000000 cycles: 23136450 heartbeat IPC: 2.842 cumulative IPC: 2.789 (Simulation time: 00 hr 08 min 10 sec)
Heartbeat CPU 0 instructions: 90000000 cycles: 26654438 heartbeat IPC: 2.843 cumulative IPC: 2.798 (Simulation time: 00 hr 09 min 20 sec)
*** Reached end of trace: (0, "../traces/public_traces/srv/srv_73.champsimtrace.xz")
Heartbeat CPU 0 instructions: 100000004 cycles: 30122493 heartbeat IPC: 2.883 cumulative IPC: 2.81 (Simulation time: 00 hr 10 min 25 sec)
Heartbeat CPU 0 instructions: 110000001 cycles: 33580294 heartbeat IPC: 2.892 cumulative IPC: 2.82 (Simulation time: 00 hr 11 min 29 sec)
Heartbeat CPU 0 instructions: 120000000 cycles: 37056197 heartbeat IPC: 2.877 cumulative IPC: 2.826 (Simulation time: 00 hr 12 min 35 sec)
*** Reached end of trace: (0, "../traces/public_traces/srv/srv_73.champsimtrace.xz")
Heartbeat CPU 0 instructions: 130000006 cycles: 40505200 heartbeat IPC: 2.899 cumulative IPC: 2.833 (Simulation time: 00 hr 13 min 38 sec)
Simulation finished CPU 0 instructions: 100000007 cycles: 35295937 cumulative IPC: 2.833 (Simulation time: 00 hr 13 min 38 sec)
Simulation complete CPU 0 instructions: 100000007 cycles: 35295937 cumulative IPC: 2.833 (Simulation time: 00 hr 13 min 38 sec)

ChampSim completed all CPUs

=== Simulation ===
CPU 0 runs ../traces/public_traces/srv/srv_73.champsimtrace.xz
Region of Interest Statistics

CPU 0 cumulative IPC: 2.833 instructions: 100000007 cycles: 35295937
CPU 0 Branch Prediction Accuracy: 95.6% MPKI: 7.933 Average ROB Occupancy at Mispredict: 50.26
Branch type MPKI
BRANCH_DIRECT_JUMP: 0.411
BRANCH_INDIRECT: 3.38
BRANCH_CONDITIONAL: 1.21
BRANCH_DIRECT_CALL: 1.52
BRANCH_INDIRECT_CALL: 0.241
BRANCH_RETURN: 1.18

LLC TOTAL        ACCESS:     170812 HIT:     151053 MISS:      19759
LLC LOAD         ACCESS:      73935 HIT:      63771 MISS:      10164
LLC RFO          ACCESS:      15272 HIT:      15119 MISS:        153
LLC PREFETCH     ACCESS:      48536 HIT:      42244 MISS:       6292
LLC WRITE        ACCESS:      18028 HIT:      17873 MISS:        155
LLC TRANSLATION  ACCESS:      15041 HIT:      12046 MISS:       2995
LLC PREFETCH REQUESTED:          0 ISSUED:          0 USEFUL:          0 USELESS:          0
LLC AVERAGE MISS LATENCY: 141.8 cycles
cpu0_DTLB TOTAL        ACCESS:   19420714 HIT:   18213624 MISS:    1207090
cpu0_DTLB LOAD         ACCESS:   19420714 HIT:   18213624 MISS:    1207090
cpu0_DTLB RFO          ACCESS:          0 HIT:          0 MISS:          0
cpu0_DTLB PREFETCH     ACCESS:          0 HIT:          0 MISS:          0
cpu0_DTLB WRITE        ACCESS:          0 HIT:          0 MISS:          0
cpu0_DTLB TRANSLATION  ACCESS:          0 HIT:          0 MISS:          0
cpu0_DTLB PREFETCH REQUESTED:          0 ISSUED:          0 USEFUL:          0 USELESS:          0
cpu0_DTLB AVERAGE MISS LATENCY: 5.323 cycles
cpu0_ITLB TOTAL        ACCESS:   21640547 HIT:   20686239 MISS:     954308
cpu0_ITLB LOAD         ACCESS:   21640547 HIT:   20686239 MISS:     954308
cpu0_ITLB RFO          ACCESS:          0 HIT:          0 MISS:          0
cpu0_ITLB PREFETCH     ACCESS:          0 HIT:          0 MISS:          0
cpu0_ITLB WRITE        ACCESS:          0 HIT:          0 MISS:          0
cpu0_ITLB TRANSLATION  ACCESS:          0 HIT:          0 MISS:          0
cpu0_ITLB PREFETCH REQUESTED:          0 ISSUED:          0 USEFUL:          0 USELESS:          0
cpu0_ITLB AVERAGE MISS LATENCY: 3.911 cycles
cpu0_L1D TOTAL        ACCESS:   29869376 HIT:   24898030 MISS:    4971346
cpu0_L1D LOAD         ACCESS:   16528861 HIT:   13524664 MISS:    3004197
cpu0_L1D RFO          ACCESS:          0 HIT:          0 MISS:          0
cpu0_L1D PREFETCH     ACCESS:      93399 HIT:      57142 MISS:      36257
cpu0_L1D WRITE        ACCESS:   13223380 HIT:   11315449 MISS:    1907931
cpu0_L1D TRANSLATION  ACCESS:      23736 HIT:        775 MISS:      22961
cpu0_L1D PREFETCH REQUESTED:     772980 ISSUED:      93399 USEFUL:       1122 USELESS:        526
cpu0_L1D AVERAGE MISS LATENCY: 7.084 cycles
cpu0_L1I TOTAL        ACCESS:   31581600 HIT:   24258137 MISS:    7323463
cpu0_L1I LOAD         ACCESS:   10780472 HIT:    9249884 MISS:    1530588
cpu0_L1I RFO          ACCESS:          0 HIT:          0 MISS:          0
cpu0_L1I PREFETCH     ACCESS:   20801128 HIT:   15008253 MISS:    5792875
cpu0_L1I WRITE        ACCESS:          0 HIT:          0 MISS:          0
cpu0_L1I TRANSLATION  ACCESS:          0 HIT:          0 MISS:          0
cpu0_L1I PREFETCH REQUESTED:   33816517 ISSUED:   20801129 USEFUL:    4671871 USELESS:     942165
cpu0_L1I AVERAGE MISS LATENCY: 10.98 cycles
cpu0_L2C TOTAL        ACCESS:   18318968 HIT:   18142308 MISS:     176660
cpu0_L2C LOAD         ACCESS:    3172531 HIT:    3097021 MISS:      75510
cpu0_L2C RFO          ACCESS:     594996 HIT:     579703 MISS:      15293
cpu0_L2C PREFETCH     ACCESS:   13380686 HIT:   13309871 MISS:      70815
cpu0_L2C WRITE        ACCESS:    1147900 HIT:    1147899 MISS:          1
cpu0_L2C TRANSLATION  ACCESS:      22855 HIT:       7814 MISS:      15041
cpu0_L2C PREFETCH REQUESTED:    8802904 ISSUED:    7750295 USEFUL:       6883 USELESS:      34077
cpu0_L2C AVERAGE MISS LATENCY: 33.09 cycles
cpu0_STLB TOTAL        ACCESS:    1360020 HIT:    1344037 MISS:      15983
cpu0_STLB LOAD         ACCESS:    1360020 HIT:    1344037 MISS:      15983
cpu0_STLB RFO          ACCESS:          0 HIT:          0 MISS:          0
cpu0_STLB PREFETCH     ACCESS:          0 HIT:          0 MISS:          0
cpu0_STLB WRITE        ACCESS:          0 HIT:          0 MISS:          0
cpu0_STLB TRANSLATION  ACCESS:          0 HIT:          0 MISS:          0
cpu0_STLB PREFETCH REQUESTED:          0 ISSUED:          0 USEFUL:          0 USELESS:          0
cpu0_STLB AVERAGE MISS LATENCY: 74.73 cycles

DRAM Statistics

Channel 0 RQ ROW_BUFFER_HIT:       2251
  ROW_BUFFER_MISS:       8297
 AVG DBUS CONGESTED CYCLE: 3.233
WQ ROW_BUFFER_HIT: Channel 0 
  ROW_BUFFER_MISS:         13
  FULL:         51

Channel 1 RQ ROW_BUFFER_HIT:       2009
  ROW_BUFFER_MISS:       7047
 AVG DBUS CONGESTED CYCLE: 3.133
WQ ROW_BUFFER_HIT: Channel 1 
  ROW_BUFFER_MISS:          5
  FULL:         41
BERTI TO_L1: 90289 TO_L2: 1556685 TO_L2_BC_MSHR: 789465
BERTI AVG_LAT: 14.3461 NUM_TRACK_LATENCY: 2764794 NUM_CANT_TRACK_LATENCY: 0
BERTI CROSS_PAGE 459769 NO_CROSS_PAGE: 1187205
BERTI FOUND_BERTI: 1523917 NO_FOUND_BERTI: 20282686
BERTI AVERAGE_ISSUED: 2.27781
CPU 0 L1I Entangling prefetcher final stats
IP accesses: a3d2 28f480 45345 / 10796891
IP misses: 5641 159040 9998 / 1547007
IP hits: 0 0 0 / 0
IP late: 9cf1 273c40 3706 / 750916
IP wrong: e8ae 3a2b80 3760 / 935898
miss rate: 0.143283
coverage: 0
coverage_late: 0.4854
accuracy: 0
accuracy_late: 0.445169
discarded: 0
evicts entangled j table: 0
evicts entangled k table: 246602
max bb size: 13
formats: 106377 32316 122376 21956 10091 28215 0 
hist_lookups: 69184 111920 128621 141285 130284 105821 86081 65436 51929 42963 33432 24125 16374 7666 3194 0 105 235611 
hist_lookups_evict: 0.008373 %
hist_lookups_shortlat: 18.7883 %
bb_found_hist: 0 2712260 1166168 553624 199241 91043 91885 23782 10771 1559 6219 4598 0 1411 0 0 0 0 0 0 0 0 0 0 0 0 0 0 0 0 0 0 0 0 0 0 0 0 0 0 0 0 0 0 0 0 0 0 0 0 0 0 0 0 0 0 0 0 0 0 0 0 0 0 
bb_found_summary: 8906741 4862561 1.8317
entangled_found_hist: 0 1734120 1371452 2160112 271453 71024 21899 0 
entangled_found_summary: 12529686 5630060 2.2255
bb_ent_found_hist: 0 3743880 2398735 1099677 447139 172093 195107 95286 27064 7613 13036 28852 0 12605 0 0 0 0 0 0 0 0 0 0 0 0 0 0 0 0 0 0 0 0 0 0 0 0 0 0 0 0 0 0 0 0 0 0 0 0 0 0 0 0 0 0 0 0 0 0 0 0 0 0 
bb_ent_found_summary: 17223672 8241087 2.08998
