WARNING: physical memory size is smaller than virtual memory size.

*** ChampSim Multicore Out-of-Order Simulator ***
Warmup Instructions: 30000000
Simulation Instructions: 100000000
Number of CPUs: 1
Page size: 4096

BTB:
Basic BTB sets: 1024 ways: 8
Indirect:
history lengths: 0 0 10 16 27 44 60 96 109 219 449 487 714 1313 2146 3881 
ITTAGE tables: 64768 bytes;Region table: 240 bytes;IUM: 384 bytes;Total Storage= 65392 bytes;
RAS:
RAS size: 64
[LLC] Demand IPV: 1 2 2 1 4 Prefetch IPV: 1 2 1 1 4
Berti Prefetcher
CPU 0 Entangling prefetcher
Off-chip DRAM Size: 8 GiB Channels: 2 Width: 64-bit Data Race: 6400 MT/s
Heartbeat CPU 0 instructions: 10000001 cycles: 1726331 heartbeat IPC: 5.793 cumulative IPC: 5.793 (Simulation time: 00 hr 00 min 41 sec)
Heartbeat CPU 0 instructions: 20000000 cycles: 3451767 heartbeat IPC: 5.796 cumulative IPC: 5.794 (Simulation time: 00 hr 01 min 23 sec)
Heartbeat CPU 0 instructions: 30000000 cycles: 5177647 heartbeat IPC: 5.794 cumulative IPC: 5.794 (Simulation time: 00 hr 02 min 05 sec)
Warmup finished CPU 0 instructions: 30000000 cycles: 5177648 cumulative IPC: 5.794 (Simulation time: 00 hr 02 min 05 sec)
Warmup complete CPU 0 instructions: 30000000 cycles: 5177648 cumulative IPC: 5.794 (Simulation time: 00 hr 02 min 05 sec)
*** Reached end of trace: (0, "../traces/public_traces/srv/srv_30.champsimtrace.xz")
Heartbeat CPU 0 instructions: 40000004 cycles: 7920036 heartbeat IPC: 3.646 cumulative IPC: 3.646 (Simulation time: 00 hr 03 min 01 sec)
Heartbeat CPU 0 instructions: 50000002 cycles: 10722394 heartbeat IPC: 3.568 cumulative IPC: 3.607 (Simulation time: 00 hr 04 min 01 sec)
Heartbeat CPU 0 instructions: 60000001 cycles: 13549564 heartbeat IPC: 3.537 cumulative IPC: 3.583 (Simulation time: 00 hr 04 min 59 sec)
*** Reached end of trace: (0, "../traces/public_traces/srv/srv_30.champsimtrace.xz")
Heartbeat CPU 0 instructions: 70000001 cycles: 16205765 heartbeat IPC: 3.765 cumulative IPC: 3.627 (Simulation time: 00 hr 05 min 55 sec)
Heartbeat CPU 0 instructions: 80000000 cycles: 18885609 heartbeat IPC: 3.732 cumulative IPC: 3.648 (Simulation time: 00 hr 06 min 54 sec)
Heartbeat CPU 0 instructions: 90000005 cycles: 21667378 heartbeat IPC: 3.595 cumulative IPC: 3.639 (Simulation time: 00 hr 07 min 52 sec)
*** Reached end of trace: (0, "../traces/public_traces/srv/srv_30.champsimtrace.xz")
Heartbeat CPU 0 instructions: 100000009 cycles: 24297198 heartbeat IPC: 3.803 cumulative IPC: 3.661 (Simulation time: 00 hr 08 min 48 sec)
Heartbeat CPU 0 instructions: 110000004 cycles: 26911089 heartbeat IPC: 3.826 cumulative IPC: 3.681 (Simulation time: 00 hr 09 min 43 sec)
Heartbeat CPU 0 instructions: 120000006 cycles: 29648654 heartbeat IPC: 3.653 cumulative IPC: 3.678 (Simulation time: 00 hr 10 min 40 sec)
*** Reached end of trace: (0, "../traces/public_traces/srv/srv_30.champsimtrace.xz")
Heartbeat CPU 0 instructions: 130000011 cycles: 32300352 heartbeat IPC: 3.771 cumulative IPC: 3.687 (Simulation time: 00 hr 11 min 35 sec)
Simulation finished CPU 0 instructions: 100000011 cycles: 27122705 cumulative IPC: 3.687 (Simulation time: 00 hr 11 min 35 sec)
Simulation complete CPU 0 instructions: 100000011 cycles: 27122705 cumulative IPC: 3.687 (Simulation time: 00 hr 11 min 35 sec)

ChampSim completed all CPUs

=== Simulation ===
CPU 0 runs ../traces/public_traces/srv/srv_30.champsimtrace.xz
Region of Interest Statistics

CPU 0 cumulative IPC: 3.687 instructions: 100000011 cycles: 27122705
CPU 0 Branch Prediction Accuracy: 99.82% MPKI: 0.3262 Average ROB Occupancy at Mispredict: 152.3
Branch type MPKI
BRANCH_DIRECT_JUMP: 2e-05
BRANCH_INDIRECT: 0.222
BRANCH_CONDITIONAL: 0.104
BRANCH_DIRECT_CALL: 3e-05
BRANCH_INDIRECT_CALL: 3e-05
BRANCH_RETURN: 0.0002

LLC TOTAL        ACCESS:     402806 HIT:     258003 MISS:     144803
LLC LOAD         ACCESS:     127112 HIT:      63337 MISS:      63775
LLC RFO          ACCESS:      55751 HIT:      53589 MISS:       2162
LLC PREFETCH     ACCESS:     114935 HIT:      54970 MISS:      59965
LLC WRITE        ACCESS:      75997 HIT:      73967 MISS:       2030
LLC TRANSLATION  ACCESS:      29011 HIT:      12140 MISS:      16871
LLC PREFETCH REQUESTED:          0 ISSUED:          0 USEFUL:          0 USELESS:          0
LLC AVERAGE MISS LATENCY: 146.3 cycles
cpu0_DTLB TOTAL        ACCESS:   16808494 HIT:   15921673 MISS:     886821
cpu0_DTLB LOAD         ACCESS:   16808494 HIT:   15921673 MISS:     886821
cpu0_DTLB RFO          ACCESS:          0 HIT:          0 MISS:          0
cpu0_DTLB PREFETCH     ACCESS:          0 HIT:          0 MISS:          0
cpu0_DTLB WRITE        ACCESS:          0 HIT:          0 MISS:          0
cpu0_DTLB TRANSLATION  ACCESS:          0 HIT:          0 MISS:          0
cpu0_DTLB PREFETCH REQUESTED:          0 ISSUED:          0 USEFUL:          0 USELESS:          0
cpu0_DTLB AVERAGE MISS LATENCY: 9.588 cycles
cpu0_ITLB TOTAL        ACCESS:   15961896 HIT:   15960513 MISS:       1383
cpu0_ITLB LOAD         ACCESS:   15961896 HIT:   15960513 MISS:       1383
cpu0_ITLB RFO          ACCESS:          0 HIT:          0 MISS:          0
cpu0_ITLB PREFETCH     ACCESS:          0 HIT:          0 MISS:          0
cpu0_ITLB WRITE        ACCESS:          0 HIT:          0 MISS:          0
cpu0_ITLB TRANSLATION  ACCESS:          0 HIT:          0 MISS:          0
cpu0_ITLB PREFETCH REQUESTED:          0 ISSUED:          0 USEFUL:          0 USELESS:          0
cpu0_ITLB AVERAGE MISS LATENCY: 51.92 cycles
cpu0_L1D TOTAL        ACCESS:   29047286 HIT:   28075575 MISS:     971711
cpu0_L1D LOAD         ACCESS:   15742703 HIT:   15287073 MISS:     455630
cpu0_L1D RFO          ACCESS:          0 HIT:          0 MISS:          0
cpu0_L1D PREFETCH     ACCESS:    1213673 HIT:    1081178 MISS:     132495
cpu0_L1D WRITE        ACCESS:   12040112 HIT:   11702224 MISS:     337888
cpu0_L1D TRANSLATION  ACCESS:      50798 HIT:       5100 MISS:      45698
cpu0_L1D PREFETCH REQUESTED:    2484497 ISSUED:    1213649 USEFUL:      14858 USELESS:       6144
cpu0_L1D AVERAGE MISS LATENCY: 20.68 cycles
cpu0_L1I TOTAL        ACCESS:   23190434 HIT:   22694167 MISS:     496267
cpu0_L1I LOAD         ACCESS:   10201974 HIT:    9836945 MISS:     365029
cpu0_L1I RFO          ACCESS:          0 HIT:          0 MISS:          0
cpu0_L1I PREFETCH     ACCESS:   12988460 HIT:   12857222 MISS:     131238
cpu0_L1I WRITE        ACCESS:          0 HIT:          0 MISS:          0
cpu0_L1I TRANSLATION  ACCESS:          0 HIT:          0 MISS:          0
cpu0_L1I PREFETCH REQUESTED:   30232399 ISSUED:   12988460 USEFUL:      96204 USELESS:      19288
cpu0_L1I AVERAGE MISS LATENCY: 9.413 cycles
cpu0_L2C TOTAL        ACCESS:    1320225 HIT:     886166 MISS:     434059
cpu0_L2C LOAD         ACCESS:     428382 HIT:     295206 MISS:     133176
cpu0_L2C RFO          ACCESS:      65358 HIT:       9581 MISS:      55777
cpu0_L2C PREFETCH     ACCESS:     688716 HIT:     472773 MISS:     215943
cpu0_L2C WRITE        ACCESS:      92571 HIT:      92419 MISS:        152
cpu0_L2C TRANSLATION  ACCESS:      45198 HIT:      16187 MISS:      29011
cpu0_L2C PREFETCH REQUESTED:     641050 ISSUED:     476048 USEFUL:      13108 USELESS:      70718
cpu0_L2C AVERAGE MISS LATENCY: 63.55 cycles
cpu0_STLB TOTAL        ACCESS:     667840 HIT:     633507 MISS:      34333
cpu0_STLB LOAD         ACCESS:     667840 HIT:     633507 MISS:      34333
cpu0_STLB RFO          ACCESS:          0 HIT:          0 MISS:          0
cpu0_STLB PREFETCH     ACCESS:          0 HIT:          0 MISS:          0
cpu0_STLB WRITE        ACCESS:          0 HIT:          0 MISS:          0
cpu0_STLB TRANSLATION  ACCESS:          0 HIT:          0 MISS:          0
cpu0_STLB PREFETCH REQUESTED:          0 ISSUED:          0 USEFUL:          0 USELESS:          0
cpu0_STLB AVERAGE MISS LATENCY: 118.3 cycles

DRAM Statistics

Channel 0 RQ ROW_BUFFER_HIT:      15613
  ROW_BUFFER_MISS:      57119
 AVG DBUS CONGESTED CYCLE: 3.661
WQ ROW_BUFFER_HIT: Channel 0 
  ROW_BUFFER_MISS:        237
  FULL:        810

Channel 1 RQ ROW_BUFFER_HIT:      14592
  ROW_BUFFER_MISS:      55447
 AVG DBUS CONGESTED CYCLE: 3.637
WQ ROW_BUFFER_HIT: Channel 1 
  ROW_BUFFER_MISS:        208
  FULL:        758
BERTI TO_L1: 2279967 TO_L2: 3003799 TO_L2_BC_MSHR: 110772
BERTI AVG_LAT: 66.1214 NUM_TRACK_LATENCY: 260932 NUM_CANT_TRACK_LATENCY: 0
BERTI CROSS_PAGE 114606 NO_CROSS_PAGE: 5169160
BERTI FOUND_BERTI: 2935392 NO_FOUND_BERTI: 18560922
BERTI AVERAGE_ISSUED: 3.43074
CPU 0 L1I Entangling prefetcher final stats
IP accesses: 5cd0 173400 572932 / 10210351
IP misses: 13c3 4f0c0 1664 / 373406
IP hits: 0 0 0 / 0
IP late: 9d3d 274f40 512 / 157592
IP wrong: 5a3c 168f00 345 / 18819
miss rate: 0.0365714
coverage: 0
coverage_late: 0.42204
accuracy: 0
accuracy_late: 0.893323
discarded: 0
evicts entangled j table: 0
evicts entangled k table: 33907
max bb size: 18
formats: 5010 0 23173 7427 3362 5318 0 
hist_lookups: 3991 10969 18611 24514 24200 20140 15345 12112 10704 9957 7938 5497 3381 1720 477 0 48 58182 
hist_lookups_evict: 0.0210725 %
hist_lookups_shortlat: 25.5424 %
bb_found_hist: 0 2787988 1039859 369714 198501 35849 81090 2249 394 378 350 0 0 375 0 0 0 0 13 0 0 0 0 0 0 0 0 0 0 0 0 0 0 0 0 0 0 0 0 0 0 0 0 0 0 0 0 0 0 0 0 0 0 0 0 0 0 0 0 0 0 0 0 0 
bb_found_summary: 7467543 4516760 1.6533
entangled_found_hist: 0 1507597 663808 1322634 848510 18035 2077 0 
entangled_found_summary: 10299792 4362661 2.3609
bb_ent_found_hist: 0 2730511 2333564 908549 174065 19083 310026 5231 2660 14 1093 0 0 1265 0 0 0 0 40 0 0 0 0 0 0 0 0 0 0 0 0 0 0 0 0 0 0 0 0 0 0 0 0 0 0 0 0 0 0 0 0 0 0 0 0 0 0 0 0 0 0 0 0 0 
bb_ent_found_summary: 12861235 6486101 1.9829
