WARNING: physical memory size is smaller than virtual memory size.

*** ChampSim Multicore Out-of-Order Simulator ***
Warmup Instructions: 30000000
Simulation Instructions: 100000000
Number of CPUs: 1
Page size: 4096

BTB:
Basic BTB sets: 1024 ways: 8
Indirect:
history lengths: 0 0 10 16 27 44 60 96 109 219 449 487 714 1313 2146 3881 
ITTAGE tables: 64768 bytes;Region table: 240 bytes;IUM: 384 bytes;Total Storage= 65392 bytes;
RAS:
RAS size: 64
[LLC] Demand IPV: 1 2 2 1 4 Prefetch IPV: 1 2 1 1 4
Berti Prefetcher
CPU 0 Entangling prefetcher
Off-chip DRAM Size: 8 GiB Channels: 2 Width: 64-bit Data Race: 6400 MT/s
Heartbeat CPU 0 instructions: 10000005 cycles: 2094509 heartbeat IPC: 4.774 cumulative IPC: 4.774 (Simulation time: 00 hr 00 min 54 sec)
Heartbeat CPU 0 instructions: 20000001 cycles: 4196352 heartbeat IPC: 4.758 cumulative IPC: 4.766 (Simulation time: 00 hr 01 min 42 sec)
Heartbeat CPU 0 instructions: 30000007 cycles: 6309617 heartbeat IPC: 4.732 cumulative IPC: 4.755 (Simulation time: 00 hr 02 min 32 sec)
Warmup finished CPU 0 instructions: 30000007 cycles: 6309618 cumulative IPC: 4.755 (Simulation time: 00 hr 02 min 32 sec)
Warmup complete CPU 0 instructions: 30000007 cycles: 6309618 cumulative IPC: 4.755 (Simulation time: 00 hr 02 min 32 sec)
*** Reached end of trace: (0, "../traces/public_traces/srv/srv_35.champsimtrace.xz")
Heartbeat CPU 0 instructions: 40000002 cycles: 11695981 heartbeat IPC: 1.857 cumulative IPC: 1.857 (Simulation time: 00 hr 04 min 24 sec)
Heartbeat CPU 0 instructions: 50000000 cycles: 17702987 heartbeat IPC: 1.665 cumulative IPC: 1.755 (Simulation time: 00 hr 06 min 01 sec)
Heartbeat CPU 0 instructions: 60000003 cycles: 23834227 heartbeat IPC: 1.631 cumulative IPC: 1.712 (Simulation time: 00 hr 07 min 44 sec)
*** Reached end of trace: (0, "../traces/public_traces/srv/srv_35.champsimtrace.xz")
Heartbeat CPU 0 instructions: 70000001 cycles: 29251748 heartbeat IPC: 1.846 cumulative IPC: 1.744 (Simulation time: 00 hr 09 min 18 sec)
Heartbeat CPU 0 instructions: 80000000 cycles: 35201625 heartbeat IPC: 1.681 cumulative IPC: 1.731 (Simulation time: 00 hr 11 min 18 sec)
Heartbeat CPU 0 instructions: 90000001 cycles: 41244733 heartbeat IPC: 1.655 cumulative IPC: 1.717 (Simulation time: 00 hr 13 min 07 sec)
*** Reached end of trace: (0, "../traces/public_traces/srv/srv_35.champsimtrace.xz")
Heartbeat CPU 0 instructions: 100000000 cycles: 46826046 heartbeat IPC: 1.792 cumulative IPC: 1.728 (Simulation time: 00 hr 14 min 56 sec)
Heartbeat CPU 0 instructions: 110000002 cycles: 52634990 heartbeat IPC: 1.721 cumulative IPC: 1.727 (Simulation time: 00 hr 16 min 47 sec)
Heartbeat CPU 0 instructions: 120000000 cycles: 58706946 heartbeat IPC: 1.647 cumulative IPC: 1.718 (Simulation time: 00 hr 18 min 41 sec)
*** Reached end of trace: (0, "../traces/public_traces/srv/srv_35.champsimtrace.xz")
Heartbeat CPU 0 instructions: 130000006 cycles: 64602759 heartbeat IPC: 1.696 cumulative IPC: 1.715 (Simulation time: 00 hr 20 min 27 sec)
Simulation finished CPU 0 instructions: 100000002 cycles: 58293143 cumulative IPC: 1.715 (Simulation time: 00 hr 20 min 27 sec)
Simulation complete CPU 0 instructions: 100000002 cycles: 58293143 cumulative IPC: 1.715 (Simulation time: 00 hr 20 min 27 sec)

ChampSim completed all CPUs

=== Simulation ===
CPU 0 runs ../traces/public_traces/srv/srv_35.champsimtrace.xz
Region of Interest Statistics

CPU 0 cumulative IPC: 1.715 instructions: 100000002 cycles: 58293143
CPU 0 Branch Prediction Accuracy: 99.87% MPKI: 0.1989 Average ROB Occupancy at Mispredict: 220.1
Branch type MPKI
BRANCH_DIRECT_JUMP: 0.00046
BRANCH_INDIRECT: 0.144
BRANCH_CONDITIONAL: 0.0506
BRANCH_DIRECT_CALL: 0.00147
BRANCH_INDIRECT_CALL: 0.00013
BRANCH_RETURN: 0.00182

LLC TOTAL        ACCESS:    4702268 HIT:    1794041 MISS:    2908227
LLC LOAD         ACCESS:     473875 HIT:     326465 MISS:     147410
LLC RFO          ACCESS:    1589316 HIT:     497529 MISS:    1091787
LLC PREFETCH     ACCESS:     804945 HIT:     237814 MISS:     567131
LLC WRITE        ACCESS:    1820910 HIT:     731950 MISS:    1088960
LLC TRANSLATION  ACCESS:      13222 HIT:        283 MISS:      12939
LLC PREFETCH REQUESTED:          0 ISSUED:          0 USEFUL:          0 USELESS:          0
LLC AVERAGE MISS LATENCY: 182.9 cycles
cpu0_DTLB TOTAL        ACCESS:   18552301 HIT:   17518263 MISS:    1034038
cpu0_DTLB LOAD         ACCESS:   18552301 HIT:   17518263 MISS:    1034038
cpu0_DTLB RFO          ACCESS:          0 HIT:          0 MISS:          0
cpu0_DTLB PREFETCH     ACCESS:          0 HIT:          0 MISS:          0
cpu0_DTLB WRITE        ACCESS:          0 HIT:          0 MISS:          0
cpu0_DTLB TRANSLATION  ACCESS:          0 HIT:          0 MISS:          0
cpu0_DTLB PREFETCH REQUESTED:          0 ISSUED:          0 USEFUL:          0 USELESS:          0
cpu0_DTLB AVERAGE MISS LATENCY: 8.385 cycles
cpu0_ITLB TOTAL        ACCESS:   14745868 HIT:   14723954 MISS:      21914
cpu0_ITLB LOAD         ACCESS:   14745868 HIT:   14723954 MISS:      21914
cpu0_ITLB RFO          ACCESS:          0 HIT:          0 MISS:          0
cpu0_ITLB PREFETCH     ACCESS:          0 HIT:          0 MISS:          0
cpu0_ITLB WRITE        ACCESS:          0 HIT:          0 MISS:          0
cpu0_ITLB TRANSLATION  ACCESS:          0 HIT:          0 MISS:          0
cpu0_ITLB PREFETCH REQUESTED:          0 ISSUED:          0 USEFUL:          0 USELESS:          0
cpu0_ITLB AVERAGE MISS LATENCY: 27.63 cycles
cpu0_L1D TOTAL        ACCESS:   33841709 HIT:   20398301 MISS:   13443408
cpu0_L1D LOAD         ACCESS:   13348780 HIT:   10382640 MISS:    2966140
cpu0_L1D RFO          ACCESS:          0 HIT:          0 MISS:          0
cpu0_L1D PREFETCH     ACCESS:    3462398 HIT:     982029 MISS:    2480369
cpu0_L1D WRITE        ACCESS:   16996120 HIT:    9020643 MISS:    7975477
cpu0_L1D TRANSLATION  ACCESS:      34411 HIT:      12989 MISS:      21422
cpu0_L1D PREFETCH REQUESTED:    9184014 ISSUED:    3462398 USEFUL:     330960 USELESS:      48687
cpu0_L1D AVERAGE MISS LATENCY: 36.78 cycles
cpu0_L1I TOTAL        ACCESS:   21443649 HIT:   15081609 MISS:    6362040
cpu0_L1I LOAD         ACCESS:   11183297 HIT:    6482706 MISS:    4700591
cpu0_L1I RFO          ACCESS:          0 HIT:          0 MISS:          0
cpu0_L1I PREFETCH     ACCESS:   10260352 HIT:    8598903 MISS:    1661449
cpu0_L1I WRITE        ACCESS:          0 HIT:          0 MISS:          0
cpu0_L1I TRANSLATION  ACCESS:          0 HIT:          0 MISS:          0
cpu0_L1I PREFETCH REQUESTED:   33191934 ISSUED:   10260350 USEFUL:    1343433 USELESS:     151602
cpu0_L1I AVERAGE MISS LATENCY: 9.785 cycles
cpu0_L2C TOTAL        ACCESS:   17459121 HIT:   12439829 MISS:    5019292
cpu0_L2C LOAD         ACCESS:    4455826 HIT:    3902110 MISS:     553716
cpu0_L2C RFO          ACCESS:    1819172 HIT:     229514 MISS:    1589658
cpu0_L2C PREFETCH     ACCESS:    8983312 HIT:    6120634 MISS:    2862678
cpu0_L2C WRITE        ACCESS:    2179550 HIT:    2179532 MISS:         18
cpu0_L2C TRANSLATION  ACCESS:      21261 HIT:       8039 MISS:      13222
cpu0_L2C PREFETCH REQUESTED:    7853807 ISSUED:    5593599 USEFUL:     105012 USELESS:     181376
cpu0_L2C AVERAGE MISS LATENCY: 115.3 cycles
cpu0_STLB TOTAL        ACCESS:     510233 HIT:     479488 MISS:      30745
cpu0_STLB LOAD         ACCESS:     510233 HIT:     479488 MISS:      30745
cpu0_STLB RFO          ACCESS:          0 HIT:          0 MISS:          0
cpu0_STLB PREFETCH     ACCESS:          0 HIT:          0 MISS:          0
cpu0_STLB WRITE        ACCESS:          0 HIT:          0 MISS:          0
cpu0_STLB TRANSLATION  ACCESS:          0 HIT:          0 MISS:          0
cpu0_STLB PREFETCH REQUESTED:          0 ISSUED:          0 USEFUL:          0 USELESS:          0
cpu0_STLB AVERAGE MISS LATENCY: 235 cycles

DRAM Statistics

Channel 0 RQ ROW_BUFFER_HIT:     415117
  ROW_BUFFER_MISS:     506515
 AVG DBUS CONGESTED CYCLE: 3.948
WQ ROW_BUFFER_HIT: Channel 0 
  ROW_BUFFER_MISS:      75845
  FULL:     492258

Channel 1 RQ ROW_BUFFER_HIT:     413425
  ROW_BUFFER_MISS:     484136
 AVG DBUS CONGESTED CYCLE: 3.939
WQ ROW_BUFFER_HIT: Channel 1 
  ROW_BUFFER_MISS:      82781
  FULL:     470147
BERTI TO_L1: 3465419 TO_L2: 8692054 TO_L2_BC_MSHR: 3929862
BERTI AVG_LAT: 78.0608 NUM_TRACK_LATENCY: 2133794 NUM_CANT_TRACK_LATENCY: 0
BERTI CROSS_PAGE 1591628 NO_CROSS_PAGE: 10565845
BERTI FOUND_BERTI: 3548668 NO_FOUND_BERTI: 15943002
BERTI AVERAGE_ISSUED: 4.79467
CPU 0 L1I Entangling prefetcher final stats
IP accesses: 5cd0 173400 136028 / 11283608
IP misses: 13dd 4f740 19899 / 4800902
IP hits: 0 0 0 / 0
IP late: 9d3d 274f40 8579 / 2043521
IP wrong: 5a3c 168f00 4405 / 146052
miss rate: 0.425476
coverage: 0
coverage_late: 0.425654
accuracy: 0
accuracy_late: 0.933297
discarded: 0
evicts entangled j table: 0
evicts entangled k table: 355810
max bb size: 13
formats: 65471 0 246756 88857 32100 48829 0 
hist_lookups: 49566 130554 237804 284092 274939 249567 178670 132564 123188 120295 96593 64375 41228 23590 7074 0 384 766022 
hist_lookups_evict: 0.0138105 %
hist_lookups_shortlat: 27.5498 %
bb_found_hist: 0 2430351 1188704 491545 232236 121306 69664 27885 6448 3046 0 464 0 4493 0 0 0 0 0 0 0 0 0 0 0 0 0 0 0 0 0 0 0 0 0 0 0 0 0 0 0 0 0 0 0 0 0 0 0 0 0 0 0 0 0 0 0 0 0 0 0 0 0 0 
bb_found_summary: 8573558 4576142 1.87354
entangled_found_hist: 0 1233383 726885 2259237 583934 87740 22732 0 
entangled_found_summary: 12375692 4913911 2.51851
bb_ent_found_hist: 0 3924110 2331838 1125317 590932 221296 219525 75781 21520 3958 0 2501 0 19827 0 0 0 0 0 0 0 0 0 0 0 0 0 0 0 0 0 0 0 0 0 0 0 0 0 0 0 0 0 0 0 0 0 0 0 0 0 0 0 0 0 0 0 0 0 0 0 0 0 0 
bb_ent_found_summary: 17774606 8536605 2.08217
