WARNING: physical memory size is smaller than virtual memory size.

*** ChampSim Multicore Out-of-Order Simulator ***
Warmup Instructions: 30000000
Simulation Instructions: 100000000
Number of CPUs: 1
Page size: 4096

BTB:
Basic BTB sets: 1024 ways: 8
Indirect:
history lengths: 0 0 10 16 27 44 60 96 109 219 449 487 714 1313 2146 3881 
ITTAGE tables: 64768 bytes;Region table: 240 bytes;IUM: 384 bytes;Total Storage= 65392 bytes;
RAS:
RAS size: 64
[LLC] Demand IPV: 1 2 2 1 4 Prefetch IPV: 1 2 1 1 4
Berti Prefetcher
CPU 0 Entangling prefetcher
Off-chip DRAM Size: 8 GiB Channels: 2 Width: 64-bit Data Race: 6400 MT/s
Heartbeat CPU 0 instructions: 10000002 cycles: 1725292 heartbeat IPC: 5.796 cumulative IPC: 5.796 (Simulation time: 00 hr 00 min 41 sec)
Heartbeat CPU 0 instructions: 20000000 cycles: 3449023 heartbeat IPC: 5.801 cumulative IPC: 5.799 (Simulation time: 00 hr 01 min 23 sec)
Heartbeat CPU 0 instructions: 30000000 cycles: 5175602 heartbeat IPC: 5.792 cumulative IPC: 5.796 (Simulation time: 00 hr 02 min 05 sec)
Warmup finished CPU 0 instructions: 30000000 cycles: 5175603 cumulative IPC: 5.796 (Simulation time: 00 hr 02 min 05 sec)
Warmup complete CPU 0 instructions: 30000000 cycles: 5175603 cumulative IPC: 5.796 (Simulation time: 00 hr 02 min 05 sec)
*** Reached end of trace: (0, "../traces/public_traces/srv/srv_27.champsimtrace.xz")
Heartbeat CPU 0 instructions: 40000000 cycles: 7960054 heartbeat IPC: 3.591 cumulative IPC: 3.591 (Simulation time: 00 hr 03 min 01 sec)
Heartbeat CPU 0 instructions: 50000001 cycles: 10667903 heartbeat IPC: 3.693 cumulative IPC: 3.641 (Simulation time: 00 hr 03 min 57 sec)
Heartbeat CPU 0 instructions: 60000010 cycles: 13466290 heartbeat IPC: 3.573 cumulative IPC: 3.619 (Simulation time: 00 hr 04 min 53 sec)
*** Reached end of trace: (0, "../traces/public_traces/srv/srv_27.champsimtrace.xz")
Heartbeat CPU 0 instructions: 70000005 cycles: 16127901 heartbeat IPC: 3.757 cumulative IPC: 3.652 (Simulation time: 00 hr 05 min 49 sec)
Heartbeat CPU 0 instructions: 80000009 cycles: 18735400 heartbeat IPC: 3.835 cumulative IPC: 3.687 (Simulation time: 00 hr 06 min 44 sec)
Heartbeat CPU 0 instructions: 90000009 cycles: 21470970 heartbeat IPC: 3.656 cumulative IPC: 3.682 (Simulation time: 00 hr 07 min 53 sec)
*** Reached end of trace: (0, "../traces/public_traces/srv/srv_27.champsimtrace.xz")
Heartbeat CPU 0 instructions: 100000008 cycles: 24131640 heartbeat IPC: 3.758 cumulative IPC: 3.693 (Simulation time: 00 hr 08 min 52 sec)
Heartbeat CPU 0 instructions: 110000000 cycles: 26667272 heartbeat IPC: 3.944 cumulative IPC: 3.722 (Simulation time: 00 hr 09 min 47 sec)
Heartbeat CPU 0 instructions: 120000008 cycles: 29368395 heartbeat IPC: 3.702 cumulative IPC: 3.72 (Simulation time: 00 hr 10 min 43 sec)
*** Reached end of trace: (0, "../traces/public_traces/srv/srv_27.champsimtrace.xz")
Heartbeat CPU 0 instructions: 130000001 cycles: 32038629 heartbeat IPC: 3.745 cumulative IPC: 3.723 (Simulation time: 00 hr 11 min 38 sec)
Simulation finished CPU 0 instructions: 100000001 cycles: 26863027 cumulative IPC: 3.723 (Simulation time: 00 hr 11 min 38 sec)
Simulation complete CPU 0 instructions: 100000001 cycles: 26863027 cumulative IPC: 3.723 (Simulation time: 00 hr 11 min 38 sec)

ChampSim completed all CPUs

=== Simulation ===
CPU 0 runs ../traces/public_traces/srv/srv_27.champsimtrace.xz
Region of Interest Statistics

CPU 0 cumulative IPC: 3.723 instructions: 100000001 cycles: 26863027
CPU 0 Branch Prediction Accuracy: 99.82% MPKI: 0.3323 Average ROB Occupancy at Mispredict: 151.5
Branch type MPKI
BRANCH_DIRECT_JUMP: 7e-05
BRANCH_INDIRECT: 0.225
BRANCH_CONDITIONAL: 0.107
BRANCH_DIRECT_CALL: 0.00015
BRANCH_INDIRECT_CALL: 1e-05
BRANCH_RETURN: 0.0003

LLC TOTAL        ACCESS:     385609 HIT:     252744 MISS:     132865
LLC LOAD         ACCESS:     125317 HIT:      66431 MISS:      58886
LLC RFO          ACCESS:      49872 HIT:      47656 MISS:       2216
LLC PREFETCH     ACCESS:     113801 HIT:      59301 MISS:      54500
LLC WRITE        ACCESS:      68488 HIT:      66940 MISS:       1548
LLC TRANSLATION  ACCESS:      28131 HIT:      12416 MISS:      15715
LLC PREFETCH REQUESTED:          0 ISSUED:          0 USEFUL:          0 USELESS:          0
LLC AVERAGE MISS LATENCY: 147.8 cycles
cpu0_DTLB TOTAL        ACCESS:   16809132 HIT:   16043718 MISS:     765414
cpu0_DTLB LOAD         ACCESS:   16809132 HIT:   16043718 MISS:     765414
cpu0_DTLB RFO          ACCESS:          0 HIT:          0 MISS:          0
cpu0_DTLB PREFETCH     ACCESS:          0 HIT:          0 MISS:          0
cpu0_DTLB WRITE        ACCESS:          0 HIT:          0 MISS:          0
cpu0_DTLB TRANSLATION  ACCESS:          0 HIT:          0 MISS:          0
cpu0_DTLB PREFETCH REQUESTED:          0 ISSUED:          0 USEFUL:          0 USELESS:          0
cpu0_DTLB AVERAGE MISS LATENCY: 10.03 cycles
cpu0_ITLB TOTAL        ACCESS:   15948506 HIT:   15947327 MISS:       1179
cpu0_ITLB LOAD         ACCESS:   15948506 HIT:   15947327 MISS:       1179
cpu0_ITLB RFO          ACCESS:          0 HIT:          0 MISS:          0
cpu0_ITLB PREFETCH     ACCESS:          0 HIT:          0 MISS:          0
cpu0_ITLB WRITE        ACCESS:          0 HIT:          0 MISS:          0
cpu0_ITLB TRANSLATION  ACCESS:          0 HIT:          0 MISS:          0
cpu0_ITLB PREFETCH REQUESTED:          0 ISSUED:          0 USEFUL:          0 USELESS:          0
cpu0_ITLB AVERAGE MISS LATENCY: 55.97 cycles
cpu0_L1D TOTAL        ACCESS:   29203481 HIT:   28257787 MISS:     945694
cpu0_L1D LOAD         ACCESS:   15689717 HIT:   15236660 MISS:     453057
cpu0_L1D RFO          ACCESS:          0 HIT:          0 MISS:          0
cpu0_L1D PREFETCH     ACCESS:    1439972 HIT:    1305481 MISS:     134491
cpu0_L1D WRITE        ACCESS:   12023988 HIT:   11710592 MISS:     313396
cpu0_L1D TRANSLATION  ACCESS:      49804 HIT:       5054 MISS:      44750
cpu0_L1D PREFETCH REQUESTED:    2867863 ISSUED:    1439972 USEFUL:      13503 USELESS:       5784
cpu0_L1D AVERAGE MISS LATENCY: 19.92 cycles
cpu0_L1I TOTAL        ACCESS:   23134600 HIT:   22631827 MISS:     502773
cpu0_L1I LOAD         ACCESS:   10183180 HIT:    9808954 MISS:     374226
cpu0_L1I RFO          ACCESS:          0 HIT:          0 MISS:          0
cpu0_L1I PREFETCH     ACCESS:   12951420 HIT:   12822873 MISS:     128547
cpu0_L1I WRITE        ACCESS:          0 HIT:          0 MISS:          0
cpu0_L1I TRANSLATION  ACCESS:          0 HIT:          0 MISS:          0
cpu0_L1I PREFETCH REQUESTED:   29637496 ISSUED:   12951418 USEFUL:      94505 USELESS:      19183
cpu0_L1I AVERAGE MISS LATENCY: 9.091 cycles
cpu0_L2C TOTAL        ACCESS:    1302553 HIT:     888453 MISS:     414100
cpu0_L2C LOAD         ACCESS:     433145 HIT:     301576 MISS:     131569
cpu0_L2C RFO          ACCESS:      58159 HIT:       8260 MISS:      49899
cpu0_L2C PREFETCH     ACCESS:     681851 HIT:     477498 MISS:     204353
cpu0_L2C WRITE        ACCESS:      85118 HIT:      84970 MISS:        148
cpu0_L2C TRANSLATION  ACCESS:      44280 HIT:      16149 MISS:      28131
cpu0_L2C PREFETCH REQUESTED:     643887 ISSUED:     471123 USEFUL:      13104 USELESS:      70901
cpu0_L2C AVERAGE MISS LATENCY: 62.44 cycles
cpu0_STLB TOTAL        ACCESS:     578724 HIT:     545237 MISS:      33487
cpu0_STLB LOAD         ACCESS:     578724 HIT:     545237 MISS:      33487
cpu0_STLB RFO          ACCESS:          0 HIT:          0 MISS:          0
cpu0_STLB PREFETCH     ACCESS:          0 HIT:          0 MISS:          0
cpu0_STLB WRITE        ACCESS:          0 HIT:          0 MISS:          0
cpu0_STLB TRANSLATION  ACCESS:          0 HIT:          0 MISS:          0
cpu0_STLB PREFETCH REQUESTED:          0 ISSUED:          0 USEFUL:          0 USELESS:          0
cpu0_STLB AVERAGE MISS LATENCY: 114.5 cycles

DRAM Statistics

Channel 0 RQ ROW_BUFFER_HIT:      13094
  ROW_BUFFER_MISS:      53716
 AVG DBUS CONGESTED CYCLE: 3.637
WQ ROW_BUFFER_HIT: Channel 0 
  ROW_BUFFER_MISS:        143
  FULL:        570

Channel 1 RQ ROW_BUFFER_HIT:      11906
  ROW_BUFFER_MISS:      52600
 AVG DBUS CONGESTED CYCLE: 3.588
WQ ROW_BUFFER_HIT: Channel 1 
  ROW_BUFFER_MISS:         95
  FULL:        462
BERTI TO_L1: 2813738 TO_L2: 2720312 TO_L2_BC_MSHR: 96003
BERTI AVG_LAT: 64.0918 NUM_TRACK_LATENCY: 250608 NUM_CANT_TRACK_LATENCY: 0
BERTI CROSS_PAGE 106147 NO_CROSS_PAGE: 5427903
BERTI FOUND_BERTI: 2891226 NO_FOUND_BERTI: 18549127
BERTI AVERAGE_ISSUED: 3.25739
CPU 0 L1I Entangling prefetcher final stats
IP accesses: 5cd0 173400 573942 / 10190262
IP misses: 13c3 4f0c0 1886 / 381308
IP hits: 0 0 0 / 0
IP late: 9d10 274400 497 / 159360
IP wrong: 5a3c 168f00 361 / 18744
miss rate: 0.0374189
coverage: 0
coverage_late: 0.41793
accuracy: 0
accuracy_late: 0.894759
discarded: 0
evicts entangled j table: 0
evicts entangled k table: 31954
max bb size: 13
formats: 4987 0 21365 7650 3181 5298 0 
hist_lookups: 4250 11848 19521 23701 23266 20449 14999 12224 10341 9476 7916 5619 3380 1889 502 0 48 58127 
hist_lookups_evict: 0.0210938 %
hist_lookups_shortlat: 25.5441 %
bb_found_hist: 0 2847213 938351 399923 161973 49208 80814 2389 398 2 365 0 0 380 0 0 0 0 0 0 0 0 0 0 0 0 0 0 0 0 0 0 0 0 0 0 0 0 0 0 0 0 0 0 0 0 0 0 0 0 0 0 0 0 0 0 0 0 0 0 0 0 0 0 
bb_found_summary: 7331015 4481016 1.63602
entangled_found_hist: 0 2092509 750971 1143674 763767 36036 2046 0 
entangled_found_summary: 10272997 4789003 2.14513
bb_ent_found_hist: 0 2908615 1900862 851003 195771 15957 368943 5690 2518 2 1456 0 0 1874 0 0 0 0 0 0 0 0 0 0 0 0 0 0 0 0 0 0 0 0 0 0 0 0 0 0 0 0 0 0 0 0 0 0 0 0 0 0 0 0 0 0 0 0 0 0 0 0 0 0 
bb_ent_found_summary: 12438789 6252691 1.98935
