WARNING: physical memory size is smaller than virtual memory size.

*** ChampSim Multicore Out-of-Order Simulator ***
Warmup Instructions: 30000000
Simulation Instructions: 100000000
Number of CPUs: 1
Page size: 4096

BTB:
Basic BTB sets: 1024 ways: 8
Indirect:
history lengths: 0 0 10 16 27 44 60 96 109 219 449 487 714 1313 2146 3881 
ITTAGE tables: 64768 bytes;Region table: 240 bytes;IUM: 384 bytes;Total Storage= 65392 bytes;
RAS:
RAS size: 64
[LLC] Demand IPV: 1 2 2 1 4 Prefetch IPV: 1 2 1 1 4
Berti Prefetcher
CPU 0 Entangling prefetcher
Off-chip DRAM Size: 8 GiB Channels: 2 Width: 64-bit Data Race: 6400 MT/s
Heartbeat CPU 0 instructions: 10000005 cycles: 1696939 heartbeat IPC: 5.893 cumulative IPC: 5.893 (Simulation time: 00 hr 00 min 40 sec)
Heartbeat CPU 0 instructions: 20000000 cycles: 3395940 heartbeat IPC: 5.886 cumulative IPC: 5.889 (Simulation time: 00 hr 01 min 21 sec)
Heartbeat CPU 0 instructions: 30000009 cycles: 5095001 heartbeat IPC: 5.886 cumulative IPC: 5.888 (Simulation time: 00 hr 02 min 01 sec)
Warmup finished CPU 0 instructions: 30000009 cycles: 5095002 cumulative IPC: 5.888 (Simulation time: 00 hr 02 min 01 sec)
Warmup complete CPU 0 instructions: 30000009 cycles: 5095002 cumulative IPC: 5.888 (Simulation time: 00 hr 02 min 01 sec)
*** Reached end of trace: (0, "../traces/public_traces/srv/srv_2.champsimtrace.xz")
Heartbeat CPU 0 instructions: 40000008 cycles: 8549619 heartbeat IPC: 2.895 cumulative IPC: 2.895 (Simulation time: 00 hr 02 min 59 sec)
Heartbeat CPU 0 instructions: 50000003 cycles: 11653225 heartbeat IPC: 3.222 cumulative IPC: 3.05 (Simulation time: 00 hr 03 min 55 sec)
Heartbeat CPU 0 instructions: 60000001 cycles: 15085923 heartbeat IPC: 2.913 cumulative IPC: 3.003 (Simulation time: 00 hr 04 min 53 sec)
*** Reached end of trace: (0, "../traces/public_traces/srv/srv_2.champsimtrace.xz")
Heartbeat CPU 0 instructions: 70000000 cycles: 18355032 heartbeat IPC: 3.059 cumulative IPC: 3.017 (Simulation time: 00 hr 05 min 50 sec)
Heartbeat CPU 0 instructions: 80000006 cycles: 21454477 heartbeat IPC: 3.226 cumulative IPC: 3.056 (Simulation time: 00 hr 06 min 46 sec)
Heartbeat CPU 0 instructions: 90000000 cycles: 24829841 heartbeat IPC: 2.963 cumulative IPC: 3.04 (Simulation time: 00 hr 07 min 48 sec)
*** Reached end of trace: (0, "../traces/public_traces/srv/srv_2.champsimtrace.xz")
Heartbeat CPU 0 instructions: 100000006 cycles: 28079527 heartbeat IPC: 3.077 cumulative IPC: 3.046 (Simulation time: 00 hr 08 min 47 sec)
Heartbeat CPU 0 instructions: 110000004 cycles: 31166830 heartbeat IPC: 3.239 cumulative IPC: 3.068 (Simulation time: 00 hr 09 min 43 sec)
Heartbeat CPU 0 instructions: 120000004 cycles: 34365165 heartbeat IPC: 3.127 cumulative IPC: 3.075 (Simulation time: 00 hr 10 min 39 sec)
*** Reached end of trace: (0, "../traces/public_traces/srv/srv_2.champsimtrace.xz")
Heartbeat CPU 0 instructions: 130000000 cycles: 37762980 heartbeat IPC: 2.943 cumulative IPC: 3.061 (Simulation time: 00 hr 11 min 37 sec)
Simulation finished CPU 0 instructions: 100000000 cycles: 32668010 cumulative IPC: 3.061 (Simulation time: 00 hr 11 min 37 sec)
Simulation complete CPU 0 instructions: 100000000 cycles: 32668010 cumulative IPC: 3.061 (Simulation time: 00 hr 11 min 37 sec)

ChampSim completed all CPUs

=== Simulation ===
CPU 0 runs ../traces/public_traces/srv/srv_2.champsimtrace.xz
Region of Interest Statistics

CPU 0 cumulative IPC: 3.061 instructions: 100000000 cycles: 32668010
CPU 0 Branch Prediction Accuracy: 96.7% MPKI: 5.897 Average ROB Occupancy at Mispredict: 46.37
Branch type MPKI
BRANCH_DIRECT_JUMP: 0.435
BRANCH_INDIRECT: 3.15
BRANCH_CONDITIONAL: 0.795
BRANCH_DIRECT_CALL: 0.823
BRANCH_INDIRECT_CALL: 0.0558
BRANCH_RETURN: 0.635

LLC TOTAL        ACCESS:     617516 HIT:     474472 MISS:     143044
LLC LOAD         ACCESS:     114149 HIT:      79957 MISS:      34192
LLC RFO          ACCESS:      29946 HIT:      24732 MISS:       5214
LLC PREFETCH     ACCESS:     289132 HIT:     224373 MISS:      64759
LLC WRITE        ACCESS:     135805 HIT:     121014 MISS:      14791
LLC TRANSLATION  ACCESS:      48484 HIT:      24396 MISS:      24088
LLC PREFETCH REQUESTED:          0 ISSUED:          0 USEFUL:          0 USELESS:          0
LLC AVERAGE MISS LATENCY: 141.3 cycles
cpu0_DTLB TOTAL        ACCESS:   16637816 HIT:   15601447 MISS:    1036369
cpu0_DTLB LOAD         ACCESS:   16637816 HIT:   15601447 MISS:    1036369
cpu0_DTLB RFO          ACCESS:          0 HIT:          0 MISS:          0
cpu0_DTLB PREFETCH     ACCESS:          0 HIT:          0 MISS:          0
cpu0_DTLB WRITE        ACCESS:          0 HIT:          0 MISS:          0
cpu0_DTLB TRANSLATION  ACCESS:          0 HIT:          0 MISS:          0
cpu0_DTLB PREFETCH REQUESTED:          0 ISSUED:          0 USEFUL:          0 USELESS:          0
cpu0_DTLB AVERAGE MISS LATENCY: 9.156 cycles
cpu0_ITLB TOTAL        ACCESS:   16477385 HIT:   15969428 MISS:     507957
cpu0_ITLB LOAD         ACCESS:   16477385 HIT:   15969428 MISS:     507957
cpu0_ITLB RFO          ACCESS:          0 HIT:          0 MISS:          0
cpu0_ITLB PREFETCH     ACCESS:          0 HIT:          0 MISS:          0
cpu0_ITLB WRITE        ACCESS:          0 HIT:          0 MISS:          0
cpu0_ITLB TRANSLATION  ACCESS:          0 HIT:          0 MISS:          0
cpu0_ITLB PREFETCH REQUESTED:          0 ISSUED:          0 USEFUL:          0 USELESS:          0
cpu0_ITLB AVERAGE MISS LATENCY: 6.183 cycles
cpu0_L1D TOTAL        ACCESS:   25184167 HIT:   22975050 MISS:    2209117
cpu0_L1D LOAD         ACCESS:   15017862 HIT:   13359617 MISS:    1658245
cpu0_L1D RFO          ACCESS:          0 HIT:          0 MISS:          0
cpu0_L1D PREFETCH     ACCESS:        571 HIT:        216 MISS:        355
cpu0_L1D WRITE        ACCESS:   10066623 HIT:    9607019 MISS:     459604
cpu0_L1D TRANSLATION  ACCESS:      99111 HIT:       8198 MISS:      90913
cpu0_L1D PREFETCH REQUESTED:        571 ISSUED:        571 USEFUL:          6 USELESS:          0
cpu0_L1D AVERAGE MISS LATENCY: 12.13 cycles
cpu0_L1I TOTAL        ACCESS:   24575810 HIT:   20632647 MISS:    3943163
cpu0_L1I LOAD         ACCESS:    8473331 HIT:    7193304 MISS:    1280027
cpu0_L1I RFO          ACCESS:          0 HIT:          0 MISS:          0
cpu0_L1I PREFETCH     ACCESS:   16102479 HIT:   13439343 MISS:    2663136
cpu0_L1I WRITE        ACCESS:          0 HIT:          0 MISS:          0
cpu0_L1I TRANSLATION  ACCESS:          0 HIT:          0 MISS:          0
cpu0_L1I PREFETCH REQUESTED:   40831745 ISSUED:   16102479 USEFUL:    1810525 USELESS:     738919
cpu0_L1I AVERAGE MISS LATENCY: 11.97 cycles
cpu0_L2C TOTAL        ACCESS:    9239899 HIT:    8666699 MISS:     573200
cpu0_L2C LOAD         ACCESS:    1956397 HIT:    1824299 MISS:     132098
cpu0_L2C RFO          ACCESS:     167473 HIT:     137117 MISS:      30356
cpu0_L2C PREFETCH     ACCESS:    6508694 HIT:    6146452 MISS:     362242
cpu0_L2C WRITE        ACCESS:     517161 HIT:     517141 MISS:         20
cpu0_L2C TRANSLATION  ACCESS:      90174 HIT:      41690 MISS:      48484
cpu0_L2C PREFETCH REQUESTED:    4506199 ISSUED:    3958860 USEFUL:      88225 USELESS:      94386
cpu0_L2C AVERAGE MISS LATENCY: 51.05 cycles
cpu0_STLB TOTAL        ACCESS:     975109 HIT:     907182 MISS:      67927
cpu0_STLB LOAD         ACCESS:     975109 HIT:     907182 MISS:      67927
cpu0_STLB RFO          ACCESS:          0 HIT:          0 MISS:          0
cpu0_STLB PREFETCH     ACCESS:          0 HIT:          0 MISS:          0
cpu0_STLB WRITE        ACCESS:          0 HIT:          0 MISS:          0
cpu0_STLB TRANSLATION  ACCESS:          0 HIT:          0 MISS:          0
cpu0_STLB PREFETCH REQUESTED:          0 ISSUED:          0 USEFUL:          0 USELESS:          0
cpu0_STLB AVERAGE MISS LATENCY: 99.71 cycles

DRAM Statistics

Channel 0 RQ ROW_BUFFER_HIT:      18658
  ROW_BUFFER_MISS:      47980
 AVG DBUS CONGESTED CYCLE: 3.806
WQ ROW_BUFFER_HIT: Channel 0 
  ROW_BUFFER_MISS:       3332
  FULL:      12404

Channel 1 RQ ROW_BUFFER_HIT:      17563
  ROW_BUFFER_MISS:      44052
 AVG DBUS CONGESTED CYCLE: 3.799
WQ ROW_BUFFER_HIT: Channel 1 
  ROW_BUFFER_MISS:       3000
  FULL:      11386
BERTI TO_L1: 6 TO_L2: 573 TO_L2_BC_MSHR: 0
BERTI AVG_LAT: 15.8794 NUM_TRACK_LATENCY: 1412410 NUM_CANT_TRACK_LATENCY: 0
BERTI CROSS_PAGE 36 NO_CROSS_PAGE: 543
BERTI FOUND_BERTI: 475150 NO_FOUND_BERTI: 19403335
BERTI AVERAGE_ISSUED: 1.48462
CPU 0 L1I Entangling prefetcher final stats
IP accesses: bfb3 2fecc0 99223 / 8516164
IP misses: 3a85 ea140 5947 / 1322860
IP hits: 0 0 0 / 0
IP late: 3a83 ea0c0 2263 / 568693
IP wrong: 3a86 ea180 1967 / 735581
miss rate: 0.155336
coverage: 0
coverage_late: 0.429897
accuracy: 0
accuracy_late: 0.436023
discarded: 0
evicts entangled j table: 0
evicts entangled k table: 154942
max bb size: 111
formats: 22041 28876 95843 21105 13674 20035 0 
hist_lookups: 51953 82795 88655 92359 84549 67919 51982 40109 32616 25060 18329 12530 8029 3954 1312 0 627 167197 
hist_lookups_evict: 0.0755445 %
hist_lookups_shortlat: 20.1449 %
bb_found_hist: 0 1825651 1012052 431980 320260 178212 111468 142104 163046 23415 49627 80084 18456 11277 5251 34811 10945 5333 3976 6082 3882 1238 578 1228 3 1369 760 693 252 450 250 758 252 112 259 6 0 0 0 0 252 0 0 0 250 0 0 253 0 0 0 0 0 0 0 0 0 0 0 0 253 0 253 0 
bb_found_summary: 13643370 4447381 3.06774
entangled_found_hist: 0 1320622 1161976 1414355 173443 63044 5777 0 
entangled_found_summary: 8931293 4139217 2.15773
bb_ent_found_hist: 0 2711645 1701686 740684 497208 418420 240344 77396 123465 21690 72487 78977 31610 35969 9574 99347 31717 8043 5202 9555 10365 1371 367 11 17 5040 1850 739 252 1000 500 4 0 10 759 0 0 0 0 0 662 0 0 0 836 0 0 1935 0 0 0 0 0 0 0 0 0 0 0 0 0 0 197 0 
bb_ent_found_summary: 21251544 6940934 3.06178
