WARNING: physical memory size is smaller than virtual memory size.

*** ChampSim Multicore Out-of-Order Simulator ***
Warmup Instructions: 30000000
Simulation Instructions: 100000000
Number of CPUs: 1
Page size: 4096

BTB:
Basic BTB sets: 1024 ways: 8
Indirect:
history lengths: 0 0 10 16 27 44 60 96 109 219 449 487 714 1313 2146 3881 
ITTAGE tables: 64768 bytes;Region table: 240 bytes;IUM: 384 bytes;Total Storage= 65392 bytes;
RAS:
RAS size: 64
[LLC] Demand IPV: 1 2 2 1 4 Prefetch IPV: 1 2 1 1 4
Berti Prefetcher
CPU 0 Entangling prefetcher
Off-chip DRAM Size: 8 GiB Channels: 2 Width: 64-bit Data Race: 6400 MT/s
Heartbeat CPU 0 instructions: 10000000 cycles: 1770978 heartbeat IPC: 5.647 cumulative IPC: 5.647 (Simulation time: 00 hr 00 min 49 sec)
Heartbeat CPU 0 instructions: 20000006 cycles: 3538361 heartbeat IPC: 5.658 cumulative IPC: 5.652 (Simulation time: 00 hr 01 min 38 sec)
Heartbeat CPU 0 instructions: 30000001 cycles: 5300322 heartbeat IPC: 5.675 cumulative IPC: 5.66 (Simulation time: 00 hr 02 min 28 sec)
Warmup finished CPU 0 instructions: 30000001 cycles: 5300323 cumulative IPC: 5.66 (Simulation time: 00 hr 02 min 28 sec)
Warmup complete CPU 0 instructions: 30000001 cycles: 5300323 cumulative IPC: 5.66 (Simulation time: 00 hr 02 min 28 sec)
*** Reached end of trace: (0, "../traces/public_traces/srv/srv_41.champsimtrace.xz")
Heartbeat CPU 0 instructions: 40000002 cycles: 8978274 heartbeat IPC: 2.719 cumulative IPC: 2.719 (Simulation time: 00 hr 03 min 25 sec)
Heartbeat CPU 0 instructions: 50000001 cycles: 12714382 heartbeat IPC: 2.677 cumulative IPC: 2.698 (Simulation time: 00 hr 04 min 27 sec)
Heartbeat CPU 0 instructions: 60000003 cycles: 16986511 heartbeat IPC: 2.341 cumulative IPC: 2.567 (Simulation time: 00 hr 05 min 32 sec)
*** Reached end of trace: (0, "../traces/public_traces/srv/srv_41.champsimtrace.xz")
Heartbeat CPU 0 instructions: 70000000 cycles: 20421046 heartbeat IPC: 2.912 cumulative IPC: 2.645 (Simulation time: 00 hr 06 min 27 sec)
Heartbeat CPU 0 instructions: 80000008 cycles: 24168016 heartbeat IPC: 2.669 cumulative IPC: 2.65 (Simulation time: 00 hr 07 min 25 sec)
Heartbeat CPU 0 instructions: 90000003 cycles: 28275657 heartbeat IPC: 2.434 cumulative IPC: 2.611 (Simulation time: 00 hr 08 min 27 sec)
*** Reached end of trace: (0, "../traces/public_traces/srv/srv_41.champsimtrace.xz")
Heartbeat CPU 0 instructions: 100000009 cycles: 31778893 heartbeat IPC: 2.855 cumulative IPC: 2.644 (Simulation time: 00 hr 09 min 24 sec)
Heartbeat CPU 0 instructions: 110000002 cycles: 35572645 heartbeat IPC: 2.636 cumulative IPC: 2.643 (Simulation time: 00 hr 10 min 31 sec)
Heartbeat CPU 0 instructions: 120000005 cycles: 39594047 heartbeat IPC: 2.487 cumulative IPC: 2.624 (Simulation time: 00 hr 11 min 34 sec)
*** Reached end of trace: (0, "../traces/public_traces/srv/srv_41.champsimtrace.xz")
Heartbeat CPU 0 instructions: 130000011 cycles: 43153023 heartbeat IPC: 2.81 cumulative IPC: 2.642 (Simulation time: 00 hr 12 min 36 sec)
Simulation finished CPU 0 instructions: 100000010 cycles: 37852701 cumulative IPC: 2.642 (Simulation time: 00 hr 12 min 36 sec)
Simulation complete CPU 0 instructions: 100000010 cycles: 37852701 cumulative IPC: 2.642 (Simulation time: 00 hr 12 min 36 sec)

ChampSim completed all CPUs

=== Simulation ===
CPU 0 runs ../traces/public_traces/srv/srv_41.champsimtrace.xz
Region of Interest Statistics

CPU 0 cumulative IPC: 2.642 instructions: 100000010 cycles: 37852701
CPU 0 Branch Prediction Accuracy: 95.56% MPKI: 8.127 Average ROB Occupancy at Mispredict: 34.87
Branch type MPKI
BRANCH_DIRECT_JUMP: 0.751
BRANCH_INDIRECT: 3.47
BRANCH_CONDITIONAL: 1.22
BRANCH_DIRECT_CALL: 1.39
BRANCH_INDIRECT_CALL: 0.322
BRANCH_RETURN: 0.968

LLC TOTAL        ACCESS:     690146 HIT:     545549 MISS:     144597
LLC LOAD         ACCESS:     141427 HIT:     104123 MISS:      37304
LLC RFO          ACCESS:     100088 HIT:      84895 MISS:      15193
LLC PREFETCH     ACCESS:     229065 HIT:     170704 MISS:      58361
LLC WRITE        ACCESS:     189033 HIT:     174404 MISS:      14629
LLC TRANSLATION  ACCESS:      30533 HIT:      11423 MISS:      19110
LLC PREFETCH REQUESTED:          0 ISSUED:          0 USEFUL:          0 USELESS:          0
LLC AVERAGE MISS LATENCY: 129.6 cycles
cpu0_DTLB TOTAL        ACCESS:   16923795 HIT:   16444720 MISS:     479075
cpu0_DTLB LOAD         ACCESS:   16923795 HIT:   16444720 MISS:     479075
cpu0_DTLB RFO          ACCESS:          0 HIT:          0 MISS:          0
cpu0_DTLB PREFETCH     ACCESS:          0 HIT:          0 MISS:          0
cpu0_DTLB WRITE        ACCESS:          0 HIT:          0 MISS:          0
cpu0_DTLB TRANSLATION  ACCESS:          0 HIT:          0 MISS:          0
cpu0_DTLB PREFETCH REQUESTED:          0 ISSUED:          0 USEFUL:          0 USELESS:          0
cpu0_DTLB AVERAGE MISS LATENCY: 12.49 cycles
cpu0_ITLB TOTAL        ACCESS:   14372918 HIT:   13988179 MISS:     384739
cpu0_ITLB LOAD         ACCESS:   14372918 HIT:   13988179 MISS:     384739
cpu0_ITLB RFO          ACCESS:          0 HIT:          0 MISS:          0
cpu0_ITLB PREFETCH     ACCESS:          0 HIT:          0 MISS:          0
cpu0_ITLB WRITE        ACCESS:          0 HIT:          0 MISS:          0
cpu0_ITLB TRANSLATION  ACCESS:          0 HIT:          0 MISS:          0
cpu0_ITLB PREFETCH REQUESTED:          0 ISSUED:          0 USEFUL:          0 USELESS:          0
cpu0_ITLB AVERAGE MISS LATENCY: 4.628 cycles
cpu0_L1D TOTAL        ACCESS:   26233785 HIT:   23913489 MISS:    2320296
cpu0_L1D LOAD         ACCESS:   15677620 HIT:   14429467 MISS:    1248153
cpu0_L1D RFO          ACCESS:          0 HIT:          0 MISS:          0
cpu0_L1D PREFETCH     ACCESS:     451220 HIT:     344416 MISS:     106804
cpu0_L1D WRITE        ACCESS:   10063555 HIT:    9138175 MISS:     925380
cpu0_L1D TRANSLATION  ACCESS:      41390 HIT:       1431 MISS:      39959
cpu0_L1D PREFETCH REQUESTED:     576384 ISSUED:     451220 USEFUL:       7564 USELESS:       2666
cpu0_L1D AVERAGE MISS LATENCY: 11.58 cycles
cpu0_L1I TOTAL        ACCESS:   21287866 HIT:   17603103 MISS:    3684763
cpu0_L1I LOAD         ACCESS:    6915336 HIT:    5971151 MISS:     944185
cpu0_L1I RFO          ACCESS:          0 HIT:          0 MISS:          0
cpu0_L1I PREFETCH     ACCESS:   14372530 HIT:   11631952 MISS:    2740578
cpu0_L1I WRITE        ACCESS:          0 HIT:          0 MISS:          0
cpu0_L1I TRANSLATION  ACCESS:          0 HIT:          0 MISS:          0
cpu0_L1I PREFETCH REQUESTED:   29438695 ISSUED:   14372563 USEFUL:    1870247 USELESS:     771480
cpu0_L1I AVERAGE MISS LATENCY: 11.02 cycles
cpu0_L2C TOTAL        ACCESS:    9250420 HIT:    8667088 MISS:     583332
cpu0_L2C LOAD         ACCESS:    1492597 HIT:    1344345 MISS:     148252
cpu0_L2C RFO          ACCESS:     333011 HIT:     231976 MISS:     101035
cpu0_L2C PREFETCH     ACCESS:    6771138 HIT:    6467649 MISS:     303489
cpu0_L2C WRITE        ACCESS:     615378 HIT:     615355 MISS:         23
cpu0_L2C TRANSLATION  ACCESS:      38296 HIT:       7763 MISS:      30533
cpu0_L2C PREFETCH REQUESTED:    4236577 ISSUED:    4027158 USEFUL:      58444 USELESS:      94295
cpu0_L2C AVERAGE MISS LATENCY: 49.21 cycles
cpu0_STLB TOTAL        ACCESS:     537585 HIT:     513326 MISS:      24259
cpu0_STLB LOAD         ACCESS:     537585 HIT:     513326 MISS:      24259
cpu0_STLB RFO          ACCESS:          0 HIT:          0 MISS:          0
cpu0_STLB PREFETCH     ACCESS:          0 HIT:          0 MISS:          0
cpu0_STLB WRITE        ACCESS:          0 HIT:          0 MISS:          0
cpu0_STLB TRANSLATION  ACCESS:          0 HIT:          0 MISS:          0
cpu0_STLB PREFETCH REQUESTED:          0 ISSUED:          0 USEFUL:          0 USELESS:          0
cpu0_STLB AVERAGE MISS LATENCY: 195 cycles

DRAM Statistics

Channel 0 RQ ROW_BUFFER_HIT:      18321
  ROW_BUFFER_MISS:      50472
 AVG DBUS CONGESTED CYCLE: 3.758
WQ ROW_BUFFER_HIT: Channel 0 
  ROW_BUFFER_MISS:       3276
  FULL:      13518

Channel 1 RQ ROW_BUFFER_HIT:      16788
  ROW_BUFFER_MISS:      44387
 AVG DBUS CONGESTED CYCLE: 3.731
WQ ROW_BUFFER_HIT: Channel 1 
  ROW_BUFFER_MISS:       2860
  FULL:      10907
BERTI TO_L1: 255731 TO_L2: 503569 TO_L2_BC_MSHR: 45426
BERTI AVG_LAT: 17.8821 NUM_TRACK_LATENCY: 1139096 NUM_CANT_TRACK_LATENCY: 0
BERTI CROSS_PAGE 201071 NO_CROSS_PAGE: 558229
BERTI FOUND_BERTI: 989501 NO_FOUND_BERTI: 19629259
BERTI AVERAGE_ISSUED: 5.42886
CPU 0 L1I Entangling prefetcher final stats
IP accesses: f81d 3e0740 86475 / 6938995
IP misses: 3f25 fc940 5031 / 967844
IP hits: 0 0 0 / 0
IP late: a78c 29e300 1388 / 430474
IP wrong: c733 31ccc0 3268 / 766389
miss rate: 0.139479
coverage: 0
coverage_late: 0.444777
accuracy: 0
accuracy_late: 0.359669
discarded: 0
evicts entangled j table: 0
evicts entangled k table: 160858
max bb size: 38
formats: 55331 0 107939 17785 13922 28800 0 
hist_lookups: 52089 76566 87998 93477 85059 70977 52971 37978 29472 22895 16383 11233 6865 3507 1432 0 30 146463 
hist_lookups_evict: 0.00377172 %
hist_lookups_shortlat: 18.4139 %
bb_found_hist: 0 1834385 874085 415533 195442 106888 47861 45790 19970 5463 20189 2612 2838 1288 566 0 343 1305 0 0 0 0 0 0 0 0 0 0 0 0 343 90 0 0 0 0 350 679 343 0 0 0 0 0 0 0 0 0 0 0 0 0 0 0 0 0 0 0 0 0 0 0 0 0 
bb_found_summary: 7342841 3576363 2.05316
entangled_found_hist: 0 1164513 702166 1751500 227181 85427 29750 0 
entangled_found_summary: 9337704 3960537 2.35769
bb_ent_found_hist: 0 2745051 1616772 786747 433491 311088 119509 117317 18648 10192 71153 13413 36404 9317 0 0 737 6015 0 0 0 0 0 0 0 0 0 0 0 0 7 85 0 0 0 0 340 362 1861 0 0 0 0 0 0 0 0 0 0 0 0 0 0 0 0 0 0 0 0 0 0 0 0 0 
bb_ent_found_summary: 15037711 6298509 2.38751
