WARNING: physical memory size is smaller than virtual memory size.

*** ChampSim Multicore Out-of-Order Simulator ***
Warmup Instructions: 30000000
Simulation Instructions: 100000000
Number of CPUs: 1
Page size: 4096

BTB:
Basic BTB sets: 1024 ways: 8
Indirect:
history lengths: 0 0 10 16 27 44 60 96 109 219 449 487 714 1313 2146 3881 
ITTAGE tables: 64768 bytes;Region table: 240 bytes;IUM: 384 bytes;Total Storage= 65392 bytes;
RAS:
RAS size: 64
[LLC] Demand IPV: 1 2 2 1 4 Prefetch IPV: 1 2 1 1 4
Berti Prefetcher
CPU 0 Entangling prefetcher
Off-chip DRAM Size: 8 GiB Channels: 2 Width: 64-bit Data Race: 6400 MT/s
Heartbeat CPU 0 instructions: 10000000 cycles: 1731307 heartbeat IPC: 5.776 cumulative IPC: 5.776 (Simulation time: 00 hr 00 min 46 sec)
Heartbeat CPU 0 instructions: 20000006 cycles: 3466296 heartbeat IPC: 5.764 cumulative IPC: 5.77 (Simulation time: 00 hr 01 min 33 sec)
Heartbeat CPU 0 instructions: 30000004 cycles: 5192685 heartbeat IPC: 5.792 cumulative IPC: 5.777 (Simulation time: 00 hr 02 min 19 sec)
Warmup finished CPU 0 instructions: 30000004 cycles: 5192686 cumulative IPC: 5.777 (Simulation time: 00 hr 02 min 19 sec)
Warmup complete CPU 0 instructions: 30000004 cycles: 5192686 cumulative IPC: 5.777 (Simulation time: 00 hr 02 min 19 sec)
*** Reached end of trace: (0, "../traces/public_traces/srv/srv_55.champsimtrace.xz")
Heartbeat CPU 0 instructions: 40000006 cycles: 9158358 heartbeat IPC: 2.522 cumulative IPC: 2.522 (Simulation time: 00 hr 03 min 25 sec)
Heartbeat CPU 0 instructions: 50000000 cycles: 13111906 heartbeat IPC: 2.529 cumulative IPC: 2.526 (Simulation time: 00 hr 04 min 29 sec)
Heartbeat CPU 0 instructions: 60000000 cycles: 17134809 heartbeat IPC: 2.486 cumulative IPC: 2.512 (Simulation time: 00 hr 05 min 30 sec)
*** Reached end of trace: (0, "../traces/public_traces/srv/srv_55.champsimtrace.xz")
Heartbeat CPU 0 instructions: 70000007 cycles: 20766359 heartbeat IPC: 2.754 cumulative IPC: 2.568 (Simulation time: 00 hr 06 min 35 sec)
Heartbeat CPU 0 instructions: 80000003 cycles: 24818817 heartbeat IPC: 2.468 cumulative IPC: 2.548 (Simulation time: 00 hr 07 min 43 sec)
Heartbeat CPU 0 instructions: 90000000 cycles: 28550716 heartbeat IPC: 2.68 cumulative IPC: 2.569 (Simulation time: 00 hr 09 min 01 sec)
*** Reached end of trace: (0, "../traces/public_traces/srv/srv_55.champsimtrace.xz")
Heartbeat CPU 0 instructions: 100000001 cycles: 32457292 heartbeat IPC: 2.56 cumulative IPC: 2.567 (Simulation time: 00 hr 10 min 17 sec)
Heartbeat CPU 0 instructions: 110000000 cycles: 36365997 heartbeat IPC: 2.558 cumulative IPC: 2.566 (Simulation time: 00 hr 11 min 30 sec)
Heartbeat CPU 0 instructions: 120000000 cycles: 40198253 heartbeat IPC: 2.609 cumulative IPC: 2.571 (Simulation time: 00 hr 12 min 43 sec)
*** Reached end of trace: (0, "../traces/public_traces/srv/srv_55.champsimtrace.xz")
Heartbeat CPU 0 instructions: 130000003 cycles: 43813948 heartbeat IPC: 2.766 cumulative IPC: 2.589 (Simulation time: 00 hr 13 min 45 sec)
Simulation finished CPU 0 instructions: 100000001 cycles: 38621264 cumulative IPC: 2.589 (Simulation time: 00 hr 13 min 45 sec)
Simulation complete CPU 0 instructions: 100000001 cycles: 38621264 cumulative IPC: 2.589 (Simulation time: 00 hr 13 min 45 sec)

ChampSim completed all CPUs

=== Simulation ===
CPU 0 runs ../traces/public_traces/srv/srv_55.champsimtrace.xz
Region of Interest Statistics

CPU 0 cumulative IPC: 2.589 instructions: 100000001 cycles: 38621264
CPU 0 Branch Prediction Accuracy: 95.35% MPKI: 8.446 Average ROB Occupancy at Mispredict: 32.44
Branch type MPKI
BRANCH_DIRECT_JUMP: 0.773
BRANCH_INDIRECT: 3.64
BRANCH_CONDITIONAL: 1.21
BRANCH_DIRECT_CALL: 1.48
BRANCH_INDIRECT_CALL: 0.378
BRANCH_RETURN: 0.96

LLC TOTAL        ACCESS:     825699 HIT:     660421 MISS:     165278
LLC LOAD         ACCESS:     152982 HIT:     113287 MISS:      39695
LLC RFO          ACCESS:     123860 HIT:     105909 MISS:      17951
LLC PREFETCH     ACCESS:     289431 HIT:     221309 MISS:      68122
LLC WRITE        ACCESS:     220061 HIT:     204181 MISS:      15880
LLC TRANSLATION  ACCESS:      39365 HIT:      15735 MISS:      23630
LLC PREFETCH REQUESTED:          0 ISSUED:          0 USEFUL:          0 USELESS:          0
LLC AVERAGE MISS LATENCY: 130.4 cycles
cpu0_DTLB TOTAL        ACCESS:   17670902 HIT:   17210970 MISS:     459932
cpu0_DTLB LOAD         ACCESS:   17670902 HIT:   17210970 MISS:     459932
cpu0_DTLB RFO          ACCESS:          0 HIT:          0 MISS:          0
cpu0_DTLB PREFETCH     ACCESS:          0 HIT:          0 MISS:          0
cpu0_DTLB WRITE        ACCESS:          0 HIT:          0 MISS:          0
cpu0_DTLB TRANSLATION  ACCESS:          0 HIT:          0 MISS:          0
cpu0_DTLB PREFETCH REQUESTED:          0 ISSUED:          0 USEFUL:          0 USELESS:          0
cpu0_DTLB AVERAGE MISS LATENCY: 14.78 cycles
cpu0_ITLB TOTAL        ACCESS:   13828774 HIT:   13457158 MISS:     371616
cpu0_ITLB LOAD         ACCESS:   13828774 HIT:   13457158 MISS:     371616
cpu0_ITLB RFO          ACCESS:          0 HIT:          0 MISS:          0
cpu0_ITLB PREFETCH     ACCESS:          0 HIT:          0 MISS:          0
cpu0_ITLB WRITE        ACCESS:          0 HIT:          0 MISS:          0
cpu0_ITLB TRANSLATION  ACCESS:          0 HIT:          0 MISS:          0
cpu0_ITLB PREFETCH REQUESTED:          0 ISSUED:          0 USEFUL:          0 USELESS:          0
cpu0_ITLB AVERAGE MISS LATENCY: 5.017 cycles
cpu0_L1D TOTAL        ACCESS:   27537264 HIT:   25052177 MISS:    2485087
cpu0_L1D LOAD         ACCESS:   16543829 HIT:   15356174 MISS:    1187655
cpu0_L1D RFO          ACCESS:          0 HIT:          0 MISS:          0
cpu0_L1D PREFETCH     ACCESS:     994333 HIT:     775265 MISS:     219068
cpu0_L1D WRITE        ACCESS:    9948844 HIT:    8919402 MISS:    1029442
cpu0_L1D TRANSLATION  ACCESS:      50258 HIT:       1336 MISS:      48922
cpu0_L1D PREFETCH REQUESTED:    1268494 ISSUED:     994333 USEFUL:      15135 USELESS:       4850
cpu0_L1D AVERAGE MISS LATENCY: 11.6 cycles
cpu0_L1I TOTAL        ACCESS:   20433636 HIT:   16815895 MISS:    3617741
cpu0_L1I LOAD         ACCESS:    6541889 HIT:    5601174 MISS:     940715
cpu0_L1I RFO          ACCESS:          0 HIT:          0 MISS:          0
cpu0_L1I PREFETCH     ACCESS:   13891747 HIT:   11214721 MISS:    2677026
cpu0_L1I WRITE        ACCESS:          0 HIT:          0 MISS:          0
cpu0_L1I TRANSLATION  ACCESS:          0 HIT:          0 MISS:          0
cpu0_L1I PREFETCH REQUESTED:   25783511 ISSUED:   13891747 USEFUL:    1797679 USELESS:     778041
cpu0_L1I AVERAGE MISS LATENCY: 11.25 cycles
cpu0_L2C TOTAL        ACCESS:    9226712 HIT:    8509605 MISS:     717107
cpu0_L2C LOAD         ACCESS:    1440497 HIT:    1280086 MISS:     160411
cpu0_L2C RFO          ACCESS:     349679 HIT:     224644 MISS:     125035
cpu0_L2C PREFETCH     ACCESS:    6777469 HIT:    6385237 MISS:     392232
cpu0_L2C WRITE        ACCESS:     612007 HIT:     611944 MISS:         63
cpu0_L2C TRANSLATION  ACCESS:      47060 HIT:       7694 MISS:      39366
cpu0_L2C PREFETCH REQUESTED:    4226448 ISSUED:    3991518 USEFUL:      71026 USELESS:     109557
cpu0_L2C AVERAGE MISS LATENCY: 46.76 cycles
cpu0_STLB TOTAL        ACCESS:     507651 HIT:     477974 MISS:      29677
cpu0_STLB LOAD         ACCESS:     507651 HIT:     477974 MISS:      29677
cpu0_STLB RFO          ACCESS:          0 HIT:          0 MISS:          0
cpu0_STLB PREFETCH     ACCESS:          0 HIT:          0 MISS:          0
cpu0_STLB WRITE        ACCESS:          0 HIT:          0 MISS:          0
cpu0_STLB TRANSLATION  ACCESS:          0 HIT:          0 MISS:          0
cpu0_STLB PREFETCH REQUESTED:          0 ISSUED:          0 USEFUL:          0 USELESS:          0
cpu0_STLB AVERAGE MISS LATENCY: 197.5 cycles

DRAM Statistics

Channel 0 RQ ROW_BUFFER_HIT:      23394
  ROW_BUFFER_MISS:      54850
 AVG DBUS CONGESTED CYCLE: 3.766
WQ ROW_BUFFER_HIT: Channel 0 
  ROW_BUFFER_MISS:       3521
  FULL:      15255

Channel 1 RQ ROW_BUFFER_HIT:      21899
  ROW_BUFFER_MISS:      49254
 AVG DBUS CONGESTED CYCLE: 3.757
WQ ROW_BUFFER_HIT: Channel 1 
  ROW_BUFFER_MISS:       3264
  FULL:      13309
BERTI TO_L1: 586150 TO_L2: 1089201 TO_L2_BC_MSHR: 74194
BERTI AVG_LAT: 19.1819 NUM_TRACK_LATENCY: 1073128 NUM_CANT_TRACK_LATENCY: 0
BERTI CROSS_PAGE 359643 NO_CROSS_PAGE: 1315708
BERTI FOUND_BERTI: 1769367 NO_FOUND_BERTI: 20011463
BERTI AVERAGE_ISSUED: 5.57844
CPU 0 L1I Entangling prefetcher final stats
IP accesses: f81d 3e0740 125742 / 6576658
IP misses: 3f25 fc940 3958 / 975484
IP hits: 0 0 0 / 0
IP late: dabf 36afc0 1068 / 433686
IP wrong: c733 31ccc0 2754 / 773613
miss rate: 0.148326
coverage: 0
coverage_late: 0.444586
accuracy: 0
accuracy_late: 0.359221
discarded: 0
evicts entangled j table: 0
evicts entangled k table: 170739
max bb size: 40
formats: 55560 0 118256 18241 13635 31667 0 
hist_lookups: 53757 79400 89304 94759 86015 72038 56812 42014 31648 24164 17430 12158 7478 3799 1809 0 36 158388 
hist_lookups_evict: 0.00433209 %
hist_lookups_shortlat: 19.0598 %
bb_found_hist: 0 1709370 826607 371114 189997 84040 41352 42038 12010 6061 13585 2330 635 421 97 0 0 2973 97 0 0 0 0 0 0 0 0 0 0 0 0 0 0 0 97 0 117 0 97 0 160 0 0 0 0 0 0 0 0 0 0 0 0 0 0 0 0 0 0 0 0 0 0 0 
bb_found_summary: 6594935 3303198 1.99654
entangled_found_hist: 0 1169862 700210 1578734 197082 65022 21150 0 
entangled_found_summary: 8546822 3732060 2.29011
bb_ent_found_hist: 0 2553322 1533783 682750 386928 250708 94452 102244 8650 7033 50501 11709 1351 3149 97 0 0 16347 0 0 0 0 0 0 0 0 0 0 0 0 0 0 0 0 0 0 328 0 521 0 0 0 0 0 0 0 0 0 0 0 0 0 0 0 0 0 0 0 0 0 0 0 0 0 
bb_ent_found_summary: 12887128 5703873 2.25937
