WARNING: physical memory size is smaller than virtual memory size.

*** ChampSim Multicore Out-of-Order Simulator ***
Warmup Instructions: 30000000
Simulation Instructions: 100000000
Number of CPUs: 1
Page size: 4096

BTB:
Basic BTB sets: 1024 ways: 8
Indirect:
history lengths: 0 0 10 16 27 44 60 96 109 219 449 487 714 1313 2146 3881 
ITTAGE tables: 64768 bytes;Region table: 240 bytes;IUM: 384 bytes;Total Storage= 65392 bytes;
RAS:
RAS size: 64
[LLC] Demand IPV: 1 2 2 1 4 Prefetch IPV: 1 2 1 1 4
Berti Prefetcher
CPU 0 Entangling prefetcher
Off-chip DRAM Size: 8 GiB Channels: 2 Width: 64-bit Data Race: 6400 MT/s
Heartbeat CPU 0 instructions: 10000007 cycles: 1743448 heartbeat IPC: 5.736 cumulative IPC: 5.736 (Simulation time: 00 hr 00 min 45 sec)
Heartbeat CPU 0 instructions: 20000008 cycles: 3483894 heartbeat IPC: 5.746 cumulative IPC: 5.741 (Simulation time: 00 hr 01 min 30 sec)
Heartbeat CPU 0 instructions: 30000001 cycles: 5224529 heartbeat IPC: 5.745 cumulative IPC: 5.742 (Simulation time: 00 hr 02 min 15 sec)
Warmup finished CPU 0 instructions: 30000001 cycles: 5224530 cumulative IPC: 5.742 (Simulation time: 00 hr 02 min 15 sec)
Warmup complete CPU 0 instructions: 30000001 cycles: 5224530 cumulative IPC: 5.742 (Simulation time: 00 hr 02 min 15 sec)
*** Reached end of trace: (0, "../traces/public_traces/srv/srv_14.champsimtrace.xz")
Heartbeat CPU 0 instructions: 40000011 cycles: 8804808 heartbeat IPC: 2.793 cumulative IPC: 2.793 (Simulation time: 00 hr 03 min 16 sec)
Heartbeat CPU 0 instructions: 50000004 cycles: 12346139 heartbeat IPC: 2.824 cumulative IPC: 2.808 (Simulation time: 00 hr 04 min 17 sec)
Heartbeat CPU 0 instructions: 60000011 cycles: 15893355 heartbeat IPC: 2.819 cumulative IPC: 2.812 (Simulation time: 00 hr 05 min 18 sec)
*** Reached end of trace: (0, "../traces/public_traces/srv/srv_14.champsimtrace.xz")
Heartbeat CPU 0 instructions: 70000004 cycles: 19422407 heartbeat IPC: 2.834 cumulative IPC: 2.817 (Simulation time: 00 hr 06 min 19 sec)
Heartbeat CPU 0 instructions: 80000011 cycles: 22930651 heartbeat IPC: 2.85 cumulative IPC: 2.824 (Simulation time: 00 hr 07 min 23 sec)
Heartbeat CPU 0 instructions: 90000003 cycles: 26482024 heartbeat IPC: 2.816 cumulative IPC: 2.823 (Simulation time: 00 hr 08 min 24 sec)
*** Reached end of trace: (0, "../traces/public_traces/srv/srv_14.champsimtrace.xz")
Heartbeat CPU 0 instructions: 100000004 cycles: 29994024 heartbeat IPC: 2.847 cumulative IPC: 2.826 (Simulation time: 00 hr 09 min 25 sec)
Heartbeat CPU 0 instructions: 110000000 cycles: 33513374 heartbeat IPC: 2.841 cumulative IPC: 2.828 (Simulation time: 00 hr 10 min 26 sec)
Heartbeat CPU 0 instructions: 120000007 cycles: 37039039 heartbeat IPC: 2.836 cumulative IPC: 2.829 (Simulation time: 00 hr 11 min 27 sec)
*** Reached end of trace: (0, "../traces/public_traces/srv/srv_14.champsimtrace.xz")
Heartbeat CPU 0 instructions: 130000008 cycles: 40565900 heartbeat IPC: 2.835 cumulative IPC: 2.83 (Simulation time: 00 hr 12 min 28 sec)
Simulation finished CPU 0 instructions: 100000007 cycles: 35341371 cumulative IPC: 2.83 (Simulation time: 00 hr 12 min 28 sec)
Simulation complete CPU 0 instructions: 100000007 cycles: 35341371 cumulative IPC: 2.83 (Simulation time: 00 hr 12 min 28 sec)

ChampSim completed all CPUs

=== Simulation ===
CPU 0 runs ../traces/public_traces/srv/srv_14.champsimtrace.xz
Region of Interest Statistics

CPU 0 cumulative IPC: 2.83 instructions: 100000007 cycles: 35341371
CPU 0 Branch Prediction Accuracy: 94.92% MPKI: 9.115 Average ROB Occupancy at Mispredict: 42.15
Branch type MPKI
BRANCH_DIRECT_JUMP: 0.634
BRANCH_INDIRECT: 3.74
BRANCH_CONDITIONAL: 1.29
BRANCH_DIRECT_CALL: 1.82
BRANCH_INDIRECT_CALL: 0.288
BRANCH_RETURN: 1.34

LLC TOTAL        ACCESS:      47895 HIT:      47040 MISS:        855
LLC LOAD         ACCESS:      24760 HIT:      24528 MISS:        232
LLC RFO          ACCESS:       4274 HIT:       4235 MISS:         39
LLC PREFETCH     ACCESS:      12788 HIT:      12246 MISS:        542
LLC WRITE        ACCESS:       5777 HIT:       5776 MISS:          1
LLC TRANSLATION  ACCESS:        296 HIT:        255 MISS:         41
LLC PREFETCH REQUESTED:          0 ISSUED:          0 USEFUL:          0 USELESS:          0
LLC AVERAGE MISS LATENCY: 144.1 cycles
cpu0_DTLB TOTAL        ACCESS:   19638011 HIT:   18626856 MISS:    1011155
cpu0_DTLB LOAD         ACCESS:   19638011 HIT:   18626856 MISS:    1011155
cpu0_DTLB RFO          ACCESS:          0 HIT:          0 MISS:          0
cpu0_DTLB PREFETCH     ACCESS:          0 HIT:          0 MISS:          0
cpu0_DTLB WRITE        ACCESS:          0 HIT:          0 MISS:          0
cpu0_DTLB TRANSLATION  ACCESS:          0 HIT:          0 MISS:          0
cpu0_DTLB PREFETCH REQUESTED:          0 ISSUED:          0 USEFUL:          0 USELESS:          0
cpu0_DTLB AVERAGE MISS LATENCY: 4.703 cycles
cpu0_ITLB TOTAL        ACCESS:   21948512 HIT:   20962787 MISS:     985725
cpu0_ITLB LOAD         ACCESS:   21948512 HIT:   20962787 MISS:     985725
cpu0_ITLB RFO          ACCESS:          0 HIT:          0 MISS:          0
cpu0_ITLB PREFETCH     ACCESS:          0 HIT:          0 MISS:          0
cpu0_ITLB WRITE        ACCESS:          0 HIT:          0 MISS:          0
cpu0_ITLB TRANSLATION  ACCESS:          0 HIT:          0 MISS:          0
cpu0_ITLB PREFETCH REQUESTED:          0 ISSUED:          0 USEFUL:          0 USELESS:          0
cpu0_ITLB AVERAGE MISS LATENCY: 3.87 cycles
cpu0_L1D TOTAL        ACCESS:   30069669 HIT:   25217512 MISS:    4852157
cpu0_L1D LOAD         ACCESS:   16643380 HIT:   13753410 MISS:    2889970
cpu0_L1D RFO          ACCESS:          0 HIT:          0 MISS:          0
cpu0_L1D PREFETCH     ACCESS:     166974 HIT:      62266 MISS:     104708
cpu0_L1D WRITE        ACCESS:   13258573 HIT:   11401836 MISS:    1856737
cpu0_L1D TRANSLATION  ACCESS:        742 HIT:          0 MISS:        742
cpu0_L1D PREFETCH REQUESTED:     932855 ISSUED:     166974 USEFUL:        769 USELESS:       1108
cpu0_L1D AVERAGE MISS LATENCY: 6.862 cycles
cpu0_L1I TOTAL        ACCESS:   31999250 HIT:   24613383 MISS:    7385867
cpu0_L1I LOAD         ACCESS:   10770603 HIT:    9283475 MISS:    1487128
cpu0_L1I RFO          ACCESS:          0 HIT:          0 MISS:          0
cpu0_L1I PREFETCH     ACCESS:   21228647 HIT:   15329908 MISS:    5898739
cpu0_L1I WRITE        ACCESS:          0 HIT:          0 MISS:          0
cpu0_L1I TRANSLATION  ACCESS:          0 HIT:          0 MISS:          0
cpu0_L1I PREFETCH REQUESTED:   33052253 ISSUED:   21228614 USEFUL:    4724647 USELESS:     988945
cpu0_L1I AVERAGE MISS LATENCY: 11.01 cycles
cpu0_L2C TOTAL        ACCESS:   18423142 HIT:   18376160 MISS:      46982
cpu0_L2C LOAD         ACCESS:    3162506 HIT:    3137437 MISS:      25069
cpu0_L2C RFO          ACCESS:     582131 HIT:     577853 MISS:       4278
cpu0_L2C PREFETCH     ACCESS:   13539778 HIT:   13522442 MISS:      17336
cpu0_L2C WRITE        ACCESS:    1137985 HIT:    1137982 MISS:          3
cpu0_L2C TRANSLATION  ACCESS:        742 HIT:        446 MISS:        296
cpu0_L2C PREFETCH REQUESTED:    8902154 ISSUED:    7800109 USEFUL:       3010 USELESS:       7025
cpu0_L2C AVERAGE MISS LATENCY: 20.51 cycles
cpu0_STLB TOTAL        ACCESS:    1268268 HIT:    1267547 MISS:        721
cpu0_STLB LOAD         ACCESS:    1268268 HIT:    1267547 MISS:        721
cpu0_STLB RFO          ACCESS:          0 HIT:          0 MISS:          0
cpu0_STLB PREFETCH     ACCESS:          0 HIT:          0 MISS:          0
cpu0_STLB WRITE        ACCESS:          0 HIT:          0 MISS:          0
cpu0_STLB TRANSLATION  ACCESS:          0 HIT:          0 MISS:          0
cpu0_STLB PREFETCH REQUESTED:          0 ISSUED:          0 USEFUL:          0 USELESS:          0
cpu0_STLB AVERAGE MISS LATENCY: 43.67 cycles

DRAM Statistics

Channel 0 RQ ROW_BUFFER_HIT:         73
  ROW_BUFFER_MISS:        292
 AVG DBUS CONGESTED CYCLE: 3.245
WQ ROW_BUFFER_HIT: Channel 0 
  ROW_BUFFER_MISS:          0
  FULL:          0

Channel 1 RQ ROW_BUFFER_HIT:         94
  ROW_BUFFER_MISS:        395
 AVG DBUS CONGESTED CYCLE: 3.238
WQ ROW_BUFFER_HIT: Channel 1 
  ROW_BUFFER_MISS:          0
  FULL:          0
BERTI TO_L1: 101978 TO_L2: 2101542 TO_L2_BC_MSHR: 1228085
BERTI AVG_LAT: 14.2084 NUM_TRACK_LATENCY: 2799879 NUM_CANT_TRACK_LATENCY: 0
BERTI CROSS_PAGE 609028 NO_CROSS_PAGE: 1594492
BERTI FOUND_BERTI: 1660988 NO_FOUND_BERTI: 20345196
BERTI AVERAGE_ISSUED: 2.3833
CPU 0 L1I Entangling prefetcher final stats
IP accesses: a3d2 28f480 45934 / 10785132
IP misses: 5641 159040 9947 / 1501657
IP hits: 0 0 0 / 0
IP late: a3d3 28f4c0 4037 / 748992
IP wrong: 70f3 1c3cc0 5092 / 981717
miss rate: 0.139234
coverage: 0
coverage_late: 0.498778
accuracy: 0
accuracy_late: 0.432766
discarded: 0
evicts entangled j table: 0
evicts entangled k table: 232061
max bb size: 13
formats: 106398 27328 120905 22885 11107 25171 0 
hist_lookups: 60861 117545 134274 131890 125042 100978 85275 66669 54231 41062 33837 26220 16562 8141 3316 0 9 215475 
hist_lookups_evict: 0.000736868 %
hist_lookups_shortlat: 17.6419 %
bb_found_hist: 0 2717955 1116932 507773 223799 100932 88125 18540 16881 4689 7578 4489 0 1527 0 0 0 0 0 0 0 0 0 0 0 0 0 0 0 0 0 0 0 0 0 0 0 0 0 0 0 0 0 0 0 0 0 0 0 0 0 0 0 0 0 0 0 0 0 0 0 0 0 0 
bb_found_summary: 8855783 4809220 1.84142
entangled_found_hist: 0 1824691 1302733 2137503 273588 77925 21750 0 
entangled_found_summary: 12457143 5638190 2.20943
bb_ent_found_hist: 0 3902704 2213362 1024676 511015 201907 173618 58190 36940 3458 17245 22139 0 12889 0 0 0 0 0 0 0 0 0 0 0 0 0 0 0 0 0 0 0 0 0 0 0 0 0 0 0 0 0 0 0 0 0 0 0 0 0 0 0 0 0 0 0 0 0 0 0 0 0 0 
bb_ent_found_summary: 16816267 8178143 2.05625
