WARNING: physical memory size is smaller than virtual memory size.

*** ChampSim Multicore Out-of-Order Simulator ***
Warmup Instructions: 30000000
Simulation Instructions: 100000000
Number of CPUs: 1
Page size: 4096

BTB:
Basic BTB sets: 1024 ways: 8
Indirect:
history lengths: 0 0 10 16 27 44 60 96 109 219 449 487 714 1313 2146 3881 
ITTAGE tables: 64768 bytes;Region table: 240 bytes;IUM: 384 bytes;Total Storage= 65392 bytes;
RAS:
RAS size: 64
[LLC] Demand IPV: 1 2 2 1 4 Prefetch IPV: 1 2 1 1 4
Berti Prefetcher
CPU 0 Entangling prefetcher
Off-chip DRAM Size: 8 GiB Channels: 2 Width: 64-bit Data Race: 6400 MT/s
Heartbeat CPU 0 instructions: 10000003 cycles: 1699318 heartbeat IPC: 5.885 cumulative IPC: 5.885 (Simulation time: 00 hr 00 min 50 sec)
Heartbeat CPU 0 instructions: 20000003 cycles: 3394950 heartbeat IPC: 5.898 cumulative IPC: 5.891 (Simulation time: 00 hr 01 min 36 sec)
Heartbeat CPU 0 instructions: 30000005 cycles: 5090976 heartbeat IPC: 5.896 cumulative IPC: 5.893 (Simulation time: 00 hr 02 min 23 sec)
Warmup finished CPU 0 instructions: 30000005 cycles: 5090977 cumulative IPC: 5.893 (Simulation time: 00 hr 02 min 23 sec)
Warmup complete CPU 0 instructions: 30000005 cycles: 5090977 cumulative IPC: 5.893 (Simulation time: 00 hr 02 min 23 sec)
*** Reached end of trace: (0, "../traces/public_traces/srv/srv_61.champsimtrace.xz")
Heartbeat CPU 0 instructions: 40000009 cycles: 9304300 heartbeat IPC: 2.373 cumulative IPC: 2.373 (Simulation time: 00 hr 03 min 31 sec)
Heartbeat CPU 0 instructions: 50000002 cycles: 13397135 heartbeat IPC: 2.443 cumulative IPC: 2.408 (Simulation time: 00 hr 04 min 33 sec)
Heartbeat CPU 0 instructions: 60000003 cycles: 17694174 heartbeat IPC: 2.327 cumulative IPC: 2.38 (Simulation time: 00 hr 05 min 39 sec)
*** Reached end of trace: (0, "../traces/public_traces/srv/srv_61.champsimtrace.xz")
Heartbeat CPU 0 instructions: 70000002 cycles: 21829454 heartbeat IPC: 2.418 cumulative IPC: 2.39 (Simulation time: 00 hr 06 min 43 sec)
Heartbeat CPU 0 instructions: 80000002 cycles: 25842492 heartbeat IPC: 2.492 cumulative IPC: 2.409 (Simulation time: 00 hr 07 min 47 sec)
Heartbeat CPU 0 instructions: 90000008 cycles: 30118971 heartbeat IPC: 2.338 cumulative IPC: 2.397 (Simulation time: 00 hr 09 min 03 sec)
*** Reached end of trace: (0, "../traces/public_traces/srv/srv_61.champsimtrace.xz")
Heartbeat CPU 0 instructions: 100000003 cycles: 34223192 heartbeat IPC: 2.437 cumulative IPC: 2.403 (Simulation time: 00 hr 10 min 05 sec)
Heartbeat CPU 0 instructions: 110000003 cycles: 38259742 heartbeat IPC: 2.477 cumulative IPC: 2.412 (Simulation time: 00 hr 11 min 06 sec)
Heartbeat CPU 0 instructions: 120000007 cycles: 42428129 heartbeat IPC: 2.399 cumulative IPC: 2.41 (Simulation time: 00 hr 12 min 22 sec)
*** Reached end of trace: (0, "../traces/public_traces/srv/srv_61.champsimtrace.xz")
Heartbeat CPU 0 instructions: 130000003 cycles: 46610428 heartbeat IPC: 2.391 cumulative IPC: 2.409 (Simulation time: 00 hr 13 min 30 sec)
Simulation finished CPU 0 instructions: 100000000 cycles: 41519453 cumulative IPC: 2.409 (Simulation time: 00 hr 13 min 30 sec)
Simulation complete CPU 0 instructions: 100000000 cycles: 41519453 cumulative IPC: 2.409 (Simulation time: 00 hr 13 min 30 sec)

ChampSim completed all CPUs

=== Simulation ===
CPU 0 runs ../traces/public_traces/srv/srv_61.champsimtrace.xz
Region of Interest Statistics

CPU 0 cumulative IPC: 2.409 instructions: 100000000 cycles: 41519453
CPU 0 Branch Prediction Accuracy: 94.4% MPKI: 10.14 Average ROB Occupancy at Mispredict: 39.01
Branch type MPKI
BRANCH_DIRECT_JUMP: 0.824
BRANCH_INDIRECT: 5.26
BRANCH_CONDITIONAL: 1.38
BRANCH_DIRECT_CALL: 1.51
BRANCH_INDIRECT_CALL: 0.111
BRANCH_RETURN: 1.05

LLC TOTAL        ACCESS:    1166337 HIT:    1003583 MISS:     162754
LLC LOAD         ACCESS:     197141 HIT:     168623 MISS:      28518
LLC RFO          ACCESS:      47875 HIT:      40297 MISS:       7578
LLC PREFETCH     ACCESS:     649551 HIT:     569431 MISS:      80120
LLC WRITE        ACCESS:     175632 HIT:     161475 MISS:      14157
LLC TRANSLATION  ACCESS:      96138 HIT:      63757 MISS:      32381
LLC PREFETCH REQUESTED:          0 ISSUED:          0 USEFUL:          0 USELESS:          0
LLC AVERAGE MISS LATENCY: 139.3 cycles
cpu0_DTLB TOTAL        ACCESS:   17201410 HIT:   16170112 MISS:    1031298
cpu0_DTLB LOAD         ACCESS:   17201410 HIT:   16170112 MISS:    1031298
cpu0_DTLB RFO          ACCESS:          0 HIT:          0 MISS:          0
cpu0_DTLB PREFETCH     ACCESS:          0 HIT:          0 MISS:          0
cpu0_DTLB WRITE        ACCESS:          0 HIT:          0 MISS:          0
cpu0_DTLB TRANSLATION  ACCESS:          0 HIT:          0 MISS:          0
cpu0_DTLB PREFETCH REQUESTED:          0 ISSUED:          0 USEFUL:          0 USELESS:          0
cpu0_DTLB AVERAGE MISS LATENCY: 10.52 cycles
cpu0_ITLB TOTAL        ACCESS:   17334860 HIT:   16756421 MISS:     578439
cpu0_ITLB LOAD         ACCESS:   17334860 HIT:   16756421 MISS:     578439
cpu0_ITLB RFO          ACCESS:          0 HIT:          0 MISS:          0
cpu0_ITLB PREFETCH     ACCESS:          0 HIT:          0 MISS:          0
cpu0_ITLB WRITE        ACCESS:          0 HIT:          0 MISS:          0
cpu0_ITLB TRANSLATION  ACCESS:          0 HIT:          0 MISS:          0
cpu0_ITLB PREFETCH REQUESTED:          0 ISSUED:          0 USEFUL:          0 USELESS:          0
cpu0_ITLB AVERAGE MISS LATENCY: 8.703 cycles
cpu0_L1D TOTAL        ACCESS:   25642403 HIT:   23286634 MISS:    2355769
cpu0_L1D LOAD         ACCESS:   15310319 HIT:   13631943 MISS:    1678376
cpu0_L1D RFO          ACCESS:          0 HIT:          0 MISS:          0
cpu0_L1D PREFETCH     ACCESS:      45630 HIT:      22073 MISS:      23557
cpu0_L1D WRITE        ACCESS:   10122075 HIT:    9620702 MISS:     501373
cpu0_L1D TRANSLATION  ACCESS:     164379 HIT:      11916 MISS:     152463
cpu0_L1D PREFETCH REQUESTED:     205104 ISSUED:      45630 USEFUL:       1684 USELESS:       1115
cpu0_L1D AVERAGE MISS LATENCY: 13.45 cycles
cpu0_L1I TOTAL        ACCESS:   26011267 HIT:   21991839 MISS:    4019428
cpu0_L1I LOAD         ACCESS:    8713724 HIT:    7640746 MISS:    1072978
cpu0_L1I RFO          ACCESS:          0 HIT:          0 MISS:          0
cpu0_L1I PREFETCH     ACCESS:   17297543 HIT:   14351093 MISS:    2946450
cpu0_L1I WRITE        ACCESS:          0 HIT:          0 MISS:          0
cpu0_L1I TRANSLATION  ACCESS:          0 HIT:          0 MISS:          0
cpu0_L1I PREFETCH REQUESTED:   42505683 ISSUED:   17297532 USEFUL:    2020104 USELESS:     828667
cpu0_L1I AVERAGE MISS LATENCY: 13.24 cycles
cpu0_L2C TOTAL        ACCESS:    9925627 HIT:    8694606 MISS:    1231021
cpu0_L2C LOAD         ACCESS:    1859125 HIT:    1639557 MISS:     219568
cpu0_L2C RFO          ACCESS:     176339 HIT:     127788 MISS:      48551
cpu0_L2C PREFETCH     ACCESS:    7223955 HIT:    6357209 MISS:     866746
cpu0_L2C WRITE        ACCESS:     514984 HIT:     514966 MISS:         18
cpu0_L2C TRANSLATION  ACCESS:     151224 HIT:      55086 MISS:      96138
cpu0_L2C PREFETCH REQUESTED:    4716800 ISSUED:    4366281 USEFUL:     131964 USELESS:     183417
cpu0_L2C AVERAGE MISS LATENCY: 33.66 cycles
cpu0_STLB TOTAL        ACCESS:     993087 HIT:     866011 MISS:     127076
cpu0_STLB LOAD         ACCESS:     993087 HIT:     866011 MISS:     127076
cpu0_STLB RFO          ACCESS:          0 HIT:          0 MISS:          0
cpu0_STLB PREFETCH     ACCESS:          0 HIT:          0 MISS:          0
cpu0_STLB WRITE        ACCESS:          0 HIT:          0 MISS:          0
cpu0_STLB TRANSLATION  ACCESS:          0 HIT:          0 MISS:          0
cpu0_STLB PREFETCH REQUESTED:          0 ISSUED:          0 USEFUL:          0 USELESS:          0
cpu0_STLB AVERAGE MISS LATENCY: 78.32 cycles

DRAM Statistics

Channel 0 RQ ROW_BUFFER_HIT:      12235
  ROW_BUFFER_MISS:      65683
 AVG DBUS CONGESTED CYCLE: 3.745
WQ ROW_BUFFER_HIT: Channel 0 
  ROW_BUFFER_MISS:       5681
  FULL:      22502

Channel 1 RQ ROW_BUFFER_HIT:      10887
  ROW_BUFFER_MISS:      59783
 AVG DBUS CONGESTED CYCLE: 3.747
WQ ROW_BUFFER_HIT: Channel 1 
  ROW_BUFFER_MISS:       5219
  FULL:      21008
BERTI TO_L1: 127793 TO_L2: 203058 TO_L2_BC_MSHR: 61253
BERTI AVG_LAT: 16.7123 NUM_TRACK_LATENCY: 1461864 NUM_CANT_TRACK_LATENCY: 0
BERTI CROSS_PAGE 34110 NO_CROSS_PAGE: 296741
BERTI FOUND_BERTI: 578909 NO_FOUND_BERTI: 19652513
BERTI AVERAGE_ISSUED: 2.18576
CPU 0 L1I Entangling prefetcher final stats
IP accesses: bfb3 2fecc0 92285 / 8743760
IP misses: 4b3d 12cf40 5141 / 1103014
IP hits: 0 0 0 / 0
IP late: 382d e0b40 1673 / 486892
IP wrong: abec 2afb00 2025 / 826010
miss rate: 0.126149
coverage: 0
coverage_late: 0.44142
accuracy: 0
accuracy_late: 0.370852
discarded: 0
evicts entangled j table: 0
evicts entangled k table: 134636
max bb size: 111
formats: 19517 29335 87428 18884 11360 18649 0 
hist_lookups: 52507 76362 78858 85101 75784 58790 44578 34323 27720 21418 16119 10336 6625 3174 1131 0 510 139293 
hist_lookups_evict: 0.0696124 %
hist_lookups_shortlat: 19.0128 %
bb_found_hist: 0 1903893 1009324 500419 264836 193602 102493 108979 142803 77250 42285 53020 42950 11619 6054 35500 11134 1523 3135 1086 7996 4920 476 1795 999 625 681 624 702 379 481 492 246 158 133 261 226 0 0 0 144 0 0 0 133 0 247 468 0 0 0 0 222 0 0 0 0 0 23 0 246 246 246 0 
bb_found_summary: 13824735 4535074 3.04841
entangled_found_hist: 0 1219089 1249458 1413284 188291 67938 4098 0 
entangled_found_summary: 9075299 4142158 2.19096
bb_ent_found_hist: 0 2743714 1765783 905130 324465 396826 180427 72554 121097 89250 129428 81877 33254 28539 15326 127858 18087 2881 6731 2699 4056 9935 754 10573 5372 267 738 133 3301 685 902 0 246 39 137 988 0 0 0 0 452 0 0 0 920 0 0 899 0 0 0 0 94 0 0 0 0 0 69 0 0 246 0 0 
bb_ent_found_summary: 22263713 7086732 3.14161
