WARNING: physical memory size is smaller than virtual memory size.

*** ChampSim Multicore Out-of-Order Simulator ***
Warmup Instructions: 30000000
Simulation Instructions: 100000000
Number of CPUs: 1
Page size: 4096

BTB:
Basic BTB sets: 1024 ways: 8
Indirect:
history lengths: 0 0 10 16 27 44 60 96 109 219 449 487 714 1313 2146 3881 
ITTAGE tables: 64768 bytes;Region table: 240 bytes;IUM: 384 bytes;Total Storage= 65392 bytes;
RAS:
RAS size: 64
[LLC] Demand IPV: 1 2 2 1 4 Prefetch IPV: 1 2 1 1 4
Berti Prefetcher
CPU 0 Entangling prefetcher
Off-chip DRAM Size: 8 GiB Channels: 2 Width: 64-bit Data Race: 6400 MT/s
Heartbeat CPU 0 instructions: 10000006 cycles: 2218331 heartbeat IPC: 4.508 cumulative IPC: 4.508 (Simulation time: 00 hr 00 min 59 sec)
Heartbeat CPU 0 instructions: 20000004 cycles: 4795783 heartbeat IPC: 3.88 cumulative IPC: 4.17 (Simulation time: 00 hr 02 min 05 sec)
Heartbeat CPU 0 instructions: 30000006 cycles: 6753493 heartbeat IPC: 5.108 cumulative IPC: 4.442 (Simulation time: 00 hr 02 min 58 sec)
Warmup finished CPU 0 instructions: 30000006 cycles: 6753494 cumulative IPC: 4.442 (Simulation time: 00 hr 02 min 58 sec)
Warmup complete CPU 0 instructions: 30000006 cycles: 6753494 cumulative IPC: 4.442 (Simulation time: 00 hr 02 min 58 sec)
*** Reached end of trace: (0, "../traces/public_traces/srv/srv_9.champsimtrace.xz")
Heartbeat CPU 0 instructions: 40000000 cycles: 9941730 heartbeat IPC: 3.137 cumulative IPC: 3.137 (Simulation time: 00 hr 04 min 13 sec)
Heartbeat CPU 0 instructions: 50000007 cycles: 13811649 heartbeat IPC: 2.584 cumulative IPC: 2.834 (Simulation time: 00 hr 05 min 34 sec)
Heartbeat CPU 0 instructions: 60000001 cycles: 17716878 heartbeat IPC: 2.561 cumulative IPC: 2.736 (Simulation time: 00 hr 06 min 45 sec)
*** Reached end of trace: (0, "../traces/public_traces/srv/srv_9.champsimtrace.xz")
Heartbeat CPU 0 instructions: 70000001 cycles: 20816957 heartbeat IPC: 3.226 cumulative IPC: 2.844 (Simulation time: 00 hr 07 min 47 sec)
Heartbeat CPU 0 instructions: 80000003 cycles: 24491206 heartbeat IPC: 2.722 cumulative IPC: 2.819 (Simulation time: 00 hr 09 min 14 sec)
Heartbeat CPU 0 instructions: 90000004 cycles: 28318661 heartbeat IPC: 2.613 cumulative IPC: 2.782 (Simulation time: 00 hr 10 min 36 sec)
*** Reached end of trace: (0, "../traces/public_traces/srv/srv_9.champsimtrace.xz")
Heartbeat CPU 0 instructions: 100000000 cycles: 31421624 heartbeat IPC: 3.223 cumulative IPC: 2.838 (Simulation time: 00 hr 11 min 45 sec)
Heartbeat CPU 0 instructions: 110000000 cycles: 35055406 heartbeat IPC: 2.752 cumulative IPC: 2.827 (Simulation time: 00 hr 12 min 57 sec)
Heartbeat CPU 0 instructions: 120000000 cycles: 38815082 heartbeat IPC: 2.66 cumulative IPC: 2.807 (Simulation time: 00 hr 14 min 11 sec)
*** Reached end of trace: (0, "../traces/public_traces/srv/srv_9.champsimtrace.xz")
Heartbeat CPU 0 instructions: 130000010 cycles: 41916395 heartbeat IPC: 3.224 cumulative IPC: 2.844 (Simulation time: 00 hr 15 min 19 sec)
Simulation finished CPU 0 instructions: 100000004 cycles: 35162902 cumulative IPC: 2.844 (Simulation time: 00 hr 15 min 19 sec)
Simulation complete CPU 0 instructions: 100000004 cycles: 35162902 cumulative IPC: 2.844 (Simulation time: 00 hr 15 min 19 sec)

ChampSim completed all CPUs

=== Simulation ===
CPU 0 runs ../traces/public_traces/srv/srv_9.champsimtrace.xz
Region of Interest Statistics

CPU 0 cumulative IPC: 2.844 instructions: 100000004 cycles: 35162902
CPU 0 Branch Prediction Accuracy: 99.17% MPKI: 1.965 Average ROB Occupancy at Mispredict: 76.51
Branch type MPKI
BRANCH_DIRECT_JUMP: 0.0948
BRANCH_INDIRECT: 1.25
BRANCH_CONDITIONAL: 0.278
BRANCH_DIRECT_CALL: 0.161
BRANCH_INDIRECT_CALL: 0.0293
BRANCH_RETURN: 0.148

LLC TOTAL        ACCESS:     902760 HIT:     321928 MISS:     580832
LLC LOAD         ACCESS:     175854 HIT:      60852 MISS:     115002
LLC RFO          ACCESS:      33927 HIT:      30982 MISS:       2945
LLC PREFETCH     ACCESS:     569604 HIT:     141808 MISS:     427796
LLC WRITE        ACCESS:      88581 HIT:      82556 MISS:       6025
LLC TRANSLATION  ACCESS:      34794 HIT:       5730 MISS:      29064
LLC PREFETCH REQUESTED:          0 ISSUED:          0 USEFUL:          0 USELESS:          0
LLC AVERAGE MISS LATENCY: 153.3 cycles
cpu0_DTLB TOTAL        ACCESS:   22112473 HIT:   18784349 MISS:    3328124
cpu0_DTLB LOAD         ACCESS:   22112473 HIT:   18784349 MISS:    3328124
cpu0_DTLB RFO          ACCESS:          0 HIT:          0 MISS:          0
cpu0_DTLB PREFETCH     ACCESS:          0 HIT:          0 MISS:          0
cpu0_DTLB WRITE        ACCESS:          0 HIT:          0 MISS:          0
cpu0_DTLB TRANSLATION  ACCESS:          0 HIT:          0 MISS:          0
cpu0_DTLB PREFETCH REQUESTED:          0 ISSUED:          0 USEFUL:          0 USELESS:          0
cpu0_DTLB AVERAGE MISS LATENCY: 6.572 cycles
cpu0_ITLB TOTAL        ACCESS:    5125941 HIT:    5063763 MISS:      62178
cpu0_ITLB LOAD         ACCESS:    5125941 HIT:    5063763 MISS:      62178
cpu0_ITLB RFO          ACCESS:          0 HIT:          0 MISS:          0
cpu0_ITLB PREFETCH     ACCESS:          0 HIT:          0 MISS:          0
cpu0_ITLB WRITE        ACCESS:          0 HIT:          0 MISS:          0
cpu0_ITLB TRANSLATION  ACCESS:          0 HIT:          0 MISS:          0
cpu0_ITLB PREFETCH REQUESTED:          0 ISSUED:          0 USEFUL:          0 USELESS:          0
cpu0_ITLB AVERAGE MISS LATENCY: 30.77 cycles
cpu0_L1D TOTAL        ACCESS:   37790886 HIT:   31030899 MISS:    6759987
cpu0_L1D LOAD         ACCESS:   24994507 HIT:   19217942 MISS:    5776565
cpu0_L1D RFO          ACCESS:          0 HIT:          0 MISS:          0
cpu0_L1D PREFETCH     ACCESS:    3930977 HIT:    3392014 MISS:     538963
cpu0_L1D WRITE        ACCESS:    8808982 HIT:    8407459 MISS:     401523
cpu0_L1D TRANSLATION  ACCESS:      56420 HIT:      13484 MISS:      42936
cpu0_L1D PREFETCH REQUESTED:   13244046 ISSUED:    3930945 USEFUL:     277454 USELESS:       2506
cpu0_L1D AVERAGE MISS LATENCY: 18.73 cycles
cpu0_L1I TOTAL        ACCESS:    7512589 HIT:    6816921 MISS:     695668
cpu0_L1I LOAD         ACCESS:    2485347 HIT:    2235541 MISS:     249806
cpu0_L1I RFO          ACCESS:          0 HIT:          0 MISS:          0
cpu0_L1I PREFETCH     ACCESS:    5027242 HIT:    4581380 MISS:     445862
cpu0_L1I WRITE        ACCESS:          0 HIT:          0 MISS:          0
cpu0_L1I TRANSLATION  ACCESS:          0 HIT:          0 MISS:          0
cpu0_L1I PREFETCH REQUESTED:    9615679 ISSUED:    5027242 USEFUL:     270208 USELESS:     150238
cpu0_L1I AVERAGE MISS LATENCY: 20.63 cycles
cpu0_L2C TOTAL        ACCESS:   10583512 HIT:    9113519 MISS:    1469993
cpu0_L2C LOAD         ACCESS:    5632598 HIT:    5443133 MISS:     189465
cpu0_L2C RFO          ACCESS:     121930 HIT:      87884 MISS:      34046
cpu0_L2C PREFETCH     ACCESS:    4592299 HIT:    3380623 MISS:    1211676
cpu0_L2C WRITE        ACCESS:     194257 HIT:     194245 MISS:         12
cpu0_L2C TRANSLATION  ACCESS:      42428 HIT:       7634 MISS:      34794
cpu0_L2C PREFETCH REQUESTED:    6553308 ISSUED:    3681527 USEFUL:     104237 USELESS:     200703
cpu0_L2C AVERAGE MISS LATENCY: 71.61 cycles
cpu0_STLB TOTAL        ACCESS:    2404708 HIT:    2358372 MISS:      46336
cpu0_STLB LOAD         ACCESS:    2404708 HIT:    2358372 MISS:      46336
cpu0_STLB RFO          ACCESS:          0 HIT:          0 MISS:          0
cpu0_STLB PREFETCH     ACCESS:          0 HIT:          0 MISS:          0
cpu0_STLB WRITE        ACCESS:          0 HIT:          0 MISS:          0
cpu0_STLB TRANSLATION  ACCESS:          0 HIT:          0 MISS:          0
cpu0_STLB PREFETCH REQUESTED:          0 ISSUED:          0 USEFUL:          0 USELESS:          0
cpu0_STLB AVERAGE MISS LATENCY: 164.6 cycles

DRAM Statistics

Channel 0 RQ ROW_BUFFER_HIT:     180384
  ROW_BUFFER_MISS:     109723
 AVG DBUS CONGESTED CYCLE: 3.705
WQ ROW_BUFFER_HIT: Channel 0 
  ROW_BUFFER_MISS:       1119
  FULL:       2393

Channel 1 RQ ROW_BUFFER_HIT:     178537
  ROW_BUFFER_MISS:     106162
 AVG DBUS CONGESTED CYCLE: 3.681
WQ ROW_BUFFER_HIT: Channel 1 
  ROW_BUFFER_MISS:        933
  FULL:       1994
BERTI TO_L1: 14351360 TO_L2: 4101024 TO_L2_BC_MSHR: 331190
BERTI AVG_LAT: 22.9196 NUM_TRACK_LATENCY: 7808142 NUM_CANT_TRACK_LATENCY: 4
BERTI CROSS_PAGE 3540888 NO_CROSS_PAGE: 14911496
BERTI FOUND_BERTI: 16278550 NO_FOUND_BERTI: 17748698
BERTI AVERAGE_ISSUED: 2.72158
CPU 0 L1I Entangling prefetcher final stats
IP accesses: 397e e5f80 59056 / 2488935
IP misses: d05a 341680 1007 / 253394
IP hits: 0 0 0 / 0
IP late: ead 3ab40 468 / 115320
IP wrong: edd 3b740 461 / 149545
miss rate: 0.101809
coverage: 0
coverage_late: 0.455102
accuracy: 0
accuracy_late: 0.435392
discarded: 0
evicts entangled j table: 0
evicts entangled k table: 24040
max bb size: 111
formats: 2160 6517 16743 4088 2648 4529 0 
hist_lookups: 13706 18898 16845 15300 12350 10217 7731 5904 4497 3792 2827 1893 1248 587 210 0 0 16259 
hist_lookups_evict: 0 %
hist_lookups_shortlat: 12.2929 %
bb_found_hist: 0 545303 205733 85901 64279 39576 31144 13128 11777 6374 3914 4743 11036 5873 2858 2434 1529 1922 157 169 429 34 420 0 0 728 17 361 0 0 350 0 0 69 0 6 0 0 0 3 0 0 11 0 0 0 0 14 0 0 0 0 0 0 0 0 0 0 0 0 0 0 3 17 
bb_found_summary: 2602005 1040312 2.50118
entangled_found_hist: 0 262620 271374 414303 47606 10836 792 0 
entangled_found_summary: 2297633 1007531 2.28046
bb_ent_found_hist: 0 820000 382876 224902 89901 107101 56011 39385 16676 10597 10418 6247 19587 6484 4045 6127 6722 6914 606 479 3740 73 1354 0 0 8 0 1022 0 0 1765 0 0 429 0 0 0 0 0 4 0 0 696 0 0 0 0 27 0 0 0 0 0 0 0 0 0 0 0 0 0 0 14 17 
bb_ent_found_summary: 5115594 1824227 2.80426
