WARNING: physical memory size is smaller than virtual memory size.

*** ChampSim Multicore Out-of-Order Simulator ***
Warmup Instructions: 30000000
Simulation Instructions: 100000000
Number of CPUs: 1
Page size: 4096

BTB:
Basic BTB sets: 1024 ways: 8
Indirect:
history lengths: 0 0 10 16 27 44 60 96 109 219 449 487 714 1313 2146 3881 
ITTAGE tables: 64768 bytes;Region table: 240 bytes;IUM: 384 bytes;Total Storage= 65392 bytes;
RAS:
RAS size: 64
[LLC] Demand IPV: 1 2 2 1 4 Prefetch IPV: 1 2 1 1 4
Berti Prefetcher
CPU 0 Entangling prefetcher
Off-chip DRAM Size: 8 GiB Channels: 2 Width: 64-bit Data Race: 6400 MT/s
Heartbeat CPU 0 instructions: 10000001 cycles: 1705950 heartbeat IPC: 5.862 cumulative IPC: 5.862 (Simulation time: 00 hr 00 min 44 sec)
Heartbeat CPU 0 instructions: 20000001 cycles: 3413943 heartbeat IPC: 5.855 cumulative IPC: 5.858 (Simulation time: 00 hr 01 min 24 sec)
Heartbeat CPU 0 instructions: 30000004 cycles: 5114772 heartbeat IPC: 5.879 cumulative IPC: 5.865 (Simulation time: 00 hr 02 min 09 sec)
Warmup finished CPU 0 instructions: 30000004 cycles: 5114773 cumulative IPC: 5.865 (Simulation time: 00 hr 02 min 09 sec)
Warmup complete CPU 0 instructions: 30000004 cycles: 5114773 cumulative IPC: 5.865 (Simulation time: 00 hr 02 min 09 sec)
*** Reached end of trace: (0, "../traces/public_traces/srv/srv_8.champsimtrace.xz")
Heartbeat CPU 0 instructions: 40000005 cycles: 8364670 heartbeat IPC: 3.077 cumulative IPC: 3.077 (Simulation time: 00 hr 03 min 15 sec)
Heartbeat CPU 0 instructions: 50000001 cycles: 11461901 heartbeat IPC: 3.229 cumulative IPC: 3.151 (Simulation time: 00 hr 04 min 24 sec)
Heartbeat CPU 0 instructions: 60000000 cycles: 14595235 heartbeat IPC: 3.191 cumulative IPC: 3.164 (Simulation time: 00 hr 05 min 38 sec)
*** Reached end of trace: (0, "../traces/public_traces/srv/srv_8.champsimtrace.xz")
Heartbeat CPU 0 instructions: 70000000 cycles: 18039106 heartbeat IPC: 2.904 cumulative IPC: 3.095 (Simulation time: 00 hr 06 min 43 sec)
Heartbeat CPU 0 instructions: 80000005 cycles: 20974606 heartbeat IPC: 3.407 cumulative IPC: 3.153 (Simulation time: 00 hr 07 min 44 sec)
Heartbeat CPU 0 instructions: 90000003 cycles: 24057985 heartbeat IPC: 3.243 cumulative IPC: 3.167 (Simulation time: 00 hr 08 min 52 sec)
*** Reached end of trace: (0, "../traces/public_traces/srv/srv_8.champsimtrace.xz")
Heartbeat CPU 0 instructions: 100000005 cycles: 27480313 heartbeat IPC: 2.922 cumulative IPC: 3.13 (Simulation time: 00 hr 10 min 08 sec)
Heartbeat CPU 0 instructions: 110000003 cycles: 30497374 heartbeat IPC: 3.314 cumulative IPC: 3.152 (Simulation time: 00 hr 11 min 17 sec)
Heartbeat CPU 0 instructions: 120000004 cycles: 33563568 heartbeat IPC: 3.261 cumulative IPC: 3.164 (Simulation time: 00 hr 12 min 26 sec)
*** Reached end of trace: (0, "../traces/public_traces/srv/srv_8.champsimtrace.xz")
Heartbeat CPU 0 instructions: 130000005 cycles: 36868485 heartbeat IPC: 3.026 cumulative IPC: 3.149 (Simulation time: 00 hr 13 min 38 sec)
Simulation finished CPU 0 instructions: 100000001 cycles: 31753713 cumulative IPC: 3.149 (Simulation time: 00 hr 13 min 38 sec)
Simulation complete CPU 0 instructions: 100000001 cycles: 31753713 cumulative IPC: 3.149 (Simulation time: 00 hr 13 min 38 sec)

ChampSim completed all CPUs

=== Simulation ===
CPU 0 runs ../traces/public_traces/srv/srv_8.champsimtrace.xz
Region of Interest Statistics

CPU 0 cumulative IPC: 3.149 instructions: 100000001 cycles: 31753713
CPU 0 Branch Prediction Accuracy: 98.58% MPKI: 2.368 Average ROB Occupancy at Mispredict: 54.54
Branch type MPKI
BRANCH_DIRECT_JUMP: 0.199
BRANCH_INDIRECT: 1.17
BRANCH_CONDITIONAL: 0.379
BRANCH_DIRECT_CALL: 0.33
BRANCH_INDIRECT_CALL: 0.0266
BRANCH_RETURN: 0.261

LLC TOTAL        ACCESS:    1080373 HIT:     564656 MISS:     515717
LLC LOAD         ACCESS:     155627 HIT:      77690 MISS:      77937
LLC RFO          ACCESS:     119664 HIT:      49802 MISS:      69862
LLC PREFETCH     ACCESS:     460082 HIT:     274406 MISS:     185676
LLC WRITE        ACCESS:     293755 HIT:     149498 MISS:     144257
LLC TRANSLATION  ACCESS:      51245 HIT:      13260 MISS:      37985
LLC PREFETCH REQUESTED:          0 ISSUED:          0 USEFUL:          0 USELESS:          0
LLC AVERAGE MISS LATENCY: 118.8 cycles
cpu0_DTLB TOTAL        ACCESS:   16006690 HIT:   15491992 MISS:     514698
cpu0_DTLB LOAD         ACCESS:   16006690 HIT:   15491992 MISS:     514698
cpu0_DTLB RFO          ACCESS:          0 HIT:          0 MISS:          0
cpu0_DTLB PREFETCH     ACCESS:          0 HIT:          0 MISS:          0
cpu0_DTLB WRITE        ACCESS:          0 HIT:          0 MISS:          0
cpu0_DTLB TRANSLATION  ACCESS:          0 HIT:          0 MISS:          0
cpu0_DTLB PREFETCH REQUESTED:          0 ISSUED:          0 USEFUL:          0 USELESS:          0
cpu0_DTLB AVERAGE MISS LATENCY: 15.33 cycles
cpu0_ITLB TOTAL        ACCESS:   11949166 HIT:   11814793 MISS:     134373
cpu0_ITLB LOAD         ACCESS:   11949166 HIT:   11814793 MISS:     134373
cpu0_ITLB RFO          ACCESS:          0 HIT:          0 MISS:          0
cpu0_ITLB PREFETCH     ACCESS:          0 HIT:          0 MISS:          0
cpu0_ITLB WRITE        ACCESS:          0 HIT:          0 MISS:          0
cpu0_ITLB TRANSLATION  ACCESS:          0 HIT:          0 MISS:          0
cpu0_ITLB PREFETCH REQUESTED:          0 ISSUED:          0 USEFUL:          0 USELESS:          0
cpu0_ITLB AVERAGE MISS LATENCY: 21.67 cycles
cpu0_L1D TOTAL        ACCESS:   24943380 HIT:   22623253 MISS:    2320127
cpu0_L1D LOAD         ACCESS:   14233418 HIT:   12960168 MISS:    1273250
cpu0_L1D RFO          ACCESS:          0 HIT:          0 MISS:          0
cpu0_L1D PREFETCH     ACCESS:     193301 HIT:      96242 MISS:      97059
cpu0_L1D WRITE        ACCESS:   10440393 HIT:    9558718 MISS:     881675
cpu0_L1D TRANSLATION  ACCESS:      76268 HIT:       8125 MISS:      68143
cpu0_L1D PREFETCH REQUESTED:     914849 ISSUED:     193301 USEFUL:      22994 USELESS:       2411
cpu0_L1D AVERAGE MISS LATENCY: 21.4 cycles
cpu0_L1I TOTAL        ACCESS:   18000875 HIT:   16200211 MISS:    1800664
cpu0_L1I LOAD         ACCESS:    6913424 HIT:    6210655 MISS:     702769
cpu0_L1I RFO          ACCESS:          0 HIT:          0 MISS:          0
cpu0_L1I PREFETCH     ACCESS:   11087451 HIT:    9989556 MISS:    1097895
cpu0_L1I WRITE        ACCESS:          0 HIT:          0 MISS:          0
cpu0_L1I TRANSLATION  ACCESS:          0 HIT:          0 MISS:          0
cpu0_L1I PREFETCH REQUESTED:   27269956 ISSUED:   11087464 USEFUL:     775524 USELESS:     273209
cpu0_L1I AVERAGE MISS LATENCY: 14.32 cycles
cpu0_L2C TOTAL        ACCESS:    4969228 HIT:    3963696 MISS:    1005532
cpu0_L2C LOAD         ACCESS:    1103734 HIT:     889322 MISS:     214412
cpu0_L2C RFO          ACCESS:     188298 HIT:      68104 MISS:     120194
cpu0_L2C PREFETCH     ACCESS:    3192392 HIT:    2572713 MISS:     619679
cpu0_L2C WRITE        ACCESS:     417114 HIT:     417113 MISS:          1
cpu0_L2C TRANSLATION  ACCESS:      67690 HIT:      16444 MISS:      51246
cpu0_L2C PREFETCH REQUESTED:    2233445 ISSUED:    2064906 USEFUL:     179707 USELESS:     103419
cpu0_L2C AVERAGE MISS LATENCY: 73.84 cycles
cpu0_STLB TOTAL        ACCESS:     387140 HIT:     328772 MISS:      58368
cpu0_STLB LOAD         ACCESS:     387140 HIT:     328772 MISS:      58368
cpu0_STLB RFO          ACCESS:          0 HIT:          0 MISS:          0
cpu0_STLB PREFETCH     ACCESS:          0 HIT:          0 MISS:          0
cpu0_STLB WRITE        ACCESS:          0 HIT:          0 MISS:          0
cpu0_STLB TRANSLATION  ACCESS:          0 HIT:          0 MISS:          0
cpu0_STLB PREFETCH REQUESTED:          0 ISSUED:          0 USEFUL:          0 USELESS:          0
cpu0_STLB AVERAGE MISS LATENCY: 158.7 cycles

DRAM Statistics

Channel 0 RQ ROW_BUFFER_HIT:      62026
  ROW_BUFFER_MISS:     127566
 AVG DBUS CONGESTED CYCLE: 3.918
WQ ROW_BUFFER_HIT: Channel 0 
  ROW_BUFFER_MISS:      20144
  FULL:      69894

Channel 1 RQ ROW_BUFFER_HIT:      61852
  ROW_BUFFER_MISS:     119971
 AVG DBUS CONGESTED CYCLE: 3.908
WQ ROW_BUFFER_HIT: Channel 1 
  ROW_BUFFER_MISS:      20765
  FULL:      67545
BERTI TO_L1: 285450 TO_L2: 858839 TO_L2_BC_MSHR: 373525
BERTI AVG_LAT: 35.5515 NUM_TRACK_LATENCY: 876265 NUM_CANT_TRACK_LATENCY: 0
BERTI CROSS_PAGE 255528 NO_CROSS_PAGE: 888761
BERTI FOUND_BERTI: 988365 NO_FOUND_BERTI: 18350543
BERTI AVERAGE_ISSUED: 3.14921
CPU 0 L1I Entangling prefetcher final stats
IP accesses: 7e25 1f8940 83172 / 6934125
IP misses: 13b1 4ec40 4530 / 723470
IP hits: 0 0 0 / 0
IP late: a0d 28340 1453 / 306381
IP wrong: edd 3b740 1720 / 271480
miss rate: 0.104335
coverage: 0
coverage_late: 0.423489
accuracy: 0
accuracy_late: 0.530199
discarded: 0
evicts entangled j table: 0
evicts entangled k table: 52754
max bb size: 111
formats: 6670 9616 37276 6370 4664 7639 0 
hist_lookups: 27245 44405 42539 41297 31254 24185 18026 13680 10842 9116 6845 4965 2974 1624 543 0 216 59118 
hist_lookups_evict: 0.0637406 %
hist_lookups_shortlat: 17.4455 %
bb_found_hist: 0 1104911 517657 280545 232272 139996 104638 36310 44126 26368 12686 12476 35718 29412 11295 10805 5227 7057 3397 944 4695 246 1412 1506 0 0 43 927 0 1670 0 0 0 86 0 0 0 0 0 1 0 0 44 0 0 0 0 42 0 0 0 0 0 0 0 0 0 0 0 0 0 0 1 43 
bb_found_summary: 8010017 2626556 3.04963
entangled_found_hist: 0 553044 611488 1210121 61856 23988 5532 0 
entangled_found_summary: 5806939 2466029 2.35478
bb_ent_found_hist: 0 2003829 832197 556162 392341 338695 236149 51286 77830 32068 33571 12048 49543 20321 7467 32007 23748 22598 5046 3261 24587 231 351 5966 0 0 0 78 0 0 0 0 0 303 0 0 0 0 0 1 0 0 103 0 0 0 0 42 0 0 0 0 0 0 0 0 0 0 0 0 0 0 4 3 
bb_ent_found_summary: 14775599 4761836 3.10293
