WARNING: physical memory size is smaller than virtual memory size.

*** ChampSim Multicore Out-of-Order Simulator ***
Warmup Instructions: 30000000
Simulation Instructions: 100000000
Number of CPUs: 1
Page size: 4096

BTB:
Basic BTB sets: 1024 ways: 8
Indirect:
history lengths: 0 0 10 16 27 44 60 96 109 219 449 487 714 1313 2146 3881 
ITTAGE tables: 64768 bytes;Region table: 240 bytes;IUM: 384 bytes;Total Storage= 65392 bytes;
RAS:
RAS size: 64
[LLC] Demand IPV: 1 2 2 1 4 Prefetch IPV: 1 2 1 1 4
Berti Prefetcher
CPU 0 Entangling prefetcher
Off-chip DRAM Size: 8 GiB Channels: 2 Width: 64-bit Data Race: 6400 MT/s
Heartbeat CPU 0 instructions: 10000001 cycles: 1718314 heartbeat IPC: 5.82 cumulative IPC: 5.82 (Simulation time: 00 hr 00 min 47 sec)
Heartbeat CPU 0 instructions: 20000003 cycles: 3436034 heartbeat IPC: 5.822 cumulative IPC: 5.821 (Simulation time: 00 hr 01 min 32 sec)
Heartbeat CPU 0 instructions: 30000009 cycles: 5153689 heartbeat IPC: 5.822 cumulative IPC: 5.821 (Simulation time: 00 hr 02 min 16 sec)
Warmup finished CPU 0 instructions: 30000009 cycles: 5153690 cumulative IPC: 5.821 (Simulation time: 00 hr 02 min 16 sec)
Warmup complete CPU 0 instructions: 30000009 cycles: 5153690 cumulative IPC: 5.821 (Simulation time: 00 hr 02 min 16 sec)
*** Reached end of trace: (0, "../traces/public_traces/srv/srv_26.champsimtrace.xz")
Heartbeat CPU 0 instructions: 40000006 cycles: 9325058 heartbeat IPC: 2.397 cumulative IPC: 2.397 (Simulation time: 00 hr 03 min 21 sec)
Heartbeat CPU 0 instructions: 50000001 cycles: 13504017 heartbeat IPC: 2.393 cumulative IPC: 2.395 (Simulation time: 00 hr 04 min 25 sec)
Heartbeat CPU 0 instructions: 60000006 cycles: 17670085 heartbeat IPC: 2.4 cumulative IPC: 2.397 (Simulation time: 00 hr 05 min 29 sec)
*** Reached end of trace: (0, "../traces/public_traces/srv/srv_26.champsimtrace.xz")
Heartbeat CPU 0 instructions: 70000001 cycles: 21777676 heartbeat IPC: 2.435 cumulative IPC: 2.406 (Simulation time: 00 hr 06 min 33 sec)
Heartbeat CPU 0 instructions: 80000007 cycles: 25897114 heartbeat IPC: 2.428 cumulative IPC: 2.41 (Simulation time: 00 hr 07 min 37 sec)
Heartbeat CPU 0 instructions: 90000003 cycles: 30045157 heartbeat IPC: 2.411 cumulative IPC: 2.41 (Simulation time: 00 hr 08 min 41 sec)
*** Reached end of trace: (0, "../traces/public_traces/srv/srv_26.champsimtrace.xz")
Heartbeat CPU 0 instructions: 100000002 cycles: 34159369 heartbeat IPC: 2.431 cumulative IPC: 2.413 (Simulation time: 00 hr 09 min 45 sec)
Heartbeat CPU 0 instructions: 110000010 cycles: 38264186 heartbeat IPC: 2.436 cumulative IPC: 2.416 (Simulation time: 00 hr 10 min 49 sec)
Heartbeat CPU 0 instructions: 120000001 cycles: 42407372 heartbeat IPC: 2.414 cumulative IPC: 2.416 (Simulation time: 00 hr 11 min 53 sec)
*** Reached end of trace: (0, "../traces/public_traces/srv/srv_26.champsimtrace.xz")
Heartbeat CPU 0 instructions: 130000001 cycles: 46522391 heartbeat IPC: 2.43 cumulative IPC: 2.417 (Simulation time: 00 hr 12 min 57 sec)
Simulation finished CPU 0 instructions: 100000000 cycles: 41368726 cumulative IPC: 2.417 (Simulation time: 00 hr 12 min 57 sec)
Simulation complete CPU 0 instructions: 100000000 cycles: 41368726 cumulative IPC: 2.417 (Simulation time: 00 hr 12 min 57 sec)

ChampSim completed all CPUs

=== Simulation ===
CPU 0 runs ../traces/public_traces/srv/srv_26.champsimtrace.xz
Region of Interest Statistics

CPU 0 cumulative IPC: 2.417 instructions: 100000000 cycles: 41368726
CPU 0 Branch Prediction Accuracy: 92.07% MPKI: 13.95 Average ROB Occupancy at Mispredict: 28.51
Branch type MPKI
BRANCH_DIRECT_JUMP: 1.08
BRANCH_INDIRECT: 5.82
BRANCH_CONDITIONAL: 1.91
BRANCH_DIRECT_CALL: 2.92
BRANCH_INDIRECT_CALL: 0.401
BRANCH_RETURN: 1.82

LLC TOTAL        ACCESS:     112656 HIT:     110962 MISS:       1694
LLC LOAD         ACCESS:      31144 HIT:      30751 MISS:        393
LLC RFO          ACCESS:      24613 HIT:      24418 MISS:        195
LLC PREFETCH     ACCESS:      26782 HIT:      25839 MISS:        943
LLC WRITE        ACCESS:      29472 HIT:      29458 MISS:         14
LLC TRANSLATION  ACCESS:        645 HIT:        496 MISS:        149
LLC PREFETCH REQUESTED:          0 ISSUED:          0 USEFUL:          0 USELESS:          0
LLC AVERAGE MISS LATENCY: 141.4 cycles
cpu0_DTLB TOTAL        ACCESS:   20360412 HIT:   19491070 MISS:     869342
cpu0_DTLB LOAD         ACCESS:   20360412 HIT:   19491070 MISS:     869342
cpu0_DTLB RFO          ACCESS:          0 HIT:          0 MISS:          0
cpu0_DTLB PREFETCH     ACCESS:          0 HIT:          0 MISS:          0
cpu0_DTLB WRITE        ACCESS:          0 HIT:          0 MISS:          0
cpu0_DTLB TRANSLATION  ACCESS:          0 HIT:          0 MISS:          0
cpu0_DTLB PREFETCH REQUESTED:          0 ISSUED:          0 USEFUL:          0 USELESS:          0
cpu0_DTLB AVERAGE MISS LATENCY: 5.035 cycles
cpu0_ITLB TOTAL        ACCESS:   22425487 HIT:   21461933 MISS:     963554
cpu0_ITLB LOAD         ACCESS:   22425487 HIT:   21461933 MISS:     963554
cpu0_ITLB RFO          ACCESS:          0 HIT:          0 MISS:          0
cpu0_ITLB PREFETCH     ACCESS:          0 HIT:          0 MISS:          0
cpu0_ITLB WRITE        ACCESS:          0 HIT:          0 MISS:          0
cpu0_ITLB TRANSLATION  ACCESS:          0 HIT:          0 MISS:          0
cpu0_ITLB PREFETCH REQUESTED:          0 ISSUED:          0 USEFUL:          0 USELESS:          0
cpu0_ITLB AVERAGE MISS LATENCY: 3.795 cycles
cpu0_L1D TOTAL        ACCESS:   30964389 HIT:   27223599 MISS:    3740790
cpu0_L1D LOAD         ACCESS:   17480737 HIT:   15462184 MISS:    2018553
cpu0_L1D RFO          ACCESS:          0 HIT:          0 MISS:          0
cpu0_L1D PREFETCH     ACCESS:      10627 HIT:       6436 MISS:       4191
cpu0_L1D WRITE        ACCESS:   13471660 HIT:   11754897 MISS:    1716763
cpu0_L1D TRANSLATION  ACCESS:       1365 HIT:         82 MISS:       1283
cpu0_L1D PREFETCH REQUESTED:      96667 ISSUED:      10627 USEFUL:        337 USELESS:         38
cpu0_L1D AVERAGE MISS LATENCY: 5.369 cycles
cpu0_L1I TOTAL        ACCESS:   32861024 HIT:   25562343 MISS:    7298681
cpu0_L1I LOAD         ACCESS:   10293886 HIT:    9027593 MISS:    1266293
cpu0_L1I RFO          ACCESS:          0 HIT:          0 MISS:          0
cpu0_L1I PREFETCH     ACCESS:   22567138 HIT:   16534750 MISS:    6032388
cpu0_L1I WRITE        ACCESS:          0 HIT:          0 MISS:          0
cpu0_L1I TRANSLATION  ACCESS:          0 HIT:          0 MISS:          0
cpu0_L1I PREFETCH REQUESTED:   32485796 ISSUED:   22567122 USEFUL:    4637687 USELESS:    1214972
cpu0_L1I AVERAGE MISS LATENCY: 10.61 cycles
cpu0_L2C TOTAL        ACCESS:   17439706 HIT:   17346817 MISS:      92889
cpu0_L2C LOAD         ACCESS:    2299189 HIT:    2267457 MISS:      31732
cpu0_L2C RFO          ACCESS:     552335 HIT:     527606 MISS:      24729
cpu0_L2C PREFETCH     ACCESS:   13594706 HIT:   13559044 MISS:      35662
cpu0_L2C WRITE        ACCESS:     992195 HIT:     992074 MISS:        121
cpu0_L2C TRANSLATION  ACCESS:       1281 HIT:        636 MISS:        645
cpu0_L2C PREFETCH REQUESTED:    8153901 ISSUED:    7739990 USEFUL:       4641 USELESS:      12706
cpu0_L2C AVERAGE MISS LATENCY: 20.49 cycles
cpu0_STLB TOTAL        ACCESS:    1174283 HIT:    1173012 MISS:       1271
cpu0_STLB LOAD         ACCESS:    1174283 HIT:    1173012 MISS:       1271
cpu0_STLB RFO          ACCESS:          0 HIT:          0 MISS:          0
cpu0_STLB PREFETCH     ACCESS:          0 HIT:          0 MISS:          0
cpu0_STLB WRITE        ACCESS:          0 HIT:          0 MISS:          0
cpu0_STLB TRANSLATION  ACCESS:          0 HIT:          0 MISS:          0
cpu0_STLB PREFETCH REQUESTED:          0 ISSUED:          0 USEFUL:          0 USELESS:          0
cpu0_STLB AVERAGE MISS LATENCY: 52.29 cycles

DRAM Statistics

Channel 0 RQ ROW_BUFFER_HIT:        194
  ROW_BUFFER_MISS:        633
 AVG DBUS CONGESTED CYCLE: 3.593
WQ ROW_BUFFER_HIT: Channel 0 
  ROW_BUFFER_MISS:          0
  FULL:         13

Channel 1 RQ ROW_BUFFER_HIT:        219
  ROW_BUFFER_MISS:        634
 AVG DBUS CONGESTED CYCLE: 3.594
WQ ROW_BUFFER_HIT: Channel 1 
  ROW_BUFFER_MISS:          0
  FULL:          0
BERTI TO_L1: 30041 TO_L2: 116390 TO_L2_BC_MSHR: 25026
BERTI AVG_LAT: 10.1486 NUM_TRACK_LATENCY: 1891051 NUM_CANT_TRACK_LATENCY: 0
BERTI CROSS_PAGE 22103 NO_CROSS_PAGE: 124328
BERTI FOUND_BERTI: 642905 NO_FOUND_BERTI: 21694104
BERTI AVERAGE_ISSUED: 2.40015
CPU 0 L1I Entangling prefetcher final stats
IP accesses: a3d2 28f480 41334 / 10305249
IP misses: 8fc6 23f180 8491 / 1277656
IP hits: 0 0 0 / 0
IP late: a3d3 28f4c0 3372 / 648576
IP wrong: 26c0 9b000 5493 / 1209838
miss rate: 0.123982
coverage: 0
coverage_late: 0.50763
accuracy: 0
accuracy_late: 0.348995
discarded: 0
evicts entangled j table: 0
evicts entangled k table: 224977
max bb size: 13
formats: 96615 31498 128066 23076 12600 25078 0 
hist_lookups: 74864 119840 118366 116703 103996 88985 73327 60999 49919 37503 28497 20204 14215 7870 2805 0 3 184756 
hist_lookups_evict: 0.000272022 %
hist_lookups_shortlat: 16.7526 %
bb_found_hist: 0 2531814 1046499 503468 224828 112455 98230 24500 6590 4721 8186 6590 2215 1420 0 0 0 0 0 0 0 0 0 0 0 0 0 0 0 0 0 0 0 0 0 0 0 0 0 0 0 0 0 0 0 0 0 0 0 0 0 0 0 0 0 0 0 0 0 0 0 0 0 0 
bb_found_summary: 8652282 4571516 1.89266
entangled_found_hist: 0 1750967 1259700 1954738 296898 82166 15237 0 
entangled_found_summary: 11824425 5359706 2.20618
bb_ent_found_hist: 0 3541058 2112906 987078 529612 205524 205749 68372 14307 1677 11215 24481 7551 10362 0 0 0 0 0 0 0 0 0 0 0 0 0 0 0 0 0 0 0 0 0 0 0 0 0 0 0 0 0 0 0 0 0 0 0 0 0 0 0 0 0 0 0 0 0 0 0 0 0 0 
bb_ent_found_summary: 16323578 7719892 2.11449
