WARNING: physical memory size is smaller than virtual memory size.

*** ChampSim Multicore Out-of-Order Simulator ***
Warmup Instructions: 30000000
Simulation Instructions: 100000000
Number of CPUs: 1
Page size: 4096

BTB:
Basic BTB sets: 1024 ways: 8
Indirect:
history lengths: 0 0 10 16 27 44 60 96 109 219 449 487 714 1313 2146 3881 
ITTAGE tables: 64768 bytes;Region table: 240 bytes;IUM: 384 bytes;Total Storage= 65392 bytes;
RAS:
RAS size: 64
[LLC] Demand IPV: 1 2 2 1 4 Prefetch IPV: 1 2 1 1 4
Berti Prefetcher
CPU 0 Entangling prefetcher
Off-chip DRAM Size: 8 GiB Channels: 2 Width: 64-bit Data Race: 6400 MT/s
Heartbeat CPU 0 instructions: 10000008 cycles: 1698126 heartbeat IPC: 5.889 cumulative IPC: 5.889 (Simulation time: 00 hr 00 min 56 sec)
Heartbeat CPU 0 instructions: 20000011 cycles: 3396291 heartbeat IPC: 5.889 cumulative IPC: 5.889 (Simulation time: 00 hr 01 min 48 sec)
Heartbeat CPU 0 instructions: 30000001 cycles: 5097054 heartbeat IPC: 5.88 cumulative IPC: 5.886 (Simulation time: 00 hr 02 min 37 sec)
Warmup finished CPU 0 instructions: 30000001 cycles: 5097055 cumulative IPC: 5.886 (Simulation time: 00 hr 02 min 37 sec)
Warmup complete CPU 0 instructions: 30000001 cycles: 5097055 cumulative IPC: 5.886 (Simulation time: 00 hr 02 min 37 sec)
*** Reached end of trace: (0, "../traces/public_traces/srv/srv_62.champsimtrace.xz")
Heartbeat CPU 0 instructions: 40000001 cycles: 8458799 heartbeat IPC: 2.975 cumulative IPC: 2.975 (Simulation time: 00 hr 03 min 40 sec)
Heartbeat CPU 0 instructions: 50000008 cycles: 11937308 heartbeat IPC: 2.875 cumulative IPC: 2.924 (Simulation time: 00 hr 04 min 40 sec)
Heartbeat CPU 0 instructions: 60000000 cycles: 15128547 heartbeat IPC: 3.134 cumulative IPC: 2.991 (Simulation time: 00 hr 05 min 37 sec)
*** Reached end of trace: (0, "../traces/public_traces/srv/srv_62.champsimtrace.xz")
Heartbeat CPU 0 instructions: 70000002 cycles: 18372634 heartbeat IPC: 3.083 cumulative IPC: 3.013 (Simulation time: 00 hr 06 min 34 sec)
Heartbeat CPU 0 instructions: 80000000 cycles: 21814807 heartbeat IPC: 2.905 cumulative IPC: 2.991 (Simulation time: 00 hr 07 min 34 sec)
Heartbeat CPU 0 instructions: 90000004 cycles: 24993228 heartbeat IPC: 3.146 cumulative IPC: 3.016 (Simulation time: 00 hr 08 min 48 sec)
*** Reached end of trace: (0, "../traces/public_traces/srv/srv_62.champsimtrace.xz")
Heartbeat CPU 0 instructions: 100000007 cycles: 28127922 heartbeat IPC: 3.19 cumulative IPC: 3.039 (Simulation time: 00 hr 09 min 58 sec)
Heartbeat CPU 0 instructions: 110000005 cycles: 31543419 heartbeat IPC: 2.928 cumulative IPC: 3.025 (Simulation time: 00 hr 10 min 59 sec)
Heartbeat CPU 0 instructions: 120000003 cycles: 34780090 heartbeat IPC: 3.09 cumulative IPC: 3.032 (Simulation time: 00 hr 11 min 56 sec)
*** Reached end of trace: (0, "../traces/public_traces/srv/srv_62.champsimtrace.xz")
Heartbeat CPU 0 instructions: 130000009 cycles: 37824261 heartbeat IPC: 3.285 cumulative IPC: 3.056 (Simulation time: 00 hr 12 min 55 sec)
Simulation finished CPU 0 instructions: 100000008 cycles: 32727207 cumulative IPC: 3.056 (Simulation time: 00 hr 12 min 55 sec)
Simulation complete CPU 0 instructions: 100000008 cycles: 32727207 cumulative IPC: 3.056 (Simulation time: 00 hr 12 min 55 sec)

ChampSim completed all CPUs

=== Simulation ===
CPU 0 runs ../traces/public_traces/srv/srv_62.champsimtrace.xz
Region of Interest Statistics

CPU 0 cumulative IPC: 3.056 instructions: 100000008 cycles: 32727207
CPU 0 Branch Prediction Accuracy: 96.6% MPKI: 6.084 Average ROB Occupancy at Mispredict: 45.99
Branch type MPKI
BRANCH_DIRECT_JUMP: 0.459
BRANCH_INDIRECT: 3.25
BRANCH_CONDITIONAL: 0.817
BRANCH_DIRECT_CALL: 0.858
BRANCH_INDIRECT_CALL: 0.0555
BRANCH_RETURN: 0.648

LLC TOTAL        ACCESS:     668938 HIT:     536541 MISS:     132397
LLC LOAD         ACCESS:     122388 HIT:      92693 MISS:      29695
LLC RFO          ACCESS:      33080 HIT:      28001 MISS:       5079
LLC PREFETCH     ACCESS:     323892 HIT:     263775 MISS:      60117
LLC WRITE        ACCESS:     142378 HIT:     126219 MISS:      16159
LLC TRANSLATION  ACCESS:      47200 HIT:      25853 MISS:      21347
LLC PREFETCH REQUESTED:          0 ISSUED:          0 USEFUL:          0 USELESS:          0
LLC AVERAGE MISS LATENCY: 135.3 cycles
cpu0_DTLB TOTAL        ACCESS:   16651137 HIT:   15626836 MISS:    1024301
cpu0_DTLB LOAD         ACCESS:   16651137 HIT:   15626836 MISS:    1024301
cpu0_DTLB RFO          ACCESS:          0 HIT:          0 MISS:          0
cpu0_DTLB PREFETCH     ACCESS:          0 HIT:          0 MISS:          0
cpu0_DTLB WRITE        ACCESS:          0 HIT:          0 MISS:          0
cpu0_DTLB TRANSLATION  ACCESS:          0 HIT:          0 MISS:          0
cpu0_DTLB PREFETCH REQUESTED:          0 ISSUED:          0 USEFUL:          0 USELESS:          0
cpu0_DTLB AVERAGE MISS LATENCY: 8.869 cycles
cpu0_ITLB TOTAL        ACCESS:   16585820 HIT:   16078616 MISS:     507204
cpu0_ITLB LOAD         ACCESS:   16585820 HIT:   16078616 MISS:     507204
cpu0_ITLB RFO          ACCESS:          0 HIT:          0 MISS:          0
cpu0_ITLB PREFETCH     ACCESS:          0 HIT:          0 MISS:          0
cpu0_ITLB WRITE        ACCESS:          0 HIT:          0 MISS:          0
cpu0_ITLB TRANSLATION  ACCESS:          0 HIT:          0 MISS:          0
cpu0_ITLB PREFETCH REQUESTED:          0 ISSUED:          0 USEFUL:          0 USELESS:          0
cpu0_ITLB AVERAGE MISS LATENCY: 5.989 cycles
cpu0_L1D TOTAL        ACCESS:   25195874 HIT:   22993328 MISS:    2202546
cpu0_L1D LOAD         ACCESS:   15002246 HIT:   13350831 MISS:    1651415
cpu0_L1D RFO          ACCESS:          0 HIT:          0 MISS:          0
cpu0_L1D PREFETCH     ACCESS:        275 HIT:        101 MISS:        174
cpu0_L1D WRITE        ACCESS:   10091156 HIT:    9634580 MISS:     456576
cpu0_L1D TRANSLATION  ACCESS:     102197 HIT:       7816 MISS:      94381
cpu0_L1D PREFETCH REQUESTED:        275 ISSUED:        275 USEFUL:          8 USELESS:          0
cpu0_L1D AVERAGE MISS LATENCY: 11.71 cycles
cpu0_L1I TOTAL        ACCESS:   24736819 HIT:   20818423 MISS:    3918396
cpu0_L1I LOAD         ACCESS:    8538898 HIT:    7274507 MISS:    1264391
cpu0_L1I RFO          ACCESS:          0 HIT:          0 MISS:          0
cpu0_L1I PREFETCH     ACCESS:   16197921 HIT:   13543916 MISS:    2654005
cpu0_L1I WRITE        ACCESS:          0 HIT:          0 MISS:          0
cpu0_L1I TRANSLATION  ACCESS:          0 HIT:          0 MISS:          0
cpu0_L1I PREFETCH REQUESTED:   41296375 ISSUED:   16197912 USEFUL:    1800773 USELESS:     743567
cpu0_L1I AVERAGE MISS LATENCY: 12.11 cycles
cpu0_L2C TOTAL        ACCESS:    9207482 HIT:    8572381 MISS:     635101
cpu0_L2C LOAD         ACCESS:    1948169 HIT:    1806939 MISS:     141230
cpu0_L2C RFO          ACCESS:     166339 HIT:     132963 MISS:      33376
cpu0_L2C PREFETCH     ACCESS:    6480596 HIT:    6067320 MISS:     413276
cpu0_L2C WRITE        ACCESS:     518773 HIT:     518754 MISS:         19
cpu0_L2C TRANSLATION  ACCESS:      93605 HIT:      46405 MISS:      47200
cpu0_L2C PREFETCH REQUESTED:    4492655 ISSUED:    3936110 USEFUL:      91985 USELESS:     102518
cpu0_L2C AVERAGE MISS LATENCY: 43.74 cycles
cpu0_STLB TOTAL        ACCESS:     965867 HIT:     894526 MISS:      71341
cpu0_STLB LOAD         ACCESS:     965867 HIT:     894526 MISS:      71341
cpu0_STLB RFO          ACCESS:          0 HIT:          0 MISS:          0
cpu0_STLB PREFETCH     ACCESS:          0 HIT:          0 MISS:          0
cpu0_STLB WRITE        ACCESS:          0 HIT:          0 MISS:          0
cpu0_STLB TRANSLATION  ACCESS:          0 HIT:          0 MISS:          0
cpu0_STLB PREFETCH REQUESTED:          0 ISSUED:          0 USEFUL:          0 USELESS:          0
cpu0_STLB AVERAGE MISS LATENCY: 87.97 cycles

DRAM Statistics

Channel 0 RQ ROW_BUFFER_HIT:      15629
  ROW_BUFFER_MISS:      44278
 AVG DBUS CONGESTED CYCLE: 3.807
WQ ROW_BUFFER_HIT: Channel 0 
  ROW_BUFFER_MISS:       3435
  FULL:      14390

Channel 1 RQ ROW_BUFFER_HIT:      14236
  ROW_BUFFER_MISS:      42095
 AVG DBUS CONGESTED CYCLE: 3.799
WQ ROW_BUFFER_HIT: Channel 1 
  ROW_BUFFER_MISS:       2971
  FULL:      13389
BERTI TO_L1: 8 TO_L2: 278 TO_L2_BC_MSHR: 0
BERTI AVG_LAT: 15.4439 NUM_TRACK_LATENCY: 1409029 NUM_CANT_TRACK_LATENCY: 0
BERTI CROSS_PAGE 15 NO_CROSS_PAGE: 271
BERTI FOUND_BERTI: 467973 NO_FOUND_BERTI: 19400001
BERTI AVERAGE_ISSUED: 1.33024
CPU 0 L1I Entangling prefetcher final stats
IP accesses: bfb3 2fecc0 101675 / 8593962
IP misses: 3a80 ea000 6565 / 1319455
IP hits: 0 0 0 / 0
IP late: 3a83 ea0c0 2033 / 556483
IP wrong: 46fd 11bf40 2168 / 740418
miss rate: 0.153533
coverage: 0
coverage_late: 0.421753
accuracy: 0
accuracy_late: 0.429087
discarded: 0
evicts entangled j table: 0
evicts entangled k table: 155174
max bb size: 111
formats: 21648 27603 98134 21111 13399 20231 0 
hist_lookups: 52588 85150 89162 92984 84319 67877 51498 39073 31676 24442 18314 12015 7616 3857 1204 0 774 166974 
hist_lookups_evict: 0.0933067 %
hist_lookups_shortlat: 20.129 %
bb_found_hist: 0 1822334 994612 402467 302007 192726 78097 156815 165499 99310 47227 82570 19070 10808 17120 38939 7650 2552 4649 1999 3779 1211 322 1001 0 1592 484 691 0 480 295 761 254 279 267 26 0 254 0 0 254 0 0 0 240 0 0 254 0 0 0 0 0 0 0 0 0 0 0 0 254 0 254 0 
bb_found_summary: 14184669 4459403 3.18085
entangled_found_hist: 0 1307856 1123670 1420399 185186 59474 7387 0 
entangled_found_summary: 8898829 4103972 2.16835
bb_ent_found_hist: 0 2717627 1704409 747559 435439 480666 197780 122283 120090 57315 24429 68691 29642 37988 21994 97882 29299 8856 3945 7472 9535 1767 364 0 0 5396 1013 1264 0 0 60 298 254 377 1511 0 0 0 0 0 1426 0 0 0 1075 0 0 1001 0 0 0 0 0 0 0 0 0 0 0 0 0 0 458 0 
bb_ent_found_summary: 21185268 6939165 3.053
