WARNING: physical memory size is smaller than virtual memory size.

*** ChampSim Multicore Out-of-Order Simulator ***
Warmup Instructions: 30000000
Simulation Instructions: 100000000
Number of CPUs: 1
Page size: 4096

BTB:
Basic BTB sets: 1024 ways: 8
Indirect:
history lengths: 0 0 10 16 27 44 60 96 109 219 449 487 714 1313 2146 3881 
ITTAGE tables: 64768 bytes;Region table: 240 bytes;IUM: 384 bytes;Total Storage= 65392 bytes;
RAS:
RAS size: 64
[LLC] Demand IPV: 1 2 2 1 4 Prefetch IPV: 1 2 1 1 4
Berti Prefetcher
CPU 0 Entangling prefetcher
Off-chip DRAM Size: 8 GiB Channels: 2 Width: 64-bit Data Race: 6400 MT/s
Heartbeat CPU 0 instructions: 10000002 cycles: 1700320 heartbeat IPC: 5.881 cumulative IPC: 5.881 (Simulation time: 00 hr 00 min 44 sec)
Heartbeat CPU 0 instructions: 20000011 cycles: 3399314 heartbeat IPC: 5.886 cumulative IPC: 5.884 (Simulation time: 00 hr 01 min 27 sec)
Heartbeat CPU 0 instructions: 30000003 cycles: 5099959 heartbeat IPC: 5.88 cumulative IPC: 5.882 (Simulation time: 00 hr 02 min 09 sec)
Warmup finished CPU 0 instructions: 30000003 cycles: 5099960 cumulative IPC: 5.882 (Simulation time: 00 hr 02 min 09 sec)
Warmup complete CPU 0 instructions: 30000003 cycles: 5099960 cumulative IPC: 5.882 (Simulation time: 00 hr 02 min 09 sec)
*** Reached end of trace: (0, "../traces/public_traces/srv/srv_7.champsimtrace.xz")
Heartbeat CPU 0 instructions: 40000001 cycles: 8967381 heartbeat IPC: 2.586 cumulative IPC: 2.586 (Simulation time: 00 hr 03 min 16 sec)
Heartbeat CPU 0 instructions: 50000011 cycles: 12693156 heartbeat IPC: 2.684 cumulative IPC: 2.634 (Simulation time: 00 hr 04 min 33 sec)
Heartbeat CPU 0 instructions: 60000003 cycles: 16389150 heartbeat IPC: 2.706 cumulative IPC: 2.657 (Simulation time: 00 hr 05 min 46 sec)
*** Reached end of trace: (0, "../traces/public_traces/srv/srv_7.champsimtrace.xz")
Heartbeat CPU 0 instructions: 70000004 cycles: 20110870 heartbeat IPC: 2.687 cumulative IPC: 2.665 (Simulation time: 00 hr 06 min 59 sec)
Heartbeat CPU 0 instructions: 80000000 cycles: 23792810 heartbeat IPC: 2.716 cumulative IPC: 2.675 (Simulation time: 00 hr 08 min 11 sec)
Heartbeat CPU 0 instructions: 90000002 cycles: 27462978 heartbeat IPC: 2.725 cumulative IPC: 2.683 (Simulation time: 00 hr 09 min 24 sec)
*** Reached end of trace: (0, "../traces/public_traces/srv/srv_7.champsimtrace.xz")
Heartbeat CPU 0 instructions: 100000001 cycles: 31070253 heartbeat IPC: 2.772 cumulative IPC: 2.695 (Simulation time: 00 hr 10 min 30 sec)
Heartbeat CPU 0 instructions: 110000003 cycles: 34761068 heartbeat IPC: 2.709 cumulative IPC: 2.697 (Simulation time: 00 hr 11 min 32 sec)
Heartbeat CPU 0 instructions: 120000004 cycles: 38442783 heartbeat IPC: 2.716 cumulative IPC: 2.699 (Simulation time: 00 hr 12 min 34 sec)
*** Reached end of trace: (0, "../traces/public_traces/srv/srv_7.champsimtrace.xz")
Heartbeat CPU 0 instructions: 130000003 cycles: 41993372 heartbeat IPC: 2.816 cumulative IPC: 2.711 (Simulation time: 00 hr 13 min 37 sec)
Simulation finished CPU 0 instructions: 100000000 cycles: 36893413 cumulative IPC: 2.711 (Simulation time: 00 hr 13 min 37 sec)
Simulation complete CPU 0 instructions: 100000000 cycles: 36893413 cumulative IPC: 2.711 (Simulation time: 00 hr 13 min 37 sec)

ChampSim completed all CPUs

=== Simulation ===
CPU 0 runs ../traces/public_traces/srv/srv_7.champsimtrace.xz
Region of Interest Statistics

CPU 0 cumulative IPC: 2.711 instructions: 100000000 cycles: 36893413
CPU 0 Branch Prediction Accuracy: 95.74% MPKI: 7.645 Average ROB Occupancy at Mispredict: 42.18
Branch type MPKI
BRANCH_DIRECT_JUMP: 0.632
BRANCH_INDIRECT: 3.9
BRANCH_CONDITIONAL: 1.03
BRANCH_DIRECT_CALL: 1.16
BRANCH_INDIRECT_CALL: 0.0914
BRANCH_RETURN: 0.837

LLC TOTAL        ACCESS:     905196 HIT:     721781 MISS:     183415
LLC LOAD         ACCESS:     153876 HIT:     115392 MISS:      38484
LLC RFO          ACCESS:      46343 HIT:      36847 MISS:       9496
LLC PREFETCH     ACCESS:     463965 HIT:     381854 MISS:      82111
LLC WRITE        ACCESS:     164021 HIT:     144475 MISS:      19546
LLC TRANSLATION  ACCESS:      76991 HIT:      43213 MISS:      33778
LLC PREFETCH REQUESTED:          0 ISSUED:          0 USEFUL:          0 USELESS:          0
LLC AVERAGE MISS LATENCY: 140.2 cycles
cpu0_DTLB TOTAL        ACCESS:   16901394 HIT:   15894304 MISS:    1007090
cpu0_DTLB LOAD         ACCESS:   16901394 HIT:   15894304 MISS:    1007090
cpu0_DTLB RFO          ACCESS:          0 HIT:          0 MISS:          0
cpu0_DTLB PREFETCH     ACCESS:          0 HIT:          0 MISS:          0
cpu0_DTLB WRITE        ACCESS:          0 HIT:          0 MISS:          0
cpu0_DTLB TRANSLATION  ACCESS:          0 HIT:          0 MISS:          0
cpu0_DTLB PREFETCH REQUESTED:          0 ISSUED:          0 USEFUL:          0 USELESS:          0
cpu0_DTLB AVERAGE MISS LATENCY: 10.64 cycles
cpu0_ITLB TOTAL        ACCESS:   16648148 HIT:   16096041 MISS:     552107
cpu0_ITLB LOAD         ACCESS:   16648148 HIT:   16096041 MISS:     552107
cpu0_ITLB RFO          ACCESS:          0 HIT:          0 MISS:          0
cpu0_ITLB PREFETCH     ACCESS:          0 HIT:          0 MISS:          0
cpu0_ITLB WRITE        ACCESS:          0 HIT:          0 MISS:          0
cpu0_ITLB TRANSLATION  ACCESS:          0 HIT:          0 MISS:          0
cpu0_ITLB PREFETCH REQUESTED:          0 ISSUED:          0 USEFUL:          0 USELESS:          0
cpu0_ITLB AVERAGE MISS LATENCY: 8.569 cycles
cpu0_L1D TOTAL        ACCESS:   25425697 HIT:   23113151 MISS:    2312546
cpu0_L1D LOAD         ACCESS:   15099369 HIT:   13415551 MISS:    1683818
cpu0_L1D RFO          ACCESS:          0 HIT:          0 MISS:          0
cpu0_L1D PREFETCH     ACCESS:       2273 HIT:        943 MISS:       1330
cpu0_L1D WRITE        ACCESS:   10169744 HIT:    9683400 MISS:     486344
cpu0_L1D TRANSLATION  ACCESS:     154311 HIT:      13257 MISS:     141054
cpu0_L1D PREFETCH REQUESTED:       2273 ISSUED:       2273 USEFUL:         22 USELESS:          0
cpu0_L1D AVERAGE MISS LATENCY: 13.94 cycles
cpu0_L1I TOTAL        ACCESS:   24854663 HIT:   20952817 MISS:    3901846
cpu0_L1I LOAD         ACCESS:    8543302 HIT:    7380803 MISS:    1162499
cpu0_L1I RFO          ACCESS:          0 HIT:          0 MISS:          0
cpu0_L1I PREFETCH     ACCESS:   16311361 HIT:   13572014 MISS:    2739347
cpu0_L1I WRITE        ACCESS:          0 HIT:          0 MISS:          0
cpu0_L1I TRANSLATION  ACCESS:          0 HIT:          0 MISS:          0
cpu0_L1I PREFETCH REQUESTED:   42318283 ISSUED:   16311381 USEFUL:    1877431 USELESS:     760967
cpu0_L1I AVERAGE MISS LATENCY: 12.73 cycles
cpu0_L2C TOTAL        ACCESS:    9452252 HIT:    8547901 MISS:     904351
cpu0_L2C LOAD         ACCESS:    1886337 HIT:    1712454 MISS:     173883
cpu0_L2C RFO          ACCESS:     178785 HIT:     131973 MISS:      46812
cpu0_L2C PREFETCH     ACCESS:    6723770 HIT:    6117126 MISS:     606644
cpu0_L2C WRITE        ACCESS:     523290 HIT:     523271 MISS:         19
cpu0_L2C TRANSLATION  ACCESS:     140070 HIT:      63077 MISS:      76993
cpu0_L2C PREFETCH REQUESTED:    4526053 ISSUED:    4084054 USEFUL:     102196 USELESS:     144973
cpu0_L2C AVERAGE MISS LATENCY: 43.99 cycles
cpu0_STLB TOTAL        ACCESS:     969178 HIT:     858193 MISS:     110985
cpu0_STLB LOAD         ACCESS:     969178 HIT:     858193 MISS:     110985
cpu0_STLB RFO          ACCESS:          0 HIT:          0 MISS:          0
cpu0_STLB PREFETCH     ACCESS:          0 HIT:          0 MISS:          0
cpu0_STLB WRITE        ACCESS:          0 HIT:          0 MISS:          0
cpu0_STLB TRANSLATION  ACCESS:          0 HIT:          0 MISS:          0
cpu0_STLB PREFETCH REQUESTED:          0 ISSUED:          0 USEFUL:          0 USELESS:          0
cpu0_STLB AVERAGE MISS LATENCY: 88.98 cycles

DRAM Statistics

Channel 0 RQ ROW_BUFFER_HIT:      20667
  ROW_BUFFER_MISS:      64588
 AVG DBUS CONGESTED CYCLE: 3.804
WQ ROW_BUFFER_HIT: Channel 0 
  ROW_BUFFER_MISS:       4828
  FULL:      18736

Channel 1 RQ ROW_BUFFER_HIT:      19467
  ROW_BUFFER_MISS:      59145
 AVG DBUS CONGESTED CYCLE: 3.798
WQ ROW_BUFFER_HIT: Channel 1 
  ROW_BUFFER_MISS:       4453
  FULL:      17346
BERTI TO_L1: 22 TO_L2: 2268 TO_L2_BC_MSHR: 0
BERTI AVG_LAT: 17.0838 NUM_TRACK_LATENCY: 1427876 NUM_CANT_TRACK_LATENCY: 0
BERTI CROSS_PAGE 82 NO_CROSS_PAGE: 2208
BERTI FOUND_BERTI: 504166 NO_FOUND_BERTI: 19438326
BERTI AVERAGE_ISSUED: 1.45768
CPU 0 L1I Entangling prefetcher final stats
IP accesses: bfb3 2fecc0 94656 / 8586803
IP misses: 4b3d 12cf40 5937 / 1206000
IP hits: 0 0 0 / 0
IP late: 3a83 ea0c0 1593 / 517684
IP wrong: 3a86 ea180 1932 / 757696
miss rate: 0.140449
coverage: 0
coverage_late: 0.429258
accuracy: 0
accuracy_late: 0.405906
discarded: 0
evicts entangled j table: 0
evicts entangled k table: 144367
max bb size: 111
formats: 20477 28561 93272 19871 11788 18638 0 
hist_lookups: 51444 78605 82989 87799 78224 60455 46913 37224 30272 23693 18275 11824 7230 3615 1070 0 540 164643 
hist_lookups_evict: 0.0688061 %
hist_lookups_shortlat: 20.9786 %
bb_found_hist: 0 1799276 1009997 482469 280249 195570 104651 116185 141308 25681 69118 51583 47915 14224 10026 37634 11035 3334 2434 2399 914 448 4788 1661 840 865 224 727 250 224 487 698 237 355 0 378 0 0 0 0 0 0 0 0 224 1292 0 234 0 0 0 0 237 0 0 0 0 0 0 0 237 0 0 0 
bb_found_summary: 13640583 4420408 3.08582
entangled_found_hist: 0 1261120 1202268 1417625 166887 65644 4769 0 
entangled_found_summary: 8942913 4118313 2.1715
bb_ent_found_hist: 0 2700929 1759255 790205 367326 299910 351066 95865 109247 73704 108196 52061 29075 34645 10905 122638 29463 6365 26887 5957 1677 0 30582 2293 4005 237 1283 13 997 461 1305 672 474 11 0 1165 0 0 0 0 0 0 0 0 1295 5 0 861 0 0 0 0 0 0 0 0 0 0 0 0 0 0 0 0 
bb_ent_found_summary: 22646671 7021035 3.22555
