WARNING: physical memory size is smaller than virtual memory size.

*** ChampSim Multicore Out-of-Order Simulator ***
Warmup Instructions: 30000000
Simulation Instructions: 100000000
Number of CPUs: 1
Page size: 4096

BTB:
Basic BTB sets: 1024 ways: 8
Indirect:
history lengths: 0 0 10 16 27 44 60 96 109 219 449 487 714 1313 2146 3881 
ITTAGE tables: 64768 bytes;Region table: 240 bytes;IUM: 384 bytes;Total Storage= 65392 bytes;
RAS:
RAS size: 64
[LLC] Demand IPV: 1 2 2 1 4 Prefetch IPV: 1 2 1 1 4
Berti Prefetcher
CPU 0 Entangling prefetcher
Off-chip DRAM Size: 8 GiB Channels: 2 Width: 64-bit Data Race: 6400 MT/s
Heartbeat CPU 0 instructions: 10000007 cycles: 1811728 heartbeat IPC: 5.52 cumulative IPC: 5.52 (Simulation time: 00 hr 00 min 49 sec)
Heartbeat CPU 0 instructions: 20000007 cycles: 3625648 heartbeat IPC: 5.513 cumulative IPC: 5.516 (Simulation time: 00 hr 01 min 37 sec)
Heartbeat CPU 0 instructions: 30000003 cycles: 5436590 heartbeat IPC: 5.522 cumulative IPC: 5.518 (Simulation time: 00 hr 02 min 24 sec)
Warmup finished CPU 0 instructions: 30000003 cycles: 5436591 cumulative IPC: 5.518 (Simulation time: 00 hr 02 min 24 sec)
Warmup complete CPU 0 instructions: 30000003 cycles: 5436591 cumulative IPC: 5.518 (Simulation time: 00 hr 02 min 24 sec)
*** Reached end of trace: (0, "../traces/public_traces/srv/srv_45.champsimtrace.xz")
Heartbeat CPU 0 instructions: 40000001 cycles: 9708064 heartbeat IPC: 2.341 cumulative IPC: 2.341 (Simulation time: 00 hr 03 min 35 sec)
Heartbeat CPU 0 instructions: 50000009 cycles: 14000028 heartbeat IPC: 2.33 cumulative IPC: 2.336 (Simulation time: 00 hr 04 min 49 sec)
Heartbeat CPU 0 instructions: 60000000 cycles: 18260432 heartbeat IPC: 2.347 cumulative IPC: 2.339 (Simulation time: 00 hr 06 min 00 sec)
*** Reached end of trace: (0, "../traces/public_traces/srv/srv_45.champsimtrace.xz")
Heartbeat CPU 0 instructions: 70000000 cycles: 22472671 heartbeat IPC: 2.374 cumulative IPC: 2.348 (Simulation time: 00 hr 07 min 08 sec)
Heartbeat CPU 0 instructions: 80000002 cycles: 26678416 heartbeat IPC: 2.378 cumulative IPC: 2.354 (Simulation time: 00 hr 08 min 26 sec)
Heartbeat CPU 0 instructions: 90000004 cycles: 30913544 heartbeat IPC: 2.361 cumulative IPC: 2.355 (Simulation time: 00 hr 09 min 45 sec)
*** Reached end of trace: (0, "../traces/public_traces/srv/srv_45.champsimtrace.xz")
Heartbeat CPU 0 instructions: 100000001 cycles: 35097599 heartbeat IPC: 2.39 cumulative IPC: 2.36 (Simulation time: 00 hr 11 min 00 sec)
Heartbeat CPU 0 instructions: 110000007 cycles: 39292704 heartbeat IPC: 2.384 cumulative IPC: 2.363 (Simulation time: 00 hr 12 min 10 sec)
Heartbeat CPU 0 instructions: 120000008 cycles: 43499126 heartbeat IPC: 2.377 cumulative IPC: 2.365 (Simulation time: 00 hr 13 min 31 sec)
*** Reached end of trace: (0, "../traces/public_traces/srv/srv_45.champsimtrace.xz")
Heartbeat CPU 0 instructions: 130000001 cycles: 47685519 heartbeat IPC: 2.389 cumulative IPC: 2.367 (Simulation time: 00 hr 14 min 41 sec)
Simulation finished CPU 0 instructions: 100000003 cycles: 42248932 cumulative IPC: 2.367 (Simulation time: 00 hr 14 min 41 sec)
Simulation complete CPU 0 instructions: 100000003 cycles: 42248932 cumulative IPC: 2.367 (Simulation time: 00 hr 14 min 41 sec)

ChampSim completed all CPUs

=== Simulation ===
CPU 0 runs ../traces/public_traces/srv/srv_45.champsimtrace.xz
Region of Interest Statistics

CPU 0 cumulative IPC: 2.367 instructions: 100000003 cycles: 42248932
CPU 0 Branch Prediction Accuracy: 95.08% MPKI: 9 Average ROB Occupancy at Mispredict: 46.97
Branch type MPKI
BRANCH_DIRECT_JUMP: 0.695
BRANCH_INDIRECT: 4.19
BRANCH_CONDITIONAL: 1.11
BRANCH_DIRECT_CALL: 1.57
BRANCH_INDIRECT_CALL: 0.435
BRANCH_RETURN: 0.996

LLC TOTAL        ACCESS:     670356 HIT:     566279 MISS:     104077
LLC LOAD         ACCESS:     166267 HIT:     139228 MISS:      27039
LLC RFO          ACCESS:     106313 HIT:      98350 MISS:       7963
LLC PREFETCH     ACCESS:     158068 HIT:     113797 MISS:      44271
LLC WRITE        ACCESS:     203113 HIT:     197730 MISS:       5383
LLC TRANSLATION  ACCESS:      36595 HIT:      17174 MISS:      19421
LLC PREFETCH REQUESTED:          0 ISSUED:          0 USEFUL:          0 USELESS:          0
LLC AVERAGE MISS LATENCY: 131 cycles
cpu0_DTLB TOTAL        ACCESS:   21642534 HIT:   20430095 MISS:    1212439
cpu0_DTLB LOAD         ACCESS:   21642534 HIT:   20430095 MISS:    1212439
cpu0_DTLB RFO          ACCESS:          0 HIT:          0 MISS:          0
cpu0_DTLB PREFETCH     ACCESS:          0 HIT:          0 MISS:          0
cpu0_DTLB WRITE        ACCESS:          0 HIT:          0 MISS:          0
cpu0_DTLB TRANSLATION  ACCESS:          0 HIT:          0 MISS:          0
cpu0_DTLB PREFETCH REQUESTED:          0 ISSUED:          0 USEFUL:          0 USELESS:          0
cpu0_DTLB AVERAGE MISS LATENCY: 8.773 cycles
cpu0_ITLB TOTAL        ACCESS:   25426131 HIT:   24405763 MISS:    1020368
cpu0_ITLB LOAD         ACCESS:   25426131 HIT:   24405763 MISS:    1020368
cpu0_ITLB RFO          ACCESS:          0 HIT:          0 MISS:          0
cpu0_ITLB PREFETCH     ACCESS:          0 HIT:          0 MISS:          0
cpu0_ITLB WRITE        ACCESS:          0 HIT:          0 MISS:          0
cpu0_ITLB TRANSLATION  ACCESS:          0 HIT:          0 MISS:          0
cpu0_ITLB PREFETCH REQUESTED:          0 ISSUED:          0 USEFUL:          0 USELESS:          0
cpu0_ITLB AVERAGE MISS LATENCY: 3.928 cycles
cpu0_L1D TOTAL        ACCESS:   32801434 HIT:   27245060 MISS:    5556374
cpu0_L1D LOAD         ACCESS:   19454313 HIT:   16542361 MISS:    2911952
cpu0_L1D RFO          ACCESS:          0 HIT:          0 MISS:          0
cpu0_L1D PREFETCH     ACCESS:      84424 HIT:      15847 MISS:      68577
cpu0_L1D WRITE        ACCESS:   13214063 HIT:   10685414 MISS:    2528649
cpu0_L1D TRANSLATION  ACCESS:      48634 HIT:       1438 MISS:      47196
cpu0_L1D PREFETCH REQUESTED:     142176 ISSUED:      84424 USEFUL:       8480 USELESS:       1330
cpu0_L1D AVERAGE MISS LATENCY: 7.449 cycles
cpu0_L1I TOTAL        ACCESS:   36877557 HIT:   27948408 MISS:    8929149
cpu0_L1I LOAD         ACCESS:   12339896 HIT:   10446533 MISS:    1893363
cpu0_L1I RFO          ACCESS:          0 HIT:          0 MISS:          0
cpu0_L1I PREFETCH     ACCESS:   24537661 HIT:   17501875 MISS:    7035786
cpu0_L1I WRITE        ACCESS:          0 HIT:          0 MISS:          0
cpu0_L1I TRANSLATION  ACCESS:          0 HIT:          0 MISS:          0
cpu0_L1I PREFETCH REQUESTED:   37528754 ISSUED:   24537664 USEFUL:    5475705 USELESS:    1301197
cpu0_L1I AVERAGE MISS LATENCY: 10.83 cycles
cpu0_L2C TOTAL        ACCESS:   21853480 HIT:   21300184 MISS:     553296
cpu0_L2C LOAD         ACCESS:    3310212 HIT:    3134450 MISS:     175762
cpu0_L2C RFO          ACCESS:     840939 HIT:     733094 MISS:     107845
cpu0_L2C PREFETCH     ACCESS:   16245903 HIT:   16012962 MISS:     232941
cpu0_L2C WRITE        ACCESS:    1412514 HIT:    1412361 MISS:        153
cpu0_L2C TRANSLATION  ACCESS:      43912 HIT:       7317 MISS:      36595
cpu0_L2C PREFETCH REQUESTED:   10139982 ISSUED:    9416106 USEFUL:      52052 USELESS:      75812
cpu0_L2C AVERAGE MISS LATENCY: 41.06 cycles
cpu0_STLB TOTAL        ACCESS:    1420927 HIT:    1394965 MISS:      25962
cpu0_STLB LOAD         ACCESS:    1420927 HIT:    1394965 MISS:      25962
cpu0_STLB RFO          ACCESS:          0 HIT:          0 MISS:          0
cpu0_STLB PREFETCH     ACCESS:          0 HIT:          0 MISS:          0
cpu0_STLB WRITE        ACCESS:          0 HIT:          0 MISS:          0
cpu0_STLB TRANSLATION  ACCESS:          0 HIT:          0 MISS:          0
cpu0_STLB PREFETCH REQUESTED:          0 ISSUED:          0 USEFUL:          0 USELESS:          0
cpu0_STLB AVERAGE MISS LATENCY: 208.7 cycles

DRAM Statistics

Channel 0 RQ ROW_BUFFER_HIT:      22588
  ROW_BUFFER_MISS:      28422
 AVG DBUS CONGESTED CYCLE: 3.803
WQ ROW_BUFFER_HIT: Channel 0 
  ROW_BUFFER_MISS:       1190
  FULL:       4201

Channel 1 RQ ROW_BUFFER_HIT:      20763
  ROW_BUFFER_MISS:      26920
 AVG DBUS CONGESTED CYCLE: 3.807
WQ ROW_BUFFER_HIT: Channel 1 
  ROW_BUFFER_MISS:       1121
  FULL:       4147
BERTI TO_L1: 81716 TO_L2: 136083 TO_L2_BC_MSHR: 48213
BERTI AVG_LAT: 13.07 NUM_TRACK_LATENCY: 2705913 NUM_CANT_TRACK_LATENCY: 0
BERTI CROSS_PAGE 39467 NO_CROSS_PAGE: 178332
BERTI FOUND_BERTI: 538604 NO_FOUND_BERTI: 24527369
BERTI AVERAGE_ISSUED: 5.60235
CPU 0 L1I Entangling prefetcher final stats
IP accesses: 9a90 26a400 61281 / 12355458
IP misses: dabf 36afc0 10849 / 1908925
IP hits: 0 0 0 / 0
IP late: 18cb 632c0 3703 / 941851
IP wrong: 9a9c 26a700 6584 / 1293448
miss rate: 0.154501
coverage: 0
coverage_late: 0.493394
accuracy: 0
accuracy_late: 0.421354
discarded: 0
evicts entangled j table: 0
evicts entangled k table: 349185
max bb size: 37
formats: 174659 0 205791 28948 15766 42720 0 
hist_lookups: 92277 164534 192798 191754 184463 150944 117783 86248 69891 52062 39874 24880 15773 9860 4733 0 27 474926 
hist_lookups_evict: 0.00144168 %
hist_lookups_shortlat: 25.3588 %
bb_found_hist: 0 3282734 1343116 542483 198240 73640 38928 15778 9989 1416 5149 3434 0 10304 0 0 0 0 0 0 0 0 0 0 0 0 0 0 0 0 0 158 0 0 0 0 0 79 0 0 0 0 0 0 0 0 0 0 0 0 0 0 0 0 0 0 0 0 0 0 0 0 0 0 
bb_found_summary: 9425282 5525448 1.7058
entangled_found_hist: 0 2029996 1451143 3141543 273274 55157 20937 0 
entangled_found_summary: 15851414 6972050 2.27357
bb_ent_found_hist: 0 5339643 2707658 1212757 411094 218317 101210 48469 16712 0 16261 18340 0 34567 0 0 0 0 0 0 0 0 0 0 0 0 0 0 0 0 0 0 0 0 0 0 0 257 0 0 0 0 0 0 0 0 0 0 0 0 0 0 0 0 0 0 0 0 0 0 0 0 0 0 
bb_ent_found_summary: 19032660 10125285 1.87972
