WARNING: physical memory size is smaller than virtual memory size.

*** ChampSim Multicore Out-of-Order Simulator ***
Warmup Instructions: 30000000
Simulation Instructions: 100000000
Number of CPUs: 1
Page size: 4096

BTB:
Basic BTB sets: 1024 ways: 8
Indirect:
history lengths: 0 0 10 16 27 44 60 96 109 219 449 487 714 1313 2146 3881 
ITTAGE tables: 64768 bytes;Region table: 240 bytes;IUM: 384 bytes;Total Storage= 65392 bytes;
RAS:
RAS size: 64
[LLC] Demand IPV: 1 2 2 1 4 Prefetch IPV: 1 2 1 1 4
Berti Prefetcher
CPU 0 Entangling prefetcher
Off-chip DRAM Size: 8 GiB Channels: 2 Width: 64-bit Data Race: 6400 MT/s
Heartbeat CPU 0 instructions: 10000004 cycles: 1719984 heartbeat IPC: 5.814 cumulative IPC: 5.814 (Simulation time: 00 hr 00 min 50 sec)
Heartbeat CPU 0 instructions: 20000002 cycles: 3434251 heartbeat IPC: 5.833 cumulative IPC: 5.824 (Simulation time: 00 hr 01 min 40 sec)
Heartbeat CPU 0 instructions: 30000001 cycles: 5131950 heartbeat IPC: 5.89 cumulative IPC: 5.846 (Simulation time: 00 hr 02 min 29 sec)
Warmup finished CPU 0 instructions: 30000001 cycles: 5131951 cumulative IPC: 5.846 (Simulation time: 00 hr 02 min 29 sec)
Warmup complete CPU 0 instructions: 30000001 cycles: 5131951 cumulative IPC: 5.846 (Simulation time: 00 hr 02 min 29 sec)
*** Reached end of trace: (0, "../traces/public_traces/srv/srv_50.champsimtrace.xz")
Heartbeat CPU 0 instructions: 40000000 cycles: 9755391 heartbeat IPC: 2.163 cumulative IPC: 2.163 (Simulation time: 00 hr 03 min 48 sec)
Heartbeat CPU 0 instructions: 50000002 cycles: 14432631 heartbeat IPC: 2.138 cumulative IPC: 2.15 (Simulation time: 00 hr 04 min 59 sec)
Heartbeat CPU 0 instructions: 60000001 cycles: 18686689 heartbeat IPC: 2.351 cumulative IPC: 2.213 (Simulation time: 00 hr 05 min 59 sec)
*** Reached end of trace: (0, "../traces/public_traces/srv/srv_50.champsimtrace.xz")
Heartbeat CPU 0 instructions: 70000000 cycles: 23036652 heartbeat IPC: 2.299 cumulative IPC: 2.234 (Simulation time: 00 hr 07 min 03 sec)
Heartbeat CPU 0 instructions: 80000000 cycles: 27608315 heartbeat IPC: 2.187 cumulative IPC: 2.225 (Simulation time: 00 hr 08 min 10 sec)
Heartbeat CPU 0 instructions: 90000002 cycles: 31873944 heartbeat IPC: 2.344 cumulative IPC: 2.244 (Simulation time: 00 hr 09 min 25 sec)
*** Reached end of trace: (0, "../traces/public_traces/srv/srv_50.champsimtrace.xz")
Heartbeat CPU 0 instructions: 100000007 cycles: 36105073 heartbeat IPC: 2.363 cumulative IPC: 2.26 (Simulation time: 00 hr 10 min 40 sec)
Heartbeat CPU 0 instructions: 110000000 cycles: 40649482 heartbeat IPC: 2.201 cumulative IPC: 2.252 (Simulation time: 00 hr 11 min 57 sec)
Heartbeat CPU 0 instructions: 120000000 cycles: 44881093 heartbeat IPC: 2.363 cumulative IPC: 2.264 (Simulation time: 00 hr 13 min 04 sec)
*** Reached end of trace: (0, "../traces/public_traces/srv/srv_50.champsimtrace.xz")
Heartbeat CPU 0 instructions: 130000007 cycles: 49084133 heartbeat IPC: 2.379 cumulative IPC: 2.275 (Simulation time: 00 hr 14 min 08 sec)
Simulation finished CPU 0 instructions: 100000006 cycles: 43952183 cumulative IPC: 2.275 (Simulation time: 00 hr 14 min 08 sec)
Simulation complete CPU 0 instructions: 100000006 cycles: 43952183 cumulative IPC: 2.275 (Simulation time: 00 hr 14 min 08 sec)

ChampSim completed all CPUs

=== Simulation ===
CPU 0 runs ../traces/public_traces/srv/srv_50.champsimtrace.xz
Region of Interest Statistics

CPU 0 cumulative IPC: 2.275 instructions: 100000006 cycles: 43952183
CPU 0 Branch Prediction Accuracy: 93.33% MPKI: 11.73 Average ROB Occupancy at Mispredict: 27.32
Branch type MPKI
BRANCH_DIRECT_JUMP: 1.13
BRANCH_INDIRECT: 5.05
BRANCH_CONDITIONAL: 1.51
BRANCH_DIRECT_CALL: 2.11
BRANCH_INDIRECT_CALL: 0.543
BRANCH_RETURN: 1.4

LLC TOTAL        ACCESS:     767074 HIT:     548187 MISS:     218887
LLC LOAD         ACCESS:     150683 HIT:      94501 MISS:      56182
LLC RFO          ACCESS:     127078 HIT:      99845 MISS:      27233
LLC PREFETCH     ACCESS:     243082 HIT:     156362 MISS:      86720
LLC WRITE        ACCESS:     213201 HIT:     187926 MISS:      25275
LLC TRANSLATION  ACCESS:      33030 HIT:       9553 MISS:      23477
LLC PREFETCH REQUESTED:          0 ISSUED:          0 USEFUL:          0 USELESS:          0
LLC AVERAGE MISS LATENCY: 122.7 cycles
cpu0_DTLB TOTAL        ACCESS:   18902927 HIT:   18399104 MISS:     503823
cpu0_DTLB LOAD         ACCESS:   18902927 HIT:   18399104 MISS:     503823
cpu0_DTLB RFO          ACCESS:          0 HIT:          0 MISS:          0
cpu0_DTLB PREFETCH     ACCESS:          0 HIT:          0 MISS:          0
cpu0_DTLB WRITE        ACCESS:          0 HIT:          0 MISS:          0
cpu0_DTLB TRANSLATION  ACCESS:          0 HIT:          0 MISS:          0
cpu0_DTLB PREFETCH REQUESTED:          0 ISSUED:          0 USEFUL:          0 USELESS:          0
cpu0_DTLB AVERAGE MISS LATENCY: 14.36 cycles
cpu0_ITLB TOTAL        ACCESS:   13921089 HIT:   13499034 MISS:     422055
cpu0_ITLB LOAD         ACCESS:   13921089 HIT:   13499034 MISS:     422055
cpu0_ITLB RFO          ACCESS:          0 HIT:          0 MISS:          0
cpu0_ITLB PREFETCH     ACCESS:          0 HIT:          0 MISS:          0
cpu0_ITLB WRITE        ACCESS:          0 HIT:          0 MISS:          0
cpu0_ITLB TRANSLATION  ACCESS:          0 HIT:          0 MISS:          0
cpu0_ITLB PREFETCH REQUESTED:          0 ISSUED:          0 USEFUL:          0 USELESS:          0
cpu0_ITLB AVERAGE MISS LATENCY: 4.544 cycles
cpu0_L1D TOTAL        ACCESS:   28713316 HIT:   26049555 MISS:    2663761
cpu0_L1D LOAD         ACCESS:   18160918 HIT:   16812229 MISS:    1348689
cpu0_L1D RFO          ACCESS:          0 HIT:          0 MISS:          0
cpu0_L1D PREFETCH     ACCESS:     512265 HIT:     359749 MISS:     152516
cpu0_L1D WRITE        ACCESS:    9999116 HIT:    8876009 MISS:    1123107
cpu0_L1D TRANSLATION  ACCESS:      41017 HIT:       1568 MISS:      39449
cpu0_L1D PREFETCH REQUESTED:     784979 ISSUED:     512265 USEFUL:      11384 USELESS:       6426
cpu0_L1D AVERAGE MISS LATENCY: 13.02 cycles
cpu0_L1I TOTAL        ACCESS:   20575841 HIT:   16906481 MISS:    3669360
cpu0_L1I LOAD         ACCESS:    5853533 HIT:    5296179 MISS:     557354
cpu0_L1I RFO          ACCESS:          0 HIT:          0 MISS:          0
cpu0_L1I PREFETCH     ACCESS:   14722308 HIT:   11610302 MISS:    3112006
cpu0_L1I WRITE        ACCESS:          0 HIT:          0 MISS:          0
cpu0_L1I TRANSLATION  ACCESS:          0 HIT:          0 MISS:          0
cpu0_L1I PREFETCH REQUESTED:   21804736 ISSUED:   14722343 USEFUL:    2350542 USELESS:     695777
cpu0_L1I AVERAGE MISS LATENCY: 11.27 cycles
cpu0_L2C TOTAL        ACCESS:   10022237 HIT:    9349031 MISS:     673206
cpu0_L2C LOAD         ACCESS:    1306739 HIT:    1144132 MISS:     162607
cpu0_L2C RFO          ACCESS:     417015 HIT:     289192 MISS:     127823
cpu0_L2C PREFETCH     ACCESS:    7574905 HIT:    7225189 MISS:     349716
cpu0_L2C WRITE        ACCESS:     685912 HIT:     685882 MISS:         30
cpu0_L2C TRANSLATION  ACCESS:      37666 HIT:       4636 MISS:      33030
cpu0_L2C PREFETCH REQUESTED:    4492683 ISSUED:    4388961 USEFUL:      66770 USELESS:      95025
cpu0_L2C AVERAGE MISS LATENCY: 55.89 cycles
cpu0_STLB TOTAL        ACCESS:     583006 HIT:     559254 MISS:      23752
cpu0_STLB LOAD         ACCESS:     583006 HIT:     559254 MISS:      23752
cpu0_STLB RFO          ACCESS:          0 HIT:          0 MISS:          0
cpu0_STLB PREFETCH     ACCESS:          0 HIT:          0 MISS:          0
cpu0_STLB WRITE        ACCESS:          0 HIT:          0 MISS:          0
cpu0_STLB TRANSLATION  ACCESS:          0 HIT:          0 MISS:          0
cpu0_STLB PREFETCH REQUESTED:          0 ISSUED:          0 USEFUL:          0 USELESS:          0
cpu0_STLB AVERAGE MISS LATENCY: 240.6 cycles

DRAM Statistics

Channel 0 RQ ROW_BUFFER_HIT:      38193
  ROW_BUFFER_MISS:      61439
 AVG DBUS CONGESTED CYCLE: 3.806
WQ ROW_BUFFER_HIT: Channel 0 
  ROW_BUFFER_MISS:       4262
  FULL:      19180

Channel 1 RQ ROW_BUFFER_HIT:      36624
  ROW_BUFFER_MISS:      57355
 AVG DBUS CONGESTED CYCLE: 3.786
WQ ROW_BUFFER_HIT: Channel 1 
  ROW_BUFFER_MISS:       3867
  FULL:      16398
BERTI TO_L1: 382415 TO_L2: 773179 TO_L2_BC_MSHR: 115553
BERTI AVG_LAT: 20.3451 NUM_TRACK_LATENCY: 1263131 NUM_CANT_TRACK_LATENCY: 0
BERTI CROSS_PAGE 339909 NO_CROSS_PAGE: 815685
BERTI FOUND_BERTI: 1594471 NO_FOUND_BERTI: 22284659
BERTI AVERAGE_ISSUED: 5.53869
CPU 0 L1I Entangling prefetcher final stats
IP accesses: 3369 cda40 25733 / 5857941
IP misses: f31b 3cc6c0 4004 / 561762
IP hits: 0 0 0 / 0
IP late: f368 3cda00 1378 / 254120
IP wrong: c733 31ccc0 3079 / 692710
miss rate: 0.0958976
coverage: 0
coverage_late: 0.452363
accuracy: 0
accuracy_late: 0.268391
discarded: 0
evicts entangled j table: 0
evicts entangled k table: 88904
max bb size: 38
formats: 44252 0 62815 8216 8161 17028 0 
hist_lookups: 38653 52403 55016 55559 50278 38175 30643 21129 15376 12008 8670 5806 3469 1725 587 0 30 123153 
hist_lookups_evict: 0.00585161 %
hist_lookups_shortlat: 24.0215 %
bb_found_hist: 0 1504839 655303 357034 132798 76846 27064 29570 13565 5328 6040 776 892 263 0 0 444 1506 0 0 0 0 0 0 0 0 0 0 0 0 0 0 0 0 0 0 503 829 444 0 0 0 0 0 0 0 0 0 0 0 0 0 0 0 0 0 0 0 0 0 0 0 0 0 
bb_found_summary: 5509233 2814044 1.95777
entangled_found_hist: 0 983645 608434 1384880 155723 64432 16768 0 
entangled_found_summary: 7400813 3213882 2.30277
bb_ent_found_hist: 0 2241663 1168029 685855 331405 227895 63842 48337 16430 28621 9899 5700 6232 1686 0 0 0 6625 0 0 0 0 0 0 0 0 0 0 0 0 0 0 0 0 0 0 1347 794 2537 0 0 0 0 0 0 0 0 0 0 0 0 0 0 0 0 0 0 0 0 0 0 0 0 0 
bb_ent_found_summary: 10756114 4846897 2.21918
