WARNING: physical memory size is smaller than virtual memory size.

*** ChampSim Multicore Out-of-Order Simulator ***
Warmup Instructions: 30000000
Simulation Instructions: 100000000
Number of CPUs: 1
Page size: 4096

BTB:
Basic BTB sets: 1024 ways: 8
Indirect:
history lengths: 0 0 10 16 27 44 60 96 109 219 449 487 714 1313 2146 3881 
ITTAGE tables: 64768 bytes;Region table: 240 bytes;IUM: 384 bytes;Total Storage= 65392 bytes;
RAS:
RAS size: 64
[LLC] Demand IPV: 1 2 2 1 4 Prefetch IPV: 1 2 1 1 4
Berti Prefetcher
CPU 0 Entangling prefetcher
Off-chip DRAM Size: 8 GiB Channels: 2 Width: 64-bit Data Race: 6400 MT/s
Heartbeat CPU 0 instructions: 10000008 cycles: 1695123 heartbeat IPC: 5.899 cumulative IPC: 5.899 (Simulation time: 00 hr 00 min 47 sec)
Heartbeat CPU 0 instructions: 20000006 cycles: 3390498 heartbeat IPC: 5.898 cumulative IPC: 5.899 (Simulation time: 00 hr 01 min 34 sec)
Heartbeat CPU 0 instructions: 30000010 cycles: 5087149 heartbeat IPC: 5.894 cumulative IPC: 5.897 (Simulation time: 00 hr 02 min 21 sec)
Warmup finished CPU 0 instructions: 30000010 cycles: 5087150 cumulative IPC: 5.897 (Simulation time: 00 hr 02 min 21 sec)
Warmup complete CPU 0 instructions: 30000010 cycles: 5087150 cumulative IPC: 5.897 (Simulation time: 00 hr 02 min 21 sec)
*** Reached end of trace: (0, "../traces/public_traces/srv/srv_60.champsimtrace.xz")
Heartbeat CPU 0 instructions: 40000000 cycles: 9467602 heartbeat IPC: 2.283 cumulative IPC: 2.283 (Simulation time: 00 hr 03 min 28 sec)
Heartbeat CPU 0 instructions: 50000001 cycles: 13746948 heartbeat IPC: 2.337 cumulative IPC: 2.31 (Simulation time: 00 hr 04 min 35 sec)
Heartbeat CPU 0 instructions: 60000000 cycles: 18065055 heartbeat IPC: 2.316 cumulative IPC: 2.312 (Simulation time: 00 hr 05 min 47 sec)
*** Reached end of trace: (0, "../traces/public_traces/srv/srv_60.champsimtrace.xz")
Heartbeat CPU 0 instructions: 70000009 cycles: 22332526 heartbeat IPC: 2.343 cumulative IPC: 2.319 (Simulation time: 00 hr 06 min 57 sec)
Heartbeat CPU 0 instructions: 80000003 cycles: 26594321 heartbeat IPC: 2.346 cumulative IPC: 2.325 (Simulation time: 00 hr 08 min 06 sec)
Heartbeat CPU 0 instructions: 90000004 cycles: 30910542 heartbeat IPC: 2.317 cumulative IPC: 2.323 (Simulation time: 00 hr 09 min 20 sec)
*** Reached end of trace: (0, "../traces/public_traces/srv/srv_60.champsimtrace.xz")
Heartbeat CPU 0 instructions: 100000000 cycles: 35095952 heartbeat IPC: 2.389 cumulative IPC: 2.333 (Simulation time: 00 hr 10 min 37 sec)
Heartbeat CPU 0 instructions: 110000001 cycles: 39305450 heartbeat IPC: 2.376 cumulative IPC: 2.338 (Simulation time: 00 hr 11 min 52 sec)
Heartbeat CPU 0 instructions: 120000002 cycles: 43600717 heartbeat IPC: 2.328 cumulative IPC: 2.337 (Simulation time: 00 hr 13 min 08 sec)
*** Reached end of trace: (0, "../traces/public_traces/srv/srv_60.champsimtrace.xz")
Heartbeat CPU 0 instructions: 130000001 cycles: 47733765 heartbeat IPC: 2.42 cumulative IPC: 2.345 (Simulation time: 00 hr 14 min 23 sec)
Simulation finished CPU 0 instructions: 100000007 cycles: 42646620 cumulative IPC: 2.345 (Simulation time: 00 hr 14 min 23 sec)
Simulation complete CPU 0 instructions: 100000007 cycles: 42646620 cumulative IPC: 2.345 (Simulation time: 00 hr 14 min 23 sec)

ChampSim completed all CPUs

=== Simulation ===
CPU 0 runs ../traces/public_traces/srv/srv_60.champsimtrace.xz
Region of Interest Statistics

CPU 0 cumulative IPC: 2.345 instructions: 100000007 cycles: 42646620
CPU 0 Branch Prediction Accuracy: 94.26% MPKI: 10.31 Average ROB Occupancy at Mispredict: 40.52
Branch type MPKI
BRANCH_DIRECT_JUMP: 0.855
BRANCH_INDIRECT: 5.34
BRANCH_CONDITIONAL: 1.39
BRANCH_DIRECT_CALL: 1.5
BRANCH_INDIRECT_CALL: 0.111
BRANCH_RETURN: 1.12

LLC TOTAL        ACCESS:    1315252 HIT:    1145370 MISS:     169882
LLC LOAD         ACCESS:     230903 HIT:     203534 MISS:      27369
LLC RFO          ACCESS:      50729 HIT:      42735 MISS:       7994
LLC PREFETCH     ACCESS:     727461 HIT:     645102 MISS:      82359
LLC WRITE        ACCESS:     191783 HIT:     177816 MISS:      13967
LLC TRANSLATION  ACCESS:     114376 HIT:      76183 MISS:      38193
LLC PREFETCH REQUESTED:          0 ISSUED:          0 USEFUL:          0 USELESS:          0
LLC AVERAGE MISS LATENCY: 139.3 cycles
cpu0_DTLB TOTAL        ACCESS:   17251779 HIT:   16182001 MISS:    1069778
cpu0_DTLB LOAD         ACCESS:   17251779 HIT:   16182001 MISS:    1069778
cpu0_DTLB RFO          ACCESS:          0 HIT:          0 MISS:          0
cpu0_DTLB PREFETCH     ACCESS:          0 HIT:          0 MISS:          0
cpu0_DTLB WRITE        ACCESS:          0 HIT:          0 MISS:          0
cpu0_DTLB TRANSLATION  ACCESS:          0 HIT:          0 MISS:          0
cpu0_DTLB PREFETCH REQUESTED:          0 ISSUED:          0 USEFUL:          0 USELESS:          0
cpu0_DTLB AVERAGE MISS LATENCY: 11.23 cycles
cpu0_ITLB TOTAL        ACCESS:   17498068 HIT:   16897878 MISS:     600190
cpu0_ITLB LOAD         ACCESS:   17498068 HIT:   16897878 MISS:     600190
cpu0_ITLB RFO          ACCESS:          0 HIT:          0 MISS:          0
cpu0_ITLB PREFETCH     ACCESS:          0 HIT:          0 MISS:          0
cpu0_ITLB WRITE        ACCESS:          0 HIT:          0 MISS:          0
cpu0_ITLB TRANSLATION  ACCESS:          0 HIT:          0 MISS:          0
cpu0_ITLB PREFETCH REQUESTED:          0 ISSUED:          0 USEFUL:          0 USELESS:          0
cpu0_ITLB AVERAGE MISS LATENCY: 9.374 cycles
cpu0_L1D TOTAL        ACCESS:   25715477 HIT:   23212958 MISS:    2502519
cpu0_L1D LOAD         ACCESS:   15471968 HIT:   13661928 MISS:    1810040
cpu0_L1D RFO          ACCESS:          0 HIT:          0 MISS:          0
cpu0_L1D PREFETCH     ACCESS:      37468 HIT:      17744 MISS:      19724
cpu0_L1D WRITE        ACCESS:   10012070 HIT:    9519536 MISS:     492534
cpu0_L1D TRANSLATION  ACCESS:     193971 HIT:      13750 MISS:     180221
cpu0_L1D PREFETCH REQUESTED:     155532 ISSUED:      37468 USEFUL:       1193 USELESS:        963
cpu0_L1D AVERAGE MISS LATENCY: 13.85 cycles
cpu0_L1I TOTAL        ACCESS:   26268644 HIT:   22189035 MISS:    4079609
cpu0_L1I LOAD         ACCESS:    8736772 HIT:    7685897 MISS:    1050875
cpu0_L1I RFO          ACCESS:          0 HIT:          0 MISS:          0
cpu0_L1I PREFETCH     ACCESS:   17531872 HIT:   14503138 MISS:    3028734
cpu0_L1I WRITE        ACCESS:          0 HIT:          0 MISS:          0
cpu0_L1I TRANSLATION  ACCESS:          0 HIT:          0 MISS:          0
cpu0_L1I PREFETCH REQUESTED:   43406616 ISSUED:   17531872 USEFUL:    2057702 USELESS:     868261
cpu0_L1I AVERAGE MISS LATENCY: 13.55 cycles
cpu0_L2C TOTAL        ACCESS:   10228391 HIT:    8832993 MISS:    1395398
cpu0_L2C LOAD         ACCESS:    1924537 HIT:    1669567 MISS:     254970
cpu0_L2C RFO          ACCESS:     176127 HIT:     124716 MISS:      51411
cpu0_L2C PREFETCH     ACCESS:    7415168 HIT:    6440541 MISS:     974627
cpu0_L2C WRITE        ACCESS:     533896 HIT:     533882 MISS:         14
cpu0_L2C TRANSLATION  ACCESS:     178663 HIT:      64287 MISS:     114376
cpu0_L2C PREFETCH REQUESTED:    4858271 ISSUED:    4481435 USEFUL:     138503 USELESS:     214476
cpu0_L2C AVERAGE MISS LATENCY: 32.27 cycles
cpu0_STLB TOTAL        ACCESS:    1023611 HIT:     872800 MISS:     150811
cpu0_STLB LOAD         ACCESS:    1023611 HIT:     872800 MISS:     150811
cpu0_STLB RFO          ACCESS:          0 HIT:          0 MISS:          0
cpu0_STLB PREFETCH     ACCESS:          0 HIT:          0 MISS:          0
cpu0_STLB WRITE        ACCESS:          0 HIT:          0 MISS:          0
cpu0_STLB TRANSLATION  ACCESS:          0 HIT:          0 MISS:          0
cpu0_STLB PREFETCH REQUESTED:          0 ISSUED:          0 USEFUL:          0 USELESS:          0
cpu0_STLB AVERAGE MISS LATENCY: 77.94 cycles

DRAM Statistics

Channel 0 RQ ROW_BUFFER_HIT:      12161
  ROW_BUFFER_MISS:      69396
 AVG DBUS CONGESTED CYCLE: 3.748
WQ ROW_BUFFER_HIT: Channel 0 
  ROW_BUFFER_MISS:       5886
  FULL:      23575

Channel 1 RQ ROW_BUFFER_HIT:      10825
  ROW_BUFFER_MISS:      63531
 AVG DBUS CONGESTED CYCLE: 3.735
WQ ROW_BUFFER_HIT: Channel 1 
  ROW_BUFFER_MISS:       5455
  FULL:      22213
BERTI TO_L1: 94438 TO_L2: 171362 TO_L2_BC_MSHR: 60764
BERTI AVG_LAT: 16.7861 NUM_TRACK_LATENCY: 1568638 NUM_CANT_TRACK_LATENCY: 0
BERTI CROSS_PAGE 19796 NO_CROSS_PAGE: 246004
BERTI FOUND_BERTI: 582261 NO_FOUND_BERTI: 19845033
BERTI AVERAGE_ISSUED: 2.19899
CPU 0 L1I Entangling prefetcher final stats
IP accesses: bfb3 2fecc0 95631 / 8771610
IP misses: 4b3d 12cf40 5007 / 1085713
IP hits: 0 0 0 / 0
IP late: 382d e0b40 1658 / 475439
IP wrong: abec 2afb00 1873 / 865576
miss rate: 0.123776
coverage: 0
coverage_late: 0.437905
accuracy: 0
accuracy_late: 0.354537
discarded: 0
evicts entangled j table: 0
evicts entangled k table: 134431
max bb size: 111
formats: 20033 24486 90441 20543 12630 18661 0 
hist_lookups: 53565 75419 79308 83255 75039 58363 44453 33743 27191 21067 15177 10455 6719 3361 1185 0 612 137975 
hist_lookups_evict: 0.0841947 %
hist_lookups_shortlat: 18.9817 %
bb_found_hist: 0 1941261 961927 496468 260625 208155 70027 92164 152545 52997 61644 61860 35534 15452 8395 34242 6908 3668 2072 1279 7561 4903 484 1625 917 373 628 512 741 391 135 512 257 0 656 276 270 0 0 0 258 0 0 0 119 256 0 490 0 0 0 0 186 0 0 0 0 0 24 0 0 0 256 0 
bb_found_summary: 13532912 4489053 3.01465
entangled_found_hist: 0 1282160 1188407 1396532 233379 66961 6715 0 
entangled_found_summary: 9157181 4174154 2.19379
bb_ent_found_hist: 0 2803194 1778813 818713 368217 364637 179103 75822 128798 91493 129335 100427 33955 34608 15212 146351 17488 15645 6771 9170 5013 19838 529 9322 7391 770 413 0 3914 0 668 0 6 0 574 738 0 0 0 0 786 0 0 0 583 718 0 1273 0 0 0 0 342 0 0 0 0 0 92 0 0 0 14 0 
bb_ent_found_summary: 23376395 7170736 3.25998
