WARNING: physical memory size is smaller than virtual memory size.

*** ChampSim Multicore Out-of-Order Simulator ***
Warmup Instructions: 30000000
Simulation Instructions: 100000000
Number of CPUs: 1
Page size: 4096

BTB:
Basic BTB sets: 1024 ways: 8
Indirect:
history lengths: 0 0 10 16 27 44 60 96 109 219 449 487 714 1313 2146 3881 
ITTAGE tables: 64768 bytes;Region table: 240 bytes;IUM: 384 bytes;Total Storage= 65392 bytes;
RAS:
RAS size: 64
[LLC] Demand IPV: 1 2 2 1 4 Prefetch IPV: 1 2 1 1 4
Berti Prefetcher
CPU 0 Entangling prefetcher
Off-chip DRAM Size: 8 GiB Channels: 2 Width: 64-bit Data Race: 6400 MT/s
Heartbeat CPU 0 instructions: 10000011 cycles: 1715468 heartbeat IPC: 5.829 cumulative IPC: 5.829 (Simulation time: 00 hr 00 min 41 sec)
Heartbeat CPU 0 instructions: 20000002 cycles: 3418291 heartbeat IPC: 5.873 cumulative IPC: 5.851 (Simulation time: 00 hr 01 min 28 sec)
Heartbeat CPU 0 instructions: 30000000 cycles: 5134052 heartbeat IPC: 5.828 cumulative IPC: 5.843 (Simulation time: 00 hr 02 min 12 sec)
Warmup finished CPU 0 instructions: 30000000 cycles: 5134053 cumulative IPC: 5.843 (Simulation time: 00 hr 02 min 12 sec)
Warmup complete CPU 0 instructions: 30000000 cycles: 5134053 cumulative IPC: 5.843 (Simulation time: 00 hr 02 min 12 sec)
*** Reached end of trace: (0, "../traces/public_traces/srv/srv_56.champsimtrace.xz")
Heartbeat CPU 0 instructions: 40000000 cycles: 7730366 heartbeat IPC: 3.852 cumulative IPC: 3.852 (Simulation time: 00 hr 03 min 12 sec)
Heartbeat CPU 0 instructions: 50000010 cycles: 10392134 heartbeat IPC: 3.757 cumulative IPC: 3.804 (Simulation time: 00 hr 04 min 11 sec)
Heartbeat CPU 0 instructions: 60000000 cycles: 12689209 heartbeat IPC: 4.353 cumulative IPC: 3.971 (Simulation time: 00 hr 05 min 15 sec)
*** Reached end of trace: (0, "../traces/public_traces/srv/srv_56.champsimtrace.xz")
Heartbeat CPU 0 instructions: 70000010 cycles: 15140314 heartbeat IPC: 4.08 cumulative IPC: 3.997 (Simulation time: 00 hr 06 min 19 sec)
Heartbeat CPU 0 instructions: 80000000 cycles: 17629747 heartbeat IPC: 4.017 cumulative IPC: 4.001 (Simulation time: 00 hr 07 min 26 sec)
Heartbeat CPU 0 instructions: 90000010 cycles: 19936343 heartbeat IPC: 4.335 cumulative IPC: 4.053 (Simulation time: 00 hr 08 min 22 sec)
*** Reached end of trace: (0, "../traces/public_traces/srv/srv_56.champsimtrace.xz")
Heartbeat CPU 0 instructions: 100000001 cycles: 22328782 heartbeat IPC: 4.18 cumulative IPC: 4.071 (Simulation time: 00 hr 09 min 14 sec)
Heartbeat CPU 0 instructions: 110000001 cycles: 24717453 heartbeat IPC: 4.186 cumulative IPC: 4.085 (Simulation time: 00 hr 10 min 09 sec)
Heartbeat CPU 0 instructions: 120000005 cycles: 27074618 heartbeat IPC: 4.242 cumulative IPC: 4.102 (Simulation time: 00 hr 11 min 04 sec)
*** Reached end of trace: (0, "../traces/public_traces/srv/srv_56.champsimtrace.xz")
Heartbeat CPU 0 instructions: 130000006 cycles: 29448623 heartbeat IPC: 4.212 cumulative IPC: 4.113 (Simulation time: 00 hr 12 min 03 sec)
Simulation finished CPU 0 instructions: 100000006 cycles: 24314571 cumulative IPC: 4.113 (Simulation time: 00 hr 12 min 03 sec)
Simulation complete CPU 0 instructions: 100000006 cycles: 24314571 cumulative IPC: 4.113 (Simulation time: 00 hr 12 min 03 sec)

ChampSim completed all CPUs

=== Simulation ===
CPU 0 runs ../traces/public_traces/srv/srv_56.champsimtrace.xz
Region of Interest Statistics

CPU 0 cumulative IPC: 4.113 instructions: 100000006 cycles: 24314571
CPU 0 Branch Prediction Accuracy: 98.62% MPKI: 2.627 Average ROB Occupancy at Mispredict: 32.42
Branch type MPKI
BRANCH_DIRECT_JUMP: 0.209
BRANCH_INDIRECT: 1.11
BRANCH_CONDITIONAL: 0.451
BRANCH_DIRECT_CALL: 0.433
BRANCH_INDIRECT_CALL: 0.126
BRANCH_RETURN: 0.299

LLC TOTAL        ACCESS:     211778 HIT:     173141 MISS:      38637
LLC LOAD         ACCESS:      64785 HIT:      49106 MISS:      15679
LLC RFO          ACCESS:      17705 HIT:      17037 MISS:        668
LLC PREFETCH     ACCESS:      62829 HIT:      49912 MISS:      12917
LLC WRITE        ACCESS:      39616 HIT:      39014 MISS:        602
LLC TRANSLATION  ACCESS:      26843 HIT:      18072 MISS:       8771
LLC PREFETCH REQUESTED:          0 ISSUED:          0 USEFUL:          0 USELESS:          0
LLC AVERAGE MISS LATENCY: 120.6 cycles
cpu0_DTLB TOTAL        ACCESS:   17200974 HIT:   16853772 MISS:     347202
cpu0_DTLB LOAD         ACCESS:   17200974 HIT:   16853772 MISS:     347202
cpu0_DTLB RFO          ACCESS:          0 HIT:          0 MISS:          0
cpu0_DTLB PREFETCH     ACCESS:          0 HIT:          0 MISS:          0
cpu0_DTLB WRITE        ACCESS:          0 HIT:          0 MISS:          0
cpu0_DTLB TRANSLATION  ACCESS:          0 HIT:          0 MISS:          0
cpu0_DTLB PREFETCH REQUESTED:          0 ISSUED:          0 USEFUL:          0 USELESS:          0
cpu0_DTLB AVERAGE MISS LATENCY: 10.36 cycles
cpu0_ITLB TOTAL        ACCESS:   14156888 HIT:   13999947 MISS:     156941
cpu0_ITLB LOAD         ACCESS:   14156888 HIT:   13999947 MISS:     156941
cpu0_ITLB RFO          ACCESS:          0 HIT:          0 MISS:          0
cpu0_ITLB PREFETCH     ACCESS:          0 HIT:          0 MISS:          0
cpu0_ITLB WRITE        ACCESS:          0 HIT:          0 MISS:          0
cpu0_ITLB TRANSLATION  ACCESS:          0 HIT:          0 MISS:          0
cpu0_ITLB PREFETCH REQUESTED:          0 ISSUED:          0 USEFUL:          0 USELESS:          0
cpu0_ITLB AVERAGE MISS LATENCY: 5.092 cycles
cpu0_L1D TOTAL        ACCESS:   29052203 HIT:   27575948 MISS:    1476255
cpu0_L1D LOAD         ACCESS:   17363650 HIT:   16604331 MISS:     759319
cpu0_L1D RFO          ACCESS:          0 HIT:          0 MISS:          0
cpu0_L1D PREFETCH     ACCESS:     744867 HIT:     585515 MISS:     159352
cpu0_L1D WRITE        ACCESS:   10899427 HIT:   10383446 MISS:     515981
cpu0_L1D TRANSLATION  ACCESS:      44259 HIT:       2656 MISS:      41603
cpu0_L1D PREFETCH REQUESTED:    1701059 ISSUED:     744867 USEFUL:       7191 USELESS:       4555
cpu0_L1D AVERAGE MISS LATENCY: 8.071 cycles
cpu0_L1I TOTAL        ACCESS:   20767219 HIT:   18759819 MISS:    2007400
cpu0_L1I LOAD         ACCESS:    9104656 HIT:    8405576 MISS:     699080
cpu0_L1I RFO          ACCESS:          0 HIT:          0 MISS:          0
cpu0_L1I PREFETCH     ACCESS:   11662563 HIT:   10354243 MISS:    1308320
cpu0_L1I WRITE        ACCESS:          0 HIT:          0 MISS:          0
cpu0_L1I TRANSLATION  ACCESS:          0 HIT:          0 MISS:          0
cpu0_L1I PREFETCH REQUESTED:   37742279 ISSUED:   11662560 USEFUL:     981630 USELESS:     278174
cpu0_L1I AVERAGE MISS LATENCY: 9.86 cycles
cpu0_L2C TOTAL        ACCESS:    5000644 HIT:    4793750 MISS:     206894
cpu0_L2C LOAD         ACCESS:     938515 HIT:     871347 MISS:      67168
cpu0_L2C RFO          ACCESS:     179483 HIT:     161702 MISS:      17781
cpu0_L2C PREFETCH     ACCESS:    3544977 HIT:    3449921 MISS:      95056
cpu0_L2C WRITE        ACCESS:     298514 HIT:     298468 MISS:         46
cpu0_L2C TRANSLATION  ACCESS:      39155 HIT:      12312 MISS:      26843
cpu0_L2C PREFETCH REQUESTED:    2322228 ISSUED:    2161263 USEFUL:      12469 USELESS:      32337
cpu0_L2C AVERAGE MISS LATENCY: 39.17 cycles
cpu0_STLB TOTAL        ACCESS:     308599 HIT:     286620 MISS:      21979
cpu0_STLB LOAD         ACCESS:     308599 HIT:     286620 MISS:      21979
cpu0_STLB RFO          ACCESS:          0 HIT:          0 MISS:          0
cpu0_STLB PREFETCH     ACCESS:          0 HIT:          0 MISS:          0
cpu0_STLB WRITE        ACCESS:          0 HIT:          0 MISS:          0
cpu0_STLB TRANSLATION  ACCESS:          0 HIT:          0 MISS:          0
cpu0_STLB PREFETCH REQUESTED:          0 ISSUED:          0 USEFUL:          0 USELESS:          0
cpu0_STLB AVERAGE MISS LATENCY: 134.5 cycles

DRAM Statistics

Channel 0 RQ ROW_BUFFER_HIT:      10127
  ROW_BUFFER_MISS:      11366
 AVG DBUS CONGESTED CYCLE: 3.489
WQ ROW_BUFFER_HIT: Channel 0 
  ROW_BUFFER_MISS:         59
  FULL:        219

Channel 1 RQ ROW_BUFFER_HIT:       6537
  ROW_BUFFER_MISS:      10005
 AVG DBUS CONGESTED CYCLE: 3.463
WQ ROW_BUFFER_HIT: Channel 1 
  ROW_BUFFER_MISS:         54
  FULL:        192
BERTI TO_L1: 1137686 TO_L2: 1325231 TO_L2_BC_MSHR: 62843
BERTI AVG_LAT: 15.6905 NUM_TRACK_LATENCY: 659480 NUM_CANT_TRACK_LATENCY: 0
BERTI CROSS_PAGE 656407 NO_CROSS_PAGE: 1806510
BERTI FOUND_BERTI: 2214034 NO_FOUND_BERTI: 20847899
BERTI AVERAGE_ISSUED: 2.19683
CPU 0 L1I Entangling prefetcher final stats
IP accesses: f965 3e5940 120345 / 9119854
IP misses: f366 3cd980 13450 / 714278
IP hits: 0 0 0 / 0
IP late: 3b66 ed980 3437 / 268575
IP wrong: 4c42 131080 3052 / 271748
miss rate: 0.0783213
coverage: 0
coverage_late: 0.37601
accuracy: 0
accuracy_late: 0.497064
discarded: 0
evicts entangled j table: 0
evicts entangled k table: 65058
max bb size: 13
formats: 25306 0 45021 6982 4809 9480 0 
hist_lookups: 19458 36026 43339 54289 55654 41722 30751 20105 15161 11725 8657 5512 3818 2077 655 0 12 93834 
hist_lookups_evict: 0.00271006 %
hist_lookups_shortlat: 21.1913 %
bb_found_hist: 0 2605342 939021 454642 166844 110627 61766 40391 22995 38007 1061 450 0 1100 0 0 0 0 0 0 0 0 0 0 0 0 0 0 0 0 0 0 0 0 0 0 0 0 0 0 0 0 0 0 0 0 0 0 0 0 0 0 0 0 0 0 0 0 0 0 0 0 0 0 
bb_found_summary: 8277037 4442246 1.86326
entangled_found_hist: 0 1311737 935697 2635578 192038 109718 27674 0 
entangled_found_summary: 12572651 5212442 2.41205
bb_ent_found_hist: 0 3852955 2171883 1171118 441667 467388 182133 41132 97328 30142 6551 2899 0 6566 0 0 0 0 0 0 0 0 0 0 0 0 0 0 0 0 0 0 0 0 0 0 0 0 0 0 0 0 0 0 0 0 0 0 0 0 0 0 0 0 0 0 0 0 0 0 0 0 0 0 
bb_ent_found_summary: 18427064 8471762 2.17512
