WARNING: physical memory size is smaller than virtual memory size.

*** ChampSim Multicore Out-of-Order Simulator ***
Warmup Instructions: 30000000
Simulation Instructions: 100000000
Number of CPUs: 1
Page size: 4096

BTB:
Basic BTB sets: 1024 ways: 8
Indirect:
history lengths: 0 0 10 16 27 44 60 96 109 219 449 487 714 1313 2146 3881 
ITTAGE tables: 64768 bytes;Region table: 240 bytes;IUM: 384 bytes;Total Storage= 65392 bytes;
RAS:
RAS size: 64
[LLC] Demand IPV: 1 2 2 1 4 Prefetch IPV: 1 2 1 1 4
Berti Prefetcher
CPU 0 Entangling prefetcher
Off-chip DRAM Size: 8 GiB Channels: 2 Width: 64-bit Data Race: 6400 MT/s
Heartbeat CPU 0 instructions: 10000006 cycles: 1696523 heartbeat IPC: 5.894 cumulative IPC: 5.894 (Simulation time: 00 hr 00 min 49 sec)
Heartbeat CPU 0 instructions: 20000006 cycles: 3396704 heartbeat IPC: 5.882 cumulative IPC: 5.888 (Simulation time: 00 hr 01 min 39 sec)
Heartbeat CPU 0 instructions: 30000001 cycles: 5092520 heartbeat IPC: 5.897 cumulative IPC: 5.891 (Simulation time: 00 hr 02 min 29 sec)
Warmup finished CPU 0 instructions: 30000001 cycles: 5092521 cumulative IPC: 5.891 (Simulation time: 00 hr 02 min 29 sec)
Warmup complete CPU 0 instructions: 30000001 cycles: 5092521 cumulative IPC: 5.891 (Simulation time: 00 hr 02 min 29 sec)
*** Reached end of trace: (0, "../traces/public_traces/srv/srv_65.champsimtrace.xz")
Heartbeat CPU 0 instructions: 40000004 cycles: 8258857 heartbeat IPC: 3.158 cumulative IPC: 3.158 (Simulation time: 00 hr 03 min 31 sec)
Heartbeat CPU 0 instructions: 50000006 cycles: 11489184 heartbeat IPC: 3.096 cumulative IPC: 3.127 (Simulation time: 00 hr 04 min 29 sec)
Heartbeat CPU 0 instructions: 60000003 cycles: 14570983 heartbeat IPC: 3.245 cumulative IPC: 3.165 (Simulation time: 00 hr 05 min 29 sec)
*** Reached end of trace: (0, "../traces/public_traces/srv/srv_65.champsimtrace.xz")
Heartbeat CPU 0 instructions: 70000006 cycles: 17659320 heartbeat IPC: 3.238 cumulative IPC: 3.183 (Simulation time: 00 hr 06 min 32 sec)
Heartbeat CPU 0 instructions: 80000006 cycles: 20716674 heartbeat IPC: 3.271 cumulative IPC: 3.2 (Simulation time: 00 hr 07 min 45 sec)
Heartbeat CPU 0 instructions: 90000002 cycles: 23838101 heartbeat IPC: 3.204 cumulative IPC: 3.201 (Simulation time: 00 hr 08 min 55 sec)
*** Reached end of trace: (0, "../traces/public_traces/srv/srv_65.champsimtrace.xz")
Heartbeat CPU 0 instructions: 100000010 cycles: 26918279 heartbeat IPC: 3.247 cumulative IPC: 3.207 (Simulation time: 00 hr 10 min 03 sec)
Heartbeat CPU 0 instructions: 110000000 cycles: 29864790 heartbeat IPC: 3.394 cumulative IPC: 3.229 (Simulation time: 00 hr 11 min 10 sec)
Heartbeat CPU 0 instructions: 120000003 cycles: 33066734 heartbeat IPC: 3.123 cumulative IPC: 3.217 (Simulation time: 00 hr 12 min 18 sec)
*** Reached end of trace: (0, "../traces/public_traces/srv/srv_65.champsimtrace.xz")
Heartbeat CPU 0 instructions: 130000000 cycles: 36131091 heartbeat IPC: 3.263 cumulative IPC: 3.222 (Simulation time: 00 hr 13 min 15 sec)
Simulation finished CPU 0 instructions: 100000001 cycles: 31038572 cumulative IPC: 3.222 (Simulation time: 00 hr 13 min 15 sec)
Simulation complete CPU 0 instructions: 100000001 cycles: 31038572 cumulative IPC: 3.222 (Simulation time: 00 hr 13 min 15 sec)

ChampSim completed all CPUs

=== Simulation ===
CPU 0 runs ../traces/public_traces/srv/srv_65.champsimtrace.xz
Region of Interest Statistics

CPU 0 cumulative IPC: 3.222 instructions: 100000001 cycles: 31038572
CPU 0 Branch Prediction Accuracy: 97.06% MPKI: 5.277 Average ROB Occupancy at Mispredict: 46.31
Branch type MPKI
BRANCH_DIRECT_JUMP: 0.391
BRANCH_INDIRECT: 2.83
BRANCH_CONDITIONAL: 0.744
BRANCH_DIRECT_CALL: 0.719
BRANCH_INDIRECT_CALL: 0.0484
BRANCH_RETURN: 0.548

LLC TOTAL        ACCESS:     643135 HIT:     525866 MISS:     117269
LLC LOAD         ACCESS:     116254 HIT:      87660 MISS:      28594
LLC RFO          ACCESS:      31079 HIT:      26463 MISS:       4616
LLC PREFETCH     ACCESS:     313022 HIT:     261346 MISS:      51676
LLC WRITE        ACCESS:     139216 HIT:     126550 MISS:      12666
LLC TRANSLATION  ACCESS:      43564 HIT:      23847 MISS:      19717
LLC PREFETCH REQUESTED:          0 ISSUED:          0 USEFUL:          0 USELESS:          0
LLC AVERAGE MISS LATENCY: 139.6 cycles
cpu0_DTLB TOTAL        ACCESS:   16548781 HIT:   15594367 MISS:     954414
cpu0_DTLB LOAD         ACCESS:   16548781 HIT:   15594367 MISS:     954414
cpu0_DTLB RFO          ACCESS:          0 HIT:          0 MISS:          0
cpu0_DTLB PREFETCH     ACCESS:          0 HIT:          0 MISS:          0
cpu0_DTLB WRITE        ACCESS:          0 HIT:          0 MISS:          0
cpu0_DTLB TRANSLATION  ACCESS:          0 HIT:          0 MISS:          0
cpu0_DTLB PREFETCH REQUESTED:          0 ISSUED:          0 USEFUL:          0 USELESS:          0
cpu0_DTLB AVERAGE MISS LATENCY: 8.67 cycles
cpu0_ITLB TOTAL        ACCESS:   16024375 HIT:   15534671 MISS:     489704
cpu0_ITLB LOAD         ACCESS:   16024375 HIT:   15534671 MISS:     489704
cpu0_ITLB RFO          ACCESS:          0 HIT:          0 MISS:          0
cpu0_ITLB PREFETCH     ACCESS:          0 HIT:          0 MISS:          0
cpu0_ITLB WRITE        ACCESS:          0 HIT:          0 MISS:          0
cpu0_ITLB TRANSLATION  ACCESS:          0 HIT:          0 MISS:          0
cpu0_ITLB PREFETCH REQUESTED:          0 ISSUED:          0 USEFUL:          0 USELESS:          0
cpu0_ITLB AVERAGE MISS LATENCY: 5.828 cycles
cpu0_L1D TOTAL        ACCESS:   25150066 HIT:   22944333 MISS:    2205733
cpu0_L1D LOAD         ACCESS:   14992865 HIT:   13329156 MISS:    1663709
cpu0_L1D RFO          ACCESS:          0 HIT:          0 MISS:          0
cpu0_L1D PREFETCH     ACCESS:       2423 HIT:       1086 MISS:       1337
cpu0_L1D WRITE        ACCESS:   10067609 HIT:    9607312 MISS:     460297
cpu0_L1D TRANSLATION  ACCESS:      87169 HIT:       6779 MISS:      80390
cpu0_L1D PREFETCH REQUESTED:       2423 ISSUED:       2423 USEFUL:          0 USELESS:          0
cpu0_L1D AVERAGE MISS LATENCY: 11.32 cycles
cpu0_L1I TOTAL        ACCESS:   23845371 HIT:   19894240 MISS:    3951131
cpu0_L1I LOAD         ACCESS:    8452872 HIT:    7047006 MISS:    1405866
cpu0_L1I RFO          ACCESS:          0 HIT:          0 MISS:          0
cpu0_L1I PREFETCH     ACCESS:   15392499 HIT:   12847234 MISS:    2545265
cpu0_L1I WRITE        ACCESS:          0 HIT:          0 MISS:          0
cpu0_L1I TRANSLATION  ACCESS:          0 HIT:          0 MISS:          0
cpu0_L1I PREFETCH REQUESTED:   39703267 ISSUED:   15392525 USEFUL:    1721422 USELESS:     702576
cpu0_L1I AVERAGE MISS LATENCY: 11.66 cycles
cpu0_L2C TOTAL        ACCESS:    9077608 HIT:    8475746 MISS:     601862
cpu0_L2C LOAD         ACCESS:    2036181 HIT:    1901979 MISS:     134202
cpu0_L2C RFO          ACCESS:     161922 HIT:     130505 MISS:      31417
cpu0_L2C PREFETCH     ACCESS:    6284471 HIT:    5891807 MISS:     392664
cpu0_L2C WRITE        ACCESS:     515108 HIT:     515093 MISS:         15
cpu0_L2C TRANSLATION  ACCESS:      79926 HIT:      36362 MISS:      43564
cpu0_L2C PREFETCH REQUESTED:    4461553 ISSUED:    3859099 USEFUL:      88626 USELESS:      99148
cpu0_L2C AVERAGE MISS LATENCY: 42.93 cycles
cpu0_STLB TOTAL        ACCESS:     900459 HIT:     840688 MISS:      59771
cpu0_STLB LOAD         ACCESS:     900459 HIT:     840688 MISS:      59771
cpu0_STLB RFO          ACCESS:          0 HIT:          0 MISS:          0
cpu0_STLB PREFETCH     ACCESS:          0 HIT:          0 MISS:          0
cpu0_STLB WRITE        ACCESS:          0 HIT:          0 MISS:          0
cpu0_STLB TRANSLATION  ACCESS:          0 HIT:          0 MISS:          0
cpu0_STLB PREFETCH REQUESTED:          0 ISSUED:          0 USEFUL:          0 USELESS:          0
cpu0_STLB AVERAGE MISS LATENCY: 95.71 cycles

DRAM Statistics

Channel 0 RQ ROW_BUFFER_HIT:      13715
  ROW_BUFFER_MISS:      40745
 AVG DBUS CONGESTED CYCLE: 3.812
WQ ROW_BUFFER_HIT: Channel 0 
  ROW_BUFFER_MISS:       3128
  FULL:      12376

Channel 1 RQ ROW_BUFFER_HIT:      12429
  ROW_BUFFER_MISS:      37714
 AVG DBUS CONGESTED CYCLE: 3.81
WQ ROW_BUFFER_HIT: Channel 1 
  ROW_BUFFER_MISS:       2809
  FULL:      11774
BERTI TO_L1: 1 TO_L2: 2429 TO_L2_BC_MSHR: 0
BERTI AVG_LAT: 15.263 NUM_TRACK_LATENCY: 1409085 NUM_CANT_TRACK_LATENCY: 0
BERTI CROSS_PAGE 82 NO_CROSS_PAGE: 2348
BERTI FOUND_BERTI: 514104 NO_FOUND_BERTI: 19365100
BERTI AVERAGE_ISSUED: 1.18943
CPU 0 L1I Entangling prefetcher final stats
IP accesses: bfb3 2fecc0 100621 / 8512641
IP misses: 3a80 ea000 7191 / 1465635
IP hits: 0 0 0 / 0
IP late: 3a83 ea0c0 2319 / 622799
IP wrong: 3d40 f5000 2153 / 698755
miss rate: 0.172172
coverage: 0
coverage_late: 0.424935
accuracy: 0
accuracy_late: 0.471263
discarded: 0
evicts entangled j table: 0
evicts entangled k table: 164290
max bb size: 111
formats: 22691 29300 103926 21352 14830 21846 0 
hist_lookups: 55256 87853 94838 100073 89316 71272 54582 41969 35228 27534 19788 13273 8310 4160 1524 0 942 187947 
hist_lookups_evict: 0.105386 %
hist_lookups_shortlat: 21.0264 %
bb_found_hist: 0 1822791 1052036 405081 247226 129965 106323 119321 172507 52493 28656 80791 45583 12680 14922 34851 7547 2817 1916 7766 1153 2224 252 338 1496 1000 249 1242 246 249 250 750 500 0 218 0 0 250 250 0 249 0 0 249 0 498 0 191 0 0 0 0 0 0 0 0 0 0 0 0 249 0 339 0 
bb_found_summary: 13434993 4357714 3.08304
entangled_found_hist: 0 1331072 1010093 1389347 177114 69082 6986 0 
entangled_found_summary: 8615081 3983694 2.16259
bb_ent_found_hist: 0 2535527 1604571 851934 338907 285959 277274 64581 133762 66329 83735 88629 38503 36925 33688 77036 15997 8540 5822 8956 3140 8285 24 1191 5452 250 1601 3176 760 352 500 0 0 0 1446 0 0 12 302 0 956 0 0 66 0 1528 0 658 0 0 0 0 0 0 0 0 0 0 0 0 498 0 475 0 
bb_ent_found_summary: 20763104 6587347 3.15197
