WARNING: physical memory size is smaller than virtual memory size.

*** ChampSim Multicore Out-of-Order Simulator ***
Warmup Instructions: 30000000
Simulation Instructions: 100000000
Number of CPUs: 1
Page size: 4096

BTB:
Basic BTB sets: 1024 ways: 8
Indirect:
history lengths: 0 0 10 16 27 44 60 96 109 219 449 487 714 1313 2146 3881 
ITTAGE tables: 64768 bytes;Region table: 240 bytes;IUM: 384 bytes;Total Storage= 65392 bytes;
RAS:
RAS size: 64
[LLC] Demand IPV: 1 2 2 1 4 Prefetch IPV: 1 2 1 1 4
Berti Prefetcher
CPU 0 Entangling prefetcher
Off-chip DRAM Size: 8 GiB Channels: 2 Width: 64-bit Data Race: 6400 MT/s
Heartbeat CPU 0 instructions: 10000002 cycles: 1725379 heartbeat IPC: 5.796 cumulative IPC: 5.796 (Simulation time: 00 hr 00 min 41 sec)
Heartbeat CPU 0 instructions: 20000003 cycles: 3450036 heartbeat IPC: 5.798 cumulative IPC: 5.797 (Simulation time: 00 hr 01 min 22 sec)
Heartbeat CPU 0 instructions: 30000002 cycles: 5175778 heartbeat IPC: 5.795 cumulative IPC: 5.796 (Simulation time: 00 hr 02 min 04 sec)
Warmup finished CPU 0 instructions: 30000002 cycles: 5175779 cumulative IPC: 5.796 (Simulation time: 00 hr 02 min 04 sec)
Warmup complete CPU 0 instructions: 30000002 cycles: 5175779 cumulative IPC: 5.796 (Simulation time: 00 hr 02 min 04 sec)
*** Reached end of trace: (0, "../traces/public_traces/srv/srv_31.champsimtrace.xz")
Heartbeat CPU 0 instructions: 40000000 cycles: 7934905 heartbeat IPC: 3.624 cumulative IPC: 3.624 (Simulation time: 00 hr 03 min 00 sec)
Heartbeat CPU 0 instructions: 50000002 cycles: 10657041 heartbeat IPC: 3.674 cumulative IPC: 3.649 (Simulation time: 00 hr 03 min 56 sec)
Heartbeat CPU 0 instructions: 60000008 cycles: 13488060 heartbeat IPC: 3.532 cumulative IPC: 3.609 (Simulation time: 00 hr 04 min 53 sec)
*** Reached end of trace: (0, "../traces/public_traces/srv/srv_31.champsimtrace.xz")
Heartbeat CPU 0 instructions: 70000002 cycles: 16132916 heartbeat IPC: 3.781 cumulative IPC: 3.651 (Simulation time: 00 hr 05 min 48 sec)
Heartbeat CPU 0 instructions: 80000008 cycles: 18784749 heartbeat IPC: 3.771 cumulative IPC: 3.674 (Simulation time: 00 hr 06 min 43 sec)
Heartbeat CPU 0 instructions: 90000007 cycles: 21534687 heartbeat IPC: 3.636 cumulative IPC: 3.668 (Simulation time: 00 hr 07 min 40 sec)
*** Reached end of trace: (0, "../traces/public_traces/srv/srv_31.champsimtrace.xz")
Heartbeat CPU 0 instructions: 100000005 cycles: 24170751 heartbeat IPC: 3.794 cumulative IPC: 3.685 (Simulation time: 00 hr 08 min 35 sec)
Heartbeat CPU 0 instructions: 110000000 cycles: 26748540 heartbeat IPC: 3.879 cumulative IPC: 3.708 (Simulation time: 00 hr 09 min 29 sec)
Heartbeat CPU 0 instructions: 120000003 cycles: 29483565 heartbeat IPC: 3.656 cumulative IPC: 3.703 (Simulation time: 00 hr 10 min 25 sec)
*** Reached end of trace: (0, "../traces/public_traces/srv/srv_31.champsimtrace.xz")
Heartbeat CPU 0 instructions: 130000004 cycles: 32133530 heartbeat IPC: 3.774 cumulative IPC: 3.71 (Simulation time: 00 hr 11 min 20 sec)
Simulation finished CPU 0 instructions: 100000002 cycles: 26957752 cumulative IPC: 3.71 (Simulation time: 00 hr 11 min 20 sec)
Simulation complete CPU 0 instructions: 100000002 cycles: 26957752 cumulative IPC: 3.71 (Simulation time: 00 hr 11 min 20 sec)

ChampSim completed all CPUs

=== Simulation ===
CPU 0 runs ../traces/public_traces/srv/srv_31.champsimtrace.xz
Region of Interest Statistics

CPU 0 cumulative IPC: 3.71 instructions: 100000002 cycles: 26957752
CPU 0 Branch Prediction Accuracy: 99.82% MPKI: 0.3311 Average ROB Occupancy at Mispredict: 154.5
Branch type MPKI
BRANCH_DIRECT_JUMP: 0
BRANCH_INDIRECT: 0.226
BRANCH_CONDITIONAL: 0.105
BRANCH_DIRECT_CALL: 2e-05
BRANCH_INDIRECT_CALL: 1e-05
BRANCH_RETURN: 0.00024

LLC TOTAL        ACCESS:     392591 HIT:     253189 MISS:     139402
LLC LOAD         ACCESS:     125418 HIT:      64071 MISS:      61347
LLC RFO          ACCESS:      52648 HIT:      49989 MISS:       2659
LLC PREFETCH     ACCESS:     113734 HIT:      56770 MISS:      56964
LLC WRITE        ACCESS:      71549 HIT:      69491 MISS:       2058
LLC TRANSLATION  ACCESS:      29242 HIT:      12868 MISS:      16374
LLC PREFETCH REQUESTED:          0 ISSUED:          0 USEFUL:          0 USELESS:          0
LLC AVERAGE MISS LATENCY: 148.8 cycles
cpu0_DTLB TOTAL        ACCESS:   16818225 HIT:   15925408 MISS:     892817
cpu0_DTLB LOAD         ACCESS:   16818225 HIT:   15925408 MISS:     892817
cpu0_DTLB RFO          ACCESS:          0 HIT:          0 MISS:          0
cpu0_DTLB PREFETCH     ACCESS:          0 HIT:          0 MISS:          0
cpu0_DTLB WRITE        ACCESS:          0 HIT:          0 MISS:          0
cpu0_DTLB TRANSLATION  ACCESS:          0 HIT:          0 MISS:          0
cpu0_DTLB PREFETCH REQUESTED:          0 ISSUED:          0 USEFUL:          0 USELESS:          0
cpu0_DTLB AVERAGE MISS LATENCY: 9.482 cycles
cpu0_ITLB TOTAL        ACCESS:   16023710 HIT:   16022215 MISS:       1495
cpu0_ITLB LOAD         ACCESS:   16023710 HIT:   16022215 MISS:       1495
cpu0_ITLB RFO          ACCESS:          0 HIT:          0 MISS:          0
cpu0_ITLB PREFETCH     ACCESS:          0 HIT:          0 MISS:          0
cpu0_ITLB WRITE        ACCESS:          0 HIT:          0 MISS:          0
cpu0_ITLB TRANSLATION  ACCESS:          0 HIT:          0 MISS:          0
cpu0_ITLB PREFETCH REQUESTED:          0 ISSUED:          0 USEFUL:          0 USELESS:          0
cpu0_ITLB AVERAGE MISS LATENCY: 52.08 cycles
cpu0_L1D TOTAL        ACCESS:   28999397 HIT:   28057917 MISS:     941480
cpu0_L1D LOAD         ACCESS:   15768008 HIT:   15319693 MISS:     448315
cpu0_L1D RFO          ACCESS:          0 HIT:          0 MISS:          0
cpu0_L1D PREFETCH     ACCESS:    1142354 HIT:    1018833 MISS:     123521
cpu0_L1D WRITE        ACCESS:   12038260 HIT:   11714346 MISS:     323914
cpu0_L1D TRANSLATION  ACCESS:      50775 HIT:       5045 MISS:      45730
cpu0_L1D PREFETCH REQUESTED:    2243711 ISSUED:    1142354 USEFUL:      14313 USELESS:       6046
cpu0_L1D AVERAGE MISS LATENCY: 20.81 cycles
cpu0_L1I TOTAL        ACCESS:   23236173 HIT:   22738394 MISS:     497779
cpu0_L1I LOAD         ACCESS:   10179320 HIT:    9815192 MISS:     364128
cpu0_L1I RFO          ACCESS:          0 HIT:          0 MISS:          0
cpu0_L1I PREFETCH     ACCESS:   13056853 HIT:   12923202 MISS:     133651
cpu0_L1I WRITE        ACCESS:          0 HIT:          0 MISS:          0
cpu0_L1I TRANSLATION  ACCESS:          0 HIT:          0 MISS:          0
cpu0_L1I PREFETCH REQUESTED:   26763400 ISSUED:   13056875 USEFUL:      98288 USELESS:      19409
cpu0_L1I AVERAGE MISS LATENCY: 9.291 cycles
cpu0_L2C TOTAL        ACCESS:    1302092 HIT:     886379 MISS:     415713
cpu0_L2C LOAD         ACCESS:     424182 HIT:     293185 MISS:     130997
cpu0_L2C RFO          ACCESS:      61636 HIT:       8959 MISS:      52677
cpu0_L2C PREFETCH     ACCESS:     682424 HIT:     479768 MISS:     202656
cpu0_L2C WRITE        ACCESS:      88615 HIT:      88474 MISS:        141
cpu0_L2C TRANSLATION  ACCESS:      45235 HIT:      15993 MISS:      29242
cpu0_L2C PREFETCH REQUESTED:     633817 ISSUED:     472789 USEFUL:      12588 USELESS:      71749
cpu0_L2C AVERAGE MISS LATENCY: 65.08 cycles
cpu0_STLB TOTAL        ACCESS:     670059 HIT:     635699 MISS:      34360
cpu0_STLB LOAD         ACCESS:     670059 HIT:     635699 MISS:      34360
cpu0_STLB RFO          ACCESS:          0 HIT:          0 MISS:          0
cpu0_STLB PREFETCH     ACCESS:          0 HIT:          0 MISS:          0
cpu0_STLB WRITE        ACCESS:          0 HIT:          0 MISS:          0
cpu0_STLB TRANSLATION  ACCESS:          0 HIT:          0 MISS:          0
cpu0_STLB PREFETCH REQUESTED:          0 ISSUED:          0 USEFUL:          0 USELESS:          0
cpu0_STLB AVERAGE MISS LATENCY: 116.4 cycles

DRAM Statistics

Channel 0 RQ ROW_BUFFER_HIT:      13944
  ROW_BUFFER_MISS:      56009
 AVG DBUS CONGESTED CYCLE: 3.657
WQ ROW_BUFFER_HIT: Channel 0 
  ROW_BUFFER_MISS:        208
  FULL:        765

Channel 1 RQ ROW_BUFFER_HIT:      13530
  ROW_BUFFER_MISS:      53861
 AVG DBUS CONGESTED CYCLE: 3.65
WQ ROW_BUFFER_HIT: Channel 1 
  ROW_BUFFER_MISS:        175
  FULL:        754
BERTI TO_L1: 1827833 TO_L2: 2349868 TO_L2_BC_MSHR: 95821
BERTI AVG_LAT: 65.4572 NUM_TRACK_LATENCY: 253960 NUM_CANT_TRACK_LATENCY: 0
BERTI CROSS_PAGE 103416 NO_CROSS_PAGE: 4074285
BERTI FOUND_BERTI: 2753671 NO_FOUND_BERTI: 18767995
BERTI AVERAGE_ISSUED: 3.30484
CPU 0 L1I Entangling prefetcher final stats
IP accesses: 5cd0 173400 585296 / 10186430
IP misses: 13c3 4f0c0 1774 / 371238
IP hits: 0 0 0 / 0
IP late: 9d3d 274f40 502 / 155191
IP wrong: 58a5 162940 346 / 18897
miss rate: 0.0364444
coverage: 0
coverage_late: 0.418037
accuracy: 0
accuracy_late: 0.891452
discarded: 0
evicts entangled j table: 0
evicts entangled k table: 32381
max bb size: 17
formats: 4930 0 21586 7458 3207 5212 0 
hist_lookups: 4132 10757 18968 24633 23819 19684 14408 11888 9855 9273 7682 5471 3354 1865 491 0 51 57302 
hist_lookups_evict: 0.0228053 %
hist_lookups_shortlat: 25.6233 %
bb_found_hist: 0 2764250 1090742 370451 191065 36336 81343 2453 379 3 701 0 0 370 0 0 0 13 0 0 0 0 0 0 0 0 0 0 0 0 0 0 0 0 0 0 0 0 0 0 0 0 0 0 0 0 0 0 0 0 0 0 0 0 0 0 0 0 0 0 0 0 0 0 
bb_found_summary: 7523356 4538106 1.65782
entangled_found_hist: 0 1483310 550346 1089910 849189 59334 2292 0 
entangled_found_summary: 9560910 4034381 2.36986
bb_ent_found_hist: 0 2475019 1788993 592534 256095 16333 168954 6448 4387 5 3655 0 0 931 0 0 0 83 0 0 0 0 0 0 0 0 0 0 0 0 0 0 0 0 0 0 0 0 0 0 0 0 0 0 0 0 0 0 0 0 0 0 0 0 0 0 0 0 0 0 0 0 0 0 
bb_ent_found_summary: 10080717 5313437 1.89722
