WARNING: physical memory size is smaller than virtual memory size.

*** ChampSim Multicore Out-of-Order Simulator ***
Warmup Instructions: 30000000
Simulation Instructions: 100000000
Number of CPUs: 1
Page size: 4096

BTB:
Basic BTB sets: 1024 ways: 8
Indirect:
history lengths: 0 0 10 16 27 44 60 96 109 219 449 487 714 1313 2146 3881 
ITTAGE tables: 64768 bytes;Region table: 240 bytes;IUM: 384 bytes;Total Storage= 65392 bytes;
RAS:
RAS size: 64
[LLC] Demand IPV: 1 2 2 1 4 Prefetch IPV: 1 2 1 1 4
Berti Prefetcher
CPU 0 Entangling prefetcher
Off-chip DRAM Size: 8 GiB Channels: 2 Width: 64-bit Data Race: 6400 MT/s
Heartbeat CPU 0 instructions: 10000000 cycles: 1697291 heartbeat IPC: 5.892 cumulative IPC: 5.892 (Simulation time: 00 hr 00 min 46 sec)
Heartbeat CPU 0 instructions: 20000005 cycles: 3391137 heartbeat IPC: 5.904 cumulative IPC: 5.898 (Simulation time: 00 hr 01 min 33 sec)
Heartbeat CPU 0 instructions: 30000005 cycles: 5086094 heartbeat IPC: 5.9 cumulative IPC: 5.898 (Simulation time: 00 hr 02 min 16 sec)
Warmup finished CPU 0 instructions: 30000005 cycles: 5086095 cumulative IPC: 5.898 (Simulation time: 00 hr 02 min 16 sec)
Warmup complete CPU 0 instructions: 30000005 cycles: 5086095 cumulative IPC: 5.898 (Simulation time: 00 hr 02 min 16 sec)
*** Reached end of trace: (0, "../traces/public_traces/srv/srv_68.champsimtrace.xz")
Heartbeat CPU 0 instructions: 40000001 cycles: 8761544 heartbeat IPC: 2.721 cumulative IPC: 2.721 (Simulation time: 00 hr 03 min 23 sec)
Heartbeat CPU 0 instructions: 50000002 cycles: 12382271 heartbeat IPC: 2.762 cumulative IPC: 2.741 (Simulation time: 00 hr 04 min 22 sec)
Heartbeat CPU 0 instructions: 60000011 cycles: 16196599 heartbeat IPC: 2.622 cumulative IPC: 2.7 (Simulation time: 00 hr 05 min 23 sec)
*** Reached end of trace: (0, "../traces/public_traces/srv/srv_68.champsimtrace.xz")
Heartbeat CPU 0 instructions: 70000011 cycles: 19742723 heartbeat IPC: 2.82 cumulative IPC: 2.729 (Simulation time: 00 hr 06 min 21 sec)
Heartbeat CPU 0 instructions: 80000011 cycles: 23271531 heartbeat IPC: 2.834 cumulative IPC: 2.749 (Simulation time: 00 hr 07 min 25 sec)
Heartbeat CPU 0 instructions: 90000003 cycles: 27096199 heartbeat IPC: 2.615 cumulative IPC: 2.726 (Simulation time: 00 hr 08 min 37 sec)
*** Reached end of trace: (0, "../traces/public_traces/srv/srv_68.champsimtrace.xz")
Heartbeat CPU 0 instructions: 100000004 cycles: 30549355 heartbeat IPC: 2.896 cumulative IPC: 2.749 (Simulation time: 00 hr 09 min 38 sec)
Heartbeat CPU 0 instructions: 110000010 cycles: 34071554 heartbeat IPC: 2.839 cumulative IPC: 2.76 (Simulation time: 00 hr 10 min 43 sec)
Heartbeat CPU 0 instructions: 120000005 cycles: 37835436 heartbeat IPC: 2.657 cumulative IPC: 2.748 (Simulation time: 00 hr 11 min 47 sec)
*** Reached end of trace: (0, "../traces/public_traces/srv/srv_68.champsimtrace.xz")
Heartbeat CPU 0 instructions: 130000000 cycles: 41252893 heartbeat IPC: 2.926 cumulative IPC: 2.765 (Simulation time: 00 hr 12 min 49 sec)
Simulation finished CPU 0 instructions: 100000005 cycles: 36166801 cumulative IPC: 2.765 (Simulation time: 00 hr 12 min 49 sec)
Simulation complete CPU 0 instructions: 100000005 cycles: 36166801 cumulative IPC: 2.765 (Simulation time: 00 hr 12 min 49 sec)

ChampSim completed all CPUs

=== Simulation ===
CPU 0 runs ../traces/public_traces/srv/srv_68.champsimtrace.xz
Region of Interest Statistics

CPU 0 cumulative IPC: 2.765 instructions: 100000005 cycles: 36166801
CPU 0 Branch Prediction Accuracy: 95.89% MPKI: 7.241 Average ROB Occupancy at Mispredict: 44.06
Branch type MPKI
BRANCH_DIRECT_JUMP: 0.579
BRANCH_INDIRECT: 3.89
BRANCH_CONDITIONAL: 1
BRANCH_DIRECT_CALL: 1.01
BRANCH_INDIRECT_CALL: 0.0541
BRANCH_RETURN: 0.709

LLC TOTAL        ACCESS:     891514 HIT:     719686 MISS:     171828
LLC LOAD         ACCESS:     152601 HIT:     117936 MISS:      34665
LLC RFO          ACCESS:      35445 HIT:      27089 MISS:       8356
LLC PREFETCH     ACCESS:     478127 HIT:     399704 MISS:      78423
LLC WRITE        ACCESS:     155733 HIT:     137118 MISS:      18615
LLC TRANSLATION  ACCESS:      69608 HIT:      37839 MISS:      31769
LLC PREFETCH REQUESTED:          0 ISSUED:          0 USEFUL:          0 USELESS:          0
LLC AVERAGE MISS LATENCY: 137.2 cycles
cpu0_DTLB TOTAL        ACCESS:   16744782 HIT:   15783838 MISS:     960944
cpu0_DTLB LOAD         ACCESS:   16744782 HIT:   15783838 MISS:     960944
cpu0_DTLB RFO          ACCESS:          0 HIT:          0 MISS:          0
cpu0_DTLB PREFETCH     ACCESS:          0 HIT:          0 MISS:          0
cpu0_DTLB WRITE        ACCESS:          0 HIT:          0 MISS:          0
cpu0_DTLB TRANSLATION  ACCESS:          0 HIT:          0 MISS:          0
cpu0_DTLB PREFETCH REQUESTED:          0 ISSUED:          0 USEFUL:          0 USELESS:          0
cpu0_DTLB AVERAGE MISS LATENCY: 10.52 cycles
cpu0_ITLB TOTAL        ACCESS:   16130243 HIT:   15632471 MISS:     497772
cpu0_ITLB LOAD         ACCESS:   16130243 HIT:   15632471 MISS:     497772
cpu0_ITLB RFO          ACCESS:          0 HIT:          0 MISS:          0
cpu0_ITLB PREFETCH     ACCESS:          0 HIT:          0 MISS:          0
cpu0_ITLB WRITE        ACCESS:          0 HIT:          0 MISS:          0
cpu0_ITLB TRANSLATION  ACCESS:          0 HIT:          0 MISS:          0
cpu0_ITLB PREFETCH REQUESTED:          0 ISSUED:          0 USEFUL:          0 USELESS:          0
cpu0_ITLB AVERAGE MISS LATENCY: 7.791 cycles
cpu0_L1D TOTAL        ACCESS:   25303580 HIT:   23131110 MISS:    2172470
cpu0_L1D LOAD         ACCESS:   15200498 HIT:   13610872 MISS:    1589626
cpu0_L1D RFO          ACCESS:          0 HIT:          0 MISS:          0
cpu0_L1D PREFETCH     ACCESS:      31898 HIT:      13625 MISS:      18273
cpu0_L1D WRITE        ACCESS:    9946785 HIT:    9496793 MISS:     449992
cpu0_L1D TRANSLATION  ACCESS:     124399 HIT:       9820 MISS:     114579
cpu0_L1D PREFETCH REQUESTED:      33831 ISSUED:      31898 USEFUL:        217 USELESS:        102
cpu0_L1D AVERAGE MISS LATENCY: 13.62 cycles
cpu0_L1I TOTAL        ACCESS:   24170075 HIT:   20497665 MISS:    3672410
cpu0_L1I LOAD         ACCESS:    8179242 HIT:    7075636 MISS:    1103606
cpu0_L1I RFO          ACCESS:          0 HIT:          0 MISS:          0
cpu0_L1I PREFETCH     ACCESS:   15990833 HIT:   13422029 MISS:    2568804
cpu0_L1I WRITE        ACCESS:          0 HIT:          0 MISS:          0
cpu0_L1I TRANSLATION  ACCESS:          0 HIT:          0 MISS:          0
cpu0_L1I PREFETCH REQUESTED:   38613187 ISSUED:   15990834 USEFUL:    1752147 USELESS:     714128
cpu0_L1I AVERAGE MISS LATENCY: 12.79 cycles
cpu0_L2C TOTAL        ACCESS:    8936565 HIT:    8032184 MISS:     904381
cpu0_L2C LOAD         ACCESS:    1803681 HIT:    1630465 MISS:     173216
cpu0_L2C RFO          ACCESS:     153749 HIT:     117851 MISS:      35898
cpu0_L2C PREFETCH     ACCESS:    6372854 HIT:    5747209 MISS:     625645
cpu0_L2C WRITE        ACCESS:     492534 HIT:     492524 MISS:         10
cpu0_L2C TRANSLATION  ACCESS:     113747 HIT:      44135 MISS:      69612
cpu0_L2C PREFETCH REQUESTED:    4288041 ISSUED:    3888494 USEFUL:     112289 USELESS:     137879
cpu0_L2C AVERAGE MISS LATENCY: 41.39 cycles
cpu0_STLB TOTAL        ACCESS:     903840 HIT:     811801 MISS:      92039
cpu0_STLB LOAD         ACCESS:     903840 HIT:     811801 MISS:      92039
cpu0_STLB RFO          ACCESS:          0 HIT:          0 MISS:          0
cpu0_STLB PREFETCH     ACCESS:          0 HIT:          0 MISS:          0
cpu0_STLB WRITE        ACCESS:          0 HIT:          0 MISS:          0
cpu0_STLB TRANSLATION  ACCESS:          0 HIT:          0 MISS:          0
cpu0_STLB PREFETCH REQUESTED:          0 ISSUED:          0 USEFUL:          0 USELESS:          0
cpu0_STLB AVERAGE MISS LATENCY: 94.97 cycles

DRAM Statistics

Channel 0 RQ ROW_BUFFER_HIT:      17158
  ROW_BUFFER_MISS:      62867
 AVG DBUS CONGESTED CYCLE: 3.797
WQ ROW_BUFFER_HIT: Channel 0 
  ROW_BUFFER_MISS:       4862
  FULL:      19761

Channel 1 RQ ROW_BUFFER_HIT:      15681
  ROW_BUFFER_MISS:      57505
 AVG DBUS CONGESTED CYCLE: 3.791
WQ ROW_BUFFER_HIT: Channel 1 
  ROW_BUFFER_MISS:       4688
  FULL:      18276
BERTI TO_L1: 22301 TO_L2: 28576 TO_L2_BC_MSHR: 0
BERTI AVG_LAT: 16.9295 NUM_TRACK_LATENCY: 1357018 NUM_CANT_TRACK_LATENCY: 0
BERTI CROSS_PAGE 2861 NO_CROSS_PAGE: 48016
BERTI FOUND_BERTI: 617143 NO_FOUND_BERTI: 19528250
BERTI AVERAGE_ISSUED: 4.46814
CPU 0 L1I Entangling prefetcher final stats
IP accesses: bfb3 2fecc0 93023 / 8220439
IP misses: 4b3d 12cf40 4053 / 1144803
IP hits: 0 0 0 / 0
IP late: 3c1c f0700 1528 / 496061
IP wrong: 3a86 ea180 1860 / 710948
miss rate: 0.139264
coverage: 0
coverage_late: 0.433316
accuracy: 0
accuracy_late: 0.410984
discarded: 0
evicts entangled j table: 0
evicts entangled k table: 141289
max bb size: 111
formats: 19021 27107 91182 19497 11087 19102 0 
hist_lookups: 49525 78376 84173 86364 78154 59935 45547 34730 28131 22839 16483 10766 6668 3608 1341 0 513 146211 
hist_lookups_evict: 0.0680946 %
hist_lookups_shortlat: 19.4078 %
bb_found_hist: 0 1861481 954886 357259 242307 134618 100216 105546 149258 39332 67917 49650 45155 12464 5240 37798 6839 13933 2773 2390 2382 609 1082 1909 391 0 853 452 626 495 398 464 232 0 253 0 456 0 0 0 232 0 0 0 0 0 0 166 66 0 0 0 0 0 0 0 0 0 0 232 232 0 464 0 
bb_found_summary: 12723850 4201056 3.02873
entangled_found_hist: 0 1226628 1017494 1357411 169135 60555 5182 0 
entangled_found_summary: 8344256 3836405 2.17502
bb_ent_found_hist: 0 2748209 1445531 812225 328867 352456 191897 85830 113220 36939 121473 54024 42326 38060 10376 95677 24550 24997 3750 5349 5072 1352 1042 5555 110 0 1181 0 1423 495 646 0 464 0 660 0 854 0 0 0 1157 0 0 0 0 0 0 166 66 0 0 0 0 0 0 0 0 0 0 232 696 0 849 0 
bb_ent_found_summary: 20143896 6557776 3.07176
