WARNING: physical memory size is smaller than virtual memory size.

*** ChampSim Multicore Out-of-Order Simulator ***
Warmup Instructions: 30000000
Simulation Instructions: 100000000
Number of CPUs: 1
Page size: 4096

BTB:
Basic BTB sets: 1024 ways: 8
Indirect:
history lengths: 0 0 10 16 27 44 60 96 109 219 449 487 714 1313 2146 3881 
ITTAGE tables: 64768 bytes;Region table: 240 bytes;IUM: 384 bytes;Total Storage= 65392 bytes;
RAS:
RAS size: 64
[LLC] Demand IPV: 1 2 2 1 4 Prefetch IPV: 1 2 1 1 4
Berti Prefetcher
CPU 0 Entangling prefetcher
Off-chip DRAM Size: 8 GiB Channels: 2 Width: 64-bit Data Race: 6400 MT/s
Heartbeat CPU 0 instructions: 10000001 cycles: 1756727 heartbeat IPC: 5.692 cumulative IPC: 5.692 (Simulation time: 00 hr 00 min 47 sec)
Heartbeat CPU 0 instructions: 20000000 cycles: 3513135 heartbeat IPC: 5.693 cumulative IPC: 5.693 (Simulation time: 00 hr 01 min 31 sec)
Heartbeat CPU 0 instructions: 30000005 cycles: 5246024 heartbeat IPC: 5.771 cumulative IPC: 5.719 (Simulation time: 00 hr 02 min 12 sec)
Warmup finished CPU 0 instructions: 30000005 cycles: 5246025 cumulative IPC: 5.719 (Simulation time: 00 hr 02 min 12 sec)
Warmup complete CPU 0 instructions: 30000005 cycles: 5246025 cumulative IPC: 5.719 (Simulation time: 00 hr 02 min 12 sec)
*** Reached end of trace: (0, "../traces/public_traces/srv/srv_48.champsimtrace.xz")
Heartbeat CPU 0 instructions: 40000000 cycles: 9344048 heartbeat IPC: 2.44 cumulative IPC: 2.44 (Simulation time: 00 hr 03 min 22 sec)
Heartbeat CPU 0 instructions: 50000005 cycles: 13775829 heartbeat IPC: 2.256 cumulative IPC: 2.345 (Simulation time: 00 hr 04 min 46 sec)
Heartbeat CPU 0 instructions: 60000011 cycles: 17600487 heartbeat IPC: 2.615 cumulative IPC: 2.428 (Simulation time: 00 hr 05 min 46 sec)
*** Reached end of trace: (0, "../traces/public_traces/srv/srv_48.champsimtrace.xz")
Heartbeat CPU 0 instructions: 70000000 cycles: 21535260 heartbeat IPC: 2.541 cumulative IPC: 2.456 (Simulation time: 00 hr 06 min 53 sec)
Heartbeat CPU 0 instructions: 80000002 cycles: 25994175 heartbeat IPC: 2.243 cumulative IPC: 2.41 (Simulation time: 00 hr 08 min 02 sec)
Heartbeat CPU 0 instructions: 90000003 cycles: 29866819 heartbeat IPC: 2.582 cumulative IPC: 2.437 (Simulation time: 00 hr 09 min 09 sec)
*** Reached end of trace: (0, "../traces/public_traces/srv/srv_48.champsimtrace.xz")
Heartbeat CPU 0 instructions: 100000001 cycles: 33717210 heartbeat IPC: 2.597 cumulative IPC: 2.459 (Simulation time: 00 hr 10 min 14 sec)
Heartbeat CPU 0 instructions: 110000002 cycles: 38239630 heartbeat IPC: 2.211 cumulative IPC: 2.425 (Simulation time: 00 hr 11 min 23 sec)
Heartbeat CPU 0 instructions: 120000000 cycles: 41975529 heartbeat IPC: 2.677 cumulative IPC: 2.45 (Simulation time: 00 hr 12 min 23 sec)
*** Reached end of trace: (0, "../traces/public_traces/srv/srv_48.champsimtrace.xz")
Heartbeat CPU 0 instructions: 130000005 cycles: 45879009 heartbeat IPC: 2.562 cumulative IPC: 2.461 (Simulation time: 00 hr 13 min 32 sec)
Simulation finished CPU 0 instructions: 100000000 cycles: 40632985 cumulative IPC: 2.461 (Simulation time: 00 hr 13 min 32 sec)
Simulation complete CPU 0 instructions: 100000000 cycles: 40632985 cumulative IPC: 2.461 (Simulation time: 00 hr 13 min 32 sec)

ChampSim completed all CPUs

=== Simulation ===
CPU 0 runs ../traces/public_traces/srv/srv_48.champsimtrace.xz
Region of Interest Statistics

CPU 0 cumulative IPC: 2.461 instructions: 100000000 cycles: 40632985
CPU 0 Branch Prediction Accuracy: 95.22% MPKI: 8.284 Average ROB Occupancy at Mispredict: 29.84
Branch type MPKI
BRANCH_DIRECT_JUMP: 0.682
BRANCH_INDIRECT: 3.86
BRANCH_CONDITIONAL: 1.11
BRANCH_DIRECT_CALL: 1.28
BRANCH_INDIRECT_CALL: 0.455
BRANCH_RETURN: 0.895

LLC TOTAL        ACCESS:     889564 HIT:     580310 MISS:     309254
LLC LOAD         ACCESS:     128105 HIT:      68343 MISS:      59762
LLC RFO          ACCESS:     179428 HIT:     134915 MISS:      44513
LLC PREFETCH     ACCESS:     309686 HIT:     170547 MISS:     139139
LLC WRITE        ACCESS:     240917 HIT:     200234 MISS:      40683
LLC TRANSLATION  ACCESS:      31428 HIT:       6271 MISS:      25157
LLC PREFETCH REQUESTED:          0 ISSUED:          0 USEFUL:          0 USELESS:          0
LLC AVERAGE MISS LATENCY: 129 cycles
cpu0_DTLB TOTAL        ACCESS:   19076138 HIT:   18638976 MISS:     437162
cpu0_DTLB LOAD         ACCESS:   19076138 HIT:   18638976 MISS:     437162
cpu0_DTLB RFO          ACCESS:          0 HIT:          0 MISS:          0
cpu0_DTLB PREFETCH     ACCESS:          0 HIT:          0 MISS:          0
cpu0_DTLB WRITE        ACCESS:          0 HIT:          0 MISS:          0
cpu0_DTLB TRANSLATION  ACCESS:          0 HIT:          0 MISS:          0
cpu0_DTLB PREFETCH REQUESTED:          0 ISSUED:          0 USEFUL:          0 USELESS:          0
cpu0_DTLB AVERAGE MISS LATENCY: 15.08 cycles
cpu0_ITLB TOTAL        ACCESS:   15858269 HIT:   15489011 MISS:     369258
cpu0_ITLB LOAD         ACCESS:   15858269 HIT:   15489011 MISS:     369258
cpu0_ITLB RFO          ACCESS:          0 HIT:          0 MISS:          0
cpu0_ITLB PREFETCH     ACCESS:          0 HIT:          0 MISS:          0
cpu0_ITLB WRITE        ACCESS:          0 HIT:          0 MISS:          0
cpu0_ITLB TRANSLATION  ACCESS:          0 HIT:          0 MISS:          0
cpu0_ITLB PREFETCH REQUESTED:          0 ISSUED:          0 USEFUL:          0 USELESS:          0
cpu0_ITLB AVERAGE MISS LATENCY: 5.521 cycles
cpu0_L1D TOTAL        ACCESS:   30860962 HIT:   27858796 MISS:    3002166
cpu0_L1D LOAD         ACCESS:   18934503 HIT:   17744851 MISS:    1189652
cpu0_L1D RFO          ACCESS:          0 HIT:          0 MISS:          0
cpu0_L1D PREFETCH     ACCESS:     612975 HIT:     368369 MISS:     244606
cpu0_L1D WRITE        ACCESS:   11274955 HIT:    9743458 MISS:    1531497
cpu0_L1D TRANSLATION  ACCESS:      38529 HIT:       2118 MISS:      36411
cpu0_L1D PREFETCH REQUESTED:    1175186 ISSUED:     612975 USEFUL:      17705 USELESS:       7433
cpu0_L1D AVERAGE MISS LATENCY: 12.57 cycles
cpu0_L1I TOTAL        ACCESS:   23143698 HIT:   19810980 MISS:    3332718
cpu0_L1I LOAD         ACCESS:    8316005 HIT:    7591803 MISS:     724202
cpu0_L1I RFO          ACCESS:          0 HIT:          0 MISS:          0
cpu0_L1I PREFETCH     ACCESS:   14827693 HIT:   12219177 MISS:    2608516
cpu0_L1I WRITE        ACCESS:          0 HIT:          0 MISS:          0
cpu0_L1I TRANSLATION  ACCESS:          0 HIT:          0 MISS:          0
cpu0_L1I PREFETCH REQUESTED:   30567742 ISSUED:   14827727 USEFUL:    1779858 USELESS:     736330
cpu0_L1I AVERAGE MISS LATENCY: 12.3 cycles
cpu0_L2C TOTAL        ACCESS:    8923746 HIT:    8108727 MISS:     815019
cpu0_L2C LOAD         ACCESS:    1279550 HIT:    1137410 MISS:     142140
cpu0_L2C RFO          ACCESS:     402355 HIT:     221966 MISS:     180389
cpu0_L2C PREFETCH     ACCESS:    6598376 HIT:    6137383 MISS:     460993
cpu0_L2C WRITE        ACCESS:     608386 HIT:     608317 MISS:         69
cpu0_L2C TRANSLATION  ACCESS:      35079 HIT:       3651 MISS:      31428
cpu0_L2C PREFETCH REQUESTED:    4022064 ISSUED:    3856230 USEFUL:      74820 USELESS:      98407
cpu0_L2C AVERAGE MISS LATENCY: 64.15 cycles
cpu0_STLB TOTAL        ACCESS:     493236 HIT:     468677 MISS:      24559
cpu0_STLB LOAD         ACCESS:     493236 HIT:     468677 MISS:      24559
cpu0_STLB RFO          ACCESS:          0 HIT:          0 MISS:          0
cpu0_STLB PREFETCH     ACCESS:          0 HIT:          0 MISS:          0
cpu0_STLB WRITE        ACCESS:          0 HIT:          0 MISS:          0
cpu0_STLB TRANSLATION  ACCESS:          0 HIT:          0 MISS:          0
cpu0_STLB PREFETCH REQUESTED:          0 ISSUED:          0 USEFUL:          0 USELESS:          0
cpu0_STLB AVERAGE MISS LATENCY: 241 cycles

DRAM Statistics

Channel 0 RQ ROW_BUFFER_HIT:      54155
  ROW_BUFFER_MISS:      83050
 AVG DBUS CONGESTED CYCLE: 3.828
WQ ROW_BUFFER_HIT: Channel 0 
  ROW_BUFFER_MISS:       7721
  FULL:      24309

Channel 1 RQ ROW_BUFFER_HIT:      52652
  ROW_BUFFER_MISS:      78703
 AVG DBUS CONGESTED CYCLE: 3.815
WQ ROW_BUFFER_HIT: Channel 1 
  ROW_BUFFER_MISS:       7307
  FULL:      22842
BERTI TO_L1: 366535 TO_L2: 1216628 TO_L2_BC_MSHR: 303825
BERTI AVG_LAT: 23.8645 NUM_TRACK_LATENCY: 1079878 NUM_CANT_TRACK_LATENCY: 0
BERTI CROSS_PAGE 345389 NO_CROSS_PAGE: 1237774
BERTI FOUND_BERTI: 1426086 NO_FOUND_BERTI: 23653561
BERTI AVERAGE_ISSUED: 5.05576
CPU 0 L1I Entangling prefetcher final stats
IP accesses: cd42 335080 49879 / 8326452
IP misses: f2a2 3ca880 4453 / 734649
IP hits: 0 0 0 / 0
IP late: e7a1 39e840 1533 / 344577
IP wrong: f2a3 3ca8c0 2423 / 732651
miss rate: 0.0882308
coverage: 0
coverage_late: 0.469037
accuracy: 0
accuracy_late: 0.319874
discarded: 0
evicts entangled j table: 0
evicts entangled k table: 127608
max bb size: 40
formats: 45048 0 94916 16210 10403 23176 0 
hist_lookups: 45721 66343 70125 72188 69195 63294 46742 35574 24436 18414 14395 9572 5748 3239 1683 0 12 138370 
hist_lookups_evict: 0.0017517 %
hist_lookups_shortlat: 20.1985 %
bb_found_hist: 0 2417748 850316 394319 164668 63943 26999 16308 7411 14257 4852 1167 116 1271 0 0 0 2080 0 0 0 0 0 0 0 0 0 0 0 0 0 0 0 0 0 0 195 0 119 0 44 0 0 0 0 0 0 0 0 0 0 0 0 0 0 0 0 0 0 0 0 0 0 0 
bb_found_summary: 6871409 3965813 1.73267
entangled_found_hist: 0 1261640 954819 2227472 249256 63621 11963 0 
entangled_found_summary: 11240601 4768771 2.35713
bb_ent_found_hist: 0 4050517 1839209 795738 334895 202276 100407 37733 16232 42073 19711 5723 655 1135 0 0 0 14144 0 0 0 0 0 0 0 0 0 0 0 0 0 0 0 0 0 0 4 0 340 0 0 0 0 0 0 0 0 0 0 0 0 0 0 0 0 0 0 0 0 0 0 0 0 0 
bb_ent_found_summary: 14378385 7460792 1.9272
