WARNING: physical memory size is smaller than virtual memory size.

*** ChampSim Multicore Out-of-Order Simulator ***
Warmup Instructions: 30000000
Simulation Instructions: 100000000
Number of CPUs: 1
Page size: 4096

BTB:
Basic BTB sets: 1024 ways: 8
Indirect:
history lengths: 0 0 10 16 27 44 60 96 109 219 449 487 714 1313 2146 3881 
ITTAGE tables: 64768 bytes;Region table: 240 bytes;IUM: 384 bytes;Total Storage= 65392 bytes;
RAS:
RAS size: 64
[LLC] Demand IPV: 1 2 2 1 4 Prefetch IPV: 1 2 1 1 4
Berti Prefetcher
CPU 0 Entangling prefetcher
Off-chip DRAM Size: 8 GiB Channels: 2 Width: 64-bit Data Race: 6400 MT/s
Heartbeat CPU 0 instructions: 10000002 cycles: 1815189 heartbeat IPC: 5.509 cumulative IPC: 5.509 (Simulation time: 00 hr 00 min 46 sec)
Heartbeat CPU 0 instructions: 20000006 cycles: 3631924 heartbeat IPC: 5.504 cumulative IPC: 5.507 (Simulation time: 00 hr 01 min 34 sec)
Heartbeat CPU 0 instructions: 30000006 cycles: 5443747 heartbeat IPC: 5.519 cumulative IPC: 5.511 (Simulation time: 00 hr 02 min 22 sec)
Warmup finished CPU 0 instructions: 30000006 cycles: 5443748 cumulative IPC: 5.511 (Simulation time: 00 hr 02 min 22 sec)
Warmup complete CPU 0 instructions: 30000006 cycles: 5443748 cumulative IPC: 5.511 (Simulation time: 00 hr 02 min 22 sec)
*** Reached end of trace: (0, "../traces/public_traces/srv/srv_44.champsimtrace.xz")
Heartbeat CPU 0 instructions: 40000010 cycles: 9897211 heartbeat IPC: 2.245 cumulative IPC: 2.245 (Simulation time: 00 hr 03 min 39 sec)
Heartbeat CPU 0 instructions: 50000007 cycles: 14252534 heartbeat IPC: 2.296 cumulative IPC: 2.27 (Simulation time: 00 hr 04 min 50 sec)
Heartbeat CPU 0 instructions: 60000000 cycles: 18645689 heartbeat IPC: 2.276 cumulative IPC: 2.272 (Simulation time: 00 hr 06 min 05 sec)
*** Reached end of trace: (0, "../traces/public_traces/srv/srv_44.champsimtrace.xz")
Heartbeat CPU 0 instructions: 70000010 cycles: 23023647 heartbeat IPC: 2.284 cumulative IPC: 2.275 (Simulation time: 00 hr 07 min 15 sec)
Heartbeat CPU 0 instructions: 80000000 cycles: 27360847 heartbeat IPC: 2.306 cumulative IPC: 2.281 (Simulation time: 00 hr 08 min 28 sec)
Heartbeat CPU 0 instructions: 90000011 cycles: 31663975 heartbeat IPC: 2.324 cumulative IPC: 2.288 (Simulation time: 00 hr 09 min 37 sec)
*** Reached end of trace: (0, "../traces/public_traces/srv/srv_44.champsimtrace.xz")
Heartbeat CPU 0 instructions: 100000006 cycles: 36038467 heartbeat IPC: 2.286 cumulative IPC: 2.288 (Simulation time: 00 hr 10 min 49 sec)
Heartbeat CPU 0 instructions: 110000001 cycles: 40342404 heartbeat IPC: 2.323 cumulative IPC: 2.292 (Simulation time: 00 hr 12 min 00 sec)
Heartbeat CPU 0 instructions: 120000009 cycles: 44622171 heartbeat IPC: 2.337 cumulative IPC: 2.297 (Simulation time: 00 hr 13 min 12 sec)
*** Reached end of trace: (0, "../traces/public_traces/srv/srv_44.champsimtrace.xz")
Heartbeat CPU 0 instructions: 130000000 cycles: 48979726 heartbeat IPC: 2.295 cumulative IPC: 2.297 (Simulation time: 00 hr 14 min 29 sec)
Simulation finished CPU 0 instructions: 100000001 cycles: 43535983 cumulative IPC: 2.297 (Simulation time: 00 hr 14 min 29 sec)
Simulation complete CPU 0 instructions: 100000001 cycles: 43535983 cumulative IPC: 2.297 (Simulation time: 00 hr 14 min 29 sec)

ChampSim completed all CPUs

=== Simulation ===
CPU 0 runs ../traces/public_traces/srv/srv_44.champsimtrace.xz
Region of Interest Statistics

CPU 0 cumulative IPC: 2.297 instructions: 100000001 cycles: 43535983
CPU 0 Branch Prediction Accuracy: 94.86% MPKI: 8.813 Average ROB Occupancy at Mispredict: 47.97
Branch type MPKI
BRANCH_DIRECT_JUMP: 0.684
BRANCH_INDIRECT: 4.1
BRANCH_CONDITIONAL: 1.08
BRANCH_DIRECT_CALL: 1.53
BRANCH_INDIRECT_CALL: 0.43
BRANCH_RETURN: 0.988

LLC TOTAL        ACCESS:     789404 HIT:     601428 MISS:     187976
LLC LOAD         ACCESS:     177888 HIT:     133371 MISS:      44517
LLC RFO          ACCESS:     153713 HIT:     118736 MISS:      34977
LLC PREFETCH     ACCESS:     171463 HIT:     106657 MISS:      64806
LLC WRITE        ACCESS:     253944 HIT:     231240 MISS:      22704
LLC TRANSLATION  ACCESS:      32396 HIT:      11424 MISS:      20972
LLC PREFETCH REQUESTED:          0 ISSUED:          0 USEFUL:          0 USELESS:          0
LLC AVERAGE MISS LATENCY: 132.8 cycles
cpu0_DTLB TOTAL        ACCESS:   21684186 HIT:   20544422 MISS:    1139764
cpu0_DTLB LOAD         ACCESS:   21684186 HIT:   20544422 MISS:    1139764
cpu0_DTLB RFO          ACCESS:          0 HIT:          0 MISS:          0
cpu0_DTLB PREFETCH     ACCESS:          0 HIT:          0 MISS:          0
cpu0_DTLB WRITE        ACCESS:          0 HIT:          0 MISS:          0
cpu0_DTLB TRANSLATION  ACCESS:          0 HIT:          0 MISS:          0
cpu0_DTLB PREFETCH REQUESTED:          0 ISSUED:          0 USEFUL:          0 USELESS:          0
cpu0_DTLB AVERAGE MISS LATENCY: 9.051 cycles
cpu0_ITLB TOTAL        ACCESS:   24053092 HIT:   23078971 MISS:     974121
cpu0_ITLB LOAD         ACCESS:   24053092 HIT:   23078971 MISS:     974121
cpu0_ITLB RFO          ACCESS:          0 HIT:          0 MISS:          0
cpu0_ITLB PREFETCH     ACCESS:          0 HIT:          0 MISS:          0
cpu0_ITLB WRITE        ACCESS:          0 HIT:          0 MISS:          0
cpu0_ITLB TRANSLATION  ACCESS:          0 HIT:          0 MISS:          0
cpu0_ITLB PREFETCH REQUESTED:          0 ISSUED:          0 USEFUL:          0 USELESS:          0
cpu0_ITLB AVERAGE MISS LATENCY: 3.899 cycles
cpu0_L1D TOTAL        ACCESS:   32628146 HIT:   27063307 MISS:    5564839
cpu0_L1D LOAD         ACCESS:   19896932 HIT:   17076942 MISS:    2819990
cpu0_L1D RFO          ACCESS:          0 HIT:          0 MISS:          0
cpu0_L1D PREFETCH     ACCESS:     130614 HIT:      14303 MISS:     116311
cpu0_L1D WRITE        ACCESS:   12557341 HIT:    9970310 MISS:    2587031
cpu0_L1D TRANSLATION  ACCESS:      43259 HIT:       1752 MISS:      41507
cpu0_L1D PREFETCH REQUESTED:     551311 ISSUED:     130614 USEFUL:      10507 USELESS:       1047
cpu0_L1D AVERAGE MISS LATENCY: 9.022 cycles
cpu0_L1I TOTAL        ACCESS:   34887938 HIT:   26498160 MISS:    8389778
cpu0_L1I LOAD         ACCESS:   11528054 HIT:    9731358 MISS:    1796696
cpu0_L1I RFO          ACCESS:          0 HIT:          0 MISS:          0
cpu0_L1I PREFETCH     ACCESS:   23359884 HIT:   16766802 MISS:    6593082
cpu0_L1I WRITE        ACCESS:          0 HIT:          0 MISS:          0
cpu0_L1I TRANSLATION  ACCESS:          0 HIT:          0 MISS:          0
cpu0_L1I PREFETCH REQUESTED:   35944469 ISSUED:   23359851 USEFUL:    5109215 USELESS:    1244604
cpu0_L1I AVERAGE MISS LATENCY: 10.85 cycles
cpu0_L2C TOTAL        ACCESS:   20723545 HIT:   20042706 MISS:     680839
cpu0_L2C LOAD         ACCESS:    3158578 HIT:    2962474 MISS:     196104
cpu0_L2C RFO          ACCESS:     838492 HIT:     683523 MISS:     154969
cpu0_L2C PREFETCH     ACCESS:   15307660 HIT:   15010308 MISS:     297352
cpu0_L2C WRITE        ACCESS:    1380014 HIT:    1379996 MISS:         18
cpu0_L2C TRANSLATION  ACCESS:      38801 HIT:       6405 MISS:      32396
cpu0_L2C PREFETCH REQUESTED:    9596202 ISSUED:    8870004 USEFUL:      57634 USELESS:      76750
cpu0_L2C AVERAGE MISS LATENCY: 51.06 cycles
cpu0_STLB TOTAL        ACCESS:    1336095 HIT:    1313397 MISS:      22698
cpu0_STLB LOAD         ACCESS:    1336095 HIT:    1313397 MISS:      22698
cpu0_STLB RFO          ACCESS:          0 HIT:          0 MISS:          0
cpu0_STLB PREFETCH     ACCESS:          0 HIT:          0 MISS:          0
cpu0_STLB WRITE        ACCESS:          0 HIT:          0 MISS:          0
cpu0_STLB TRANSLATION  ACCESS:          0 HIT:          0 MISS:          0
cpu0_STLB PREFETCH REQUESTED:          0 ISSUED:          0 USEFUL:          0 USELESS:          0
cpu0_STLB AVERAGE MISS LATENCY: 243.7 cycles

DRAM Statistics

Channel 0 RQ ROW_BUFFER_HIT:      41504
  ROW_BUFFER_MISS:      42995
 AVG DBUS CONGESTED CYCLE: 3.87
WQ ROW_BUFFER_HIT: Channel 0 
  ROW_BUFFER_MISS:       3406
  FULL:      16881

Channel 1 RQ ROW_BUFFER_HIT:      39396
  ROW_BUFFER_MISS:      41375
 AVG DBUS CONGESTED CYCLE: 3.87
WQ ROW_BUFFER_HIT: Channel 1 
  ROW_BUFFER_MISS:       3415
  FULL:      16475
BERTI TO_L1: 143380 TO_L2: 545127 TO_L2_BC_MSHR: 268398
BERTI AVG_LAT: 15.1592 NUM_TRACK_LATENCY: 2610533 NUM_CANT_TRACK_LATENCY: 0
BERTI CROSS_PAGE 112404 NO_CROSS_PAGE: 576103
BERTI FOUND_BERTI: 921079 NO_FOUND_BERTI: 24827910
BERTI AVERAGE_ISSUED: 5.92291
CPU 0 L1I Entangling prefetcher final stats
IP accesses: 9a90 26a400 56868 / 11536682
IP misses: dabf 36afc0 9937 / 1805325
IP hits: 0 0 0 / 0
IP late: dac2 36b080 4144 / 874741
IP wrong: 9a9c 26a700 6307 / 1235097
miss rate: 0.156486
coverage: 0
coverage_late: 0.484534
accuracy: 0
accuracy_late: 0.414602
discarded: 0
evicts entangled j table: 0
evicts entangled k table: 322515
max bb size: 37
formats: 149117 0 201877 28337 18273 38039 0 
hist_lookups: 90217 156761 178429 188754 167281 136962 113834 73434 56315 46568 36891 24755 13858 7871 3970 0 54 444391 
hist_lookups_evict: 0.00310284 %
hist_lookups_shortlat: 25.5347 %
bb_found_hist: 0 3092044 1249326 507455 190707 72233 38961 15524 10411 1547 6340 3170 0 8554 0 0 0 0 0 0 0 0 0 0 0 0 0 0 0 0 171 0 0 0 0 0 0 176 0 0 0 0 0 0 0 0 0 0 0 0 0 0 0 0 0 0 0 0 0 0 0 0 0 0 
bb_found_summary: 8897813 5196619 1.71224
entangled_found_hist: 0 2062928 1337261 2959194 263014 61070 25665 0 
entangled_found_summary: 15126428 6709132 2.25461
bb_ent_found_hist: 0 4958861 2604683 1171916 434476 222548 94146 46675 25528 0 14349 15604 0 32828 0 0 0 0 0 0 0 0 0 0 0 0 0 0 0 0 264 0 0 0 0 0 0 717 0 0 0 0 0 0 0 0 0 0 0 0 0 0 0 0 0 0 0 0 0 0 0 0 0 0 
bb_ent_found_summary: 18406791 9622595 1.91288
