WARNING: physical memory size is smaller than virtual memory size.

*** ChampSim Multicore Out-of-Order Simulator ***
Warmup Instructions: 25000000
Simulation Instructions: 100000000
Number of CPUs: 1
Page size: 4096

[L1D] Demand IPV: 1 2 2 1 4 Prefetch IPV: 1 2 1 1 4
[L1I] Demand IPV: 1 2 2 1 4 Prefetch IPV: 1 2 1 1 4
[L2C] Demand IPV: 1 2 2 1 4 Prefetch IPV: 1 2 1 1 4
[LLC] Demand IPV: 1 2 2 1 4 Prefetch IPV: 1 2 1 1 4
Off-chip DRAM Size: 4 GiB Channels: 1 Width: 64-bit Data Race: 3200 MT/s
Heartbeat CPU 0 instructions: 10000000 cycles: 2507132 heartbeat IPC: 3.989 cumulative IPC: 3.989 (Simulation time: 00 hr 00 min 19 sec)
Heartbeat CPU 0 instructions: 20000000 cycles: 5014325 heartbeat IPC: 3.989 cumulative IPC: 3.989 (Simulation time: 00 hr 00 min 38 sec)
Warmup finished CPU 0 instructions: 25000000 cycles: 6264326 cumulative IPC: 3.991 (Simulation time: 00 hr 00 min 48 sec)
Warmup complete CPU 0 instructions: 25000000 cycles: 6264326 cumulative IPC: 3.991 (Simulation time: 00 hr 00 min 48 sec)
Heartbeat CPU 0 instructions: 30000001 cycles: 21527386 heartbeat IPC: 0.6056 cumulative IPC: 0.3276 (Simulation time: 00 hr 01 min 58 sec)
*** Reached end of trace: (0, "../traces/public_traces/compute_fp/compute_fp_10.champsimtrace.xz")
Heartbeat CPU 0 instructions: 40000000 cycles: 51153635 heartbeat IPC: 0.3375 cumulative IPC: 0.3342 (Simulation time: 00 hr 04 min 15 sec)
Heartbeat CPU 0 instructions: 50000003 cycles: 81744759 heartbeat IPC: 0.3269 cumulative IPC: 0.3312 (Simulation time: 00 hr 06 min 36 sec)
Heartbeat CPU 0 instructions: 60000000 cycles: 112259789 heartbeat IPC: 0.3277 cumulative IPC: 0.3302 (Simulation time: 00 hr 08 min 56 sec)
*** Reached end of trace: (0, "../traces/public_traces/compute_fp/compute_fp_10.champsimtrace.xz")
Heartbeat CPU 0 instructions: 70000000 cycles: 141826192 heartbeat IPC: 0.3382 cumulative IPC: 0.332 (Simulation time: 00 hr 11 min 13 sec)
Heartbeat CPU 0 instructions: 80000002 cycles: 172422672 heartbeat IPC: 0.3268 cumulative IPC: 0.331 (Simulation time: 00 hr 13 min 34 sec)
Heartbeat CPU 0 instructions: 90000000 cycles: 202891862 heartbeat IPC: 0.3282 cumulative IPC: 0.3306 (Simulation time: 00 hr 15 min 54 sec)
*** Reached end of trace: (0, "../traces/public_traces/compute_fp/compute_fp_10.champsimtrace.xz")
Heartbeat CPU 0 instructions: 100000002 cycles: 232454067 heartbeat IPC: 0.3383 cumulative IPC: 0.3316 (Simulation time: 00 hr 18 min 11 sec)
Heartbeat CPU 0 instructions: 110000001 cycles: 262996523 heartbeat IPC: 0.3274 cumulative IPC: 0.3311 (Simulation time: 00 hr 20 min 31 sec)
Heartbeat CPU 0 instructions: 120000002 cycles: 293474323 heartbeat IPC: 0.3281 cumulative IPC: 0.3308 (Simulation time: 00 hr 22 min 52 sec)
*** Reached end of trace: (0, "../traces/public_traces/compute_fp/compute_fp_10.champsimtrace.xz")
Simulation finished CPU 0 instructions: 100000003 cycles: 302023464 cumulative IPC: 0.3311 (Simulation time: 00 hr 24 min 00 sec)
Simulation complete CPU 0 instructions: 100000003 cycles: 302023464 cumulative IPC: 0.3311 (Simulation time: 00 hr 24 min 00 sec)

ChampSim completed all CPUs

=== Simulation ===
CPU 0 runs ../traces/public_traces/compute_fp/compute_fp_10.champsimtrace.xz
Region of Interest Statistics

CPU 0 cumulative IPC: 0.3311 instructions: 100000003 cycles: 302023464
CPU 0 Branch Prediction Accuracy: 99.65% MPKI: 0.02849 Average ROB Occupancy at Mispredict: 205.7
Branch type MPKI
BRANCH_DIRECT_JUMP: 0
BRANCH_INDIRECT: 0.0278
BRANCH_CONDITIONAL: 0.00066
BRANCH_DIRECT_CALL: 0
BRANCH_INDIRECT_CALL: 3e-05
BRANCH_RETURN: 0

L1D TOTAL        ACCESS:   18984205 HIT:    9679841 MISS:    9304364
L1D LOAD         ACCESS:    8296644 HIT:    3002115 MISS:    5294529
L1D RFO          ACCESS:          0 HIT:          0 MISS:          0
L1D PREFETCH     ACCESS:          0 HIT:          0 MISS:          0
L1D WRITE        ACCESS:   10644481 HIT:    6674829 MISS:    3969652
L1D TRANSLATION  ACCESS:      43080 HIT:       2897 MISS:      40183
L1D PREFETCH REQUESTED:          0 ISSUED:          0 USEFUL:          0 USELESS:          0
L1D AVERAGE MISS LATENCY: 365.9 cycles
L1I TOTAL        ACCESS:       2126 HIT:       2098 MISS:         28
L1I LOAD         ACCESS:       2126 HIT:       2098 MISS:         28
L1I RFO          ACCESS:          0 HIT:          0 MISS:          0
L1I PREFETCH     ACCESS:          0 HIT:          0 MISS:          0
L1I WRITE        ACCESS:          0 HIT:          0 MISS:          0
L1I TRANSLATION  ACCESS:          0 HIT:          0 MISS:          0
L1I PREFETCH REQUESTED:          0 ISSUED:          0 USEFUL:          0 USELESS:          0
L1I AVERAGE MISS LATENCY: 331 cycles
L2C TOTAL        ACCESS:    8584832 HIT:    5183412 MISS:    3401420
L2C LOAD         ACCESS:     690147 HIT:        171 MISS:     689976
L2C RFO          ACCESS:    3927212 HIT:    1652847 MISS:    2274365
L2C PREFETCH     ACCESS:          0 HIT:          0 MISS:          0
L2C WRITE        ACCESS:    3927290 HIT:    3492451 MISS:     434839
L2C TRANSLATION  ACCESS:      40183 HIT:      37943 MISS:       2240
L2C PREFETCH REQUESTED:          0 ISSUED:          0 USEFUL:          0 USELESS:          0
L2C AVERAGE MISS LATENCY: 1040 cycles
LLC TOTAL        ACCESS:    5280692 HIT:     954631 MISS:    4326061
LLC LOAD         ACCESS:     689976 HIT:        167 MISS:     689809
LLC RFO          ACCESS:    2274355 HIT:     189505 MISS:    2084850
LLC PREFETCH     ACCESS:          0 HIT:          0 MISS:          0
LLC WRITE        ACCESS:    2314121 HIT:     763833 MISS:    1550288
LLC TRANSLATION  ACCESS:       2240 HIT:       1126 MISS:       1114
LLC PREFETCH REQUESTED:          0 ISSUED:          0 USEFUL:          0 USELESS:          0
LLC AVERAGE MISS LATENCY: 803.7 cycles
cpu0_DTLB TOTAL        ACCESS:   16098075 HIT:   15984166 MISS:     113909
cpu0_DTLB LOAD         ACCESS:   16098075 HIT:   15984166 MISS:     113909
cpu0_DTLB RFO          ACCESS:          0 HIT:          0 MISS:          0
cpu0_DTLB PREFETCH     ACCESS:          0 HIT:          0 MISS:          0
cpu0_DTLB WRITE        ACCESS:          0 HIT:          0 MISS:          0
cpu0_DTLB TRANSLATION  ACCESS:          0 HIT:          0 MISS:          0
cpu0_DTLB PREFETCH REQUESTED:          0 ISSUED:          0 USEFUL:          0 USELESS:          0
cpu0_DTLB AVERAGE MISS LATENCY: 29.47 cycles
cpu0_ITLB TOTAL        ACCESS:       1842 HIT:       1671 MISS:        171
cpu0_ITLB LOAD         ACCESS:       1842 HIT:       1671 MISS:        171
cpu0_ITLB RFO          ACCESS:          0 HIT:          0 MISS:          0
cpu0_ITLB PREFETCH     ACCESS:          0 HIT:          0 MISS:          0
cpu0_ITLB WRITE        ACCESS:          0 HIT:          0 MISS:          0
cpu0_ITLB TRANSLATION  ACCESS:          0 HIT:          0 MISS:          0
cpu0_ITLB PREFETCH REQUESTED:          0 ISSUED:          0 USEFUL:          0 USELESS:          0
cpu0_ITLB AVERAGE MISS LATENCY: 143.4 cycles
cpu0_STLB TOTAL        ACCESS:      77624 HIT:      34619 MISS:      43005
cpu0_STLB LOAD         ACCESS:      77624 HIT:      34619 MISS:      43005
cpu0_STLB RFO          ACCESS:          0 HIT:          0 MISS:          0
cpu0_STLB PREFETCH     ACCESS:          0 HIT:          0 MISS:          0
cpu0_STLB WRITE        ACCESS:          0 HIT:          0 MISS:          0
cpu0_STLB TRANSLATION  ACCESS:          0 HIT:          0 MISS:          0
cpu0_STLB PREFETCH REQUESTED:          0 ISSUED:          0 USEFUL:          0 USELESS:          0
cpu0_STLB AVERAGE MISS LATENCY: 80.98 cycles

DRAM Statistics

Channel 0 RQ ROW_BUFFER_HIT:     611059
  ROW_BUFFER_MISS:    2162245
 AVG DBUS CONGESTED CYCLE: 3.978
WQ ROW_BUFFER_HIT: Channel 0 
  ROW_BUFFER_MISS:      29021
  FULL:    2084015
