WARNING: physical memory size is smaller than virtual memory size.

*** ChampSim Multicore Out-of-Order Simulator ***
Warmup Instructions: 25000000
Simulation Instructions: 100000000
Number of CPUs: 1
Page size: 4096

[L1D] Demand IPV: 1 2 2 1 4 Prefetch IPV: 1 2 1 1 4
[L1I] Demand IPV: 1 2 2 1 4 Prefetch IPV: 1 2 1 1 4
[L2C] Demand IPV: 1 2 2 1 4 Prefetch IPV: 1 2 1 1 4
[LLC] Demand IPV: 1 2 2 1 4 Prefetch IPV: 1 2 1 1 4
Off-chip DRAM Size: 4 GiB Channels: 1 Width: 64-bit Data Race: 3200 MT/s
Heartbeat CPU 0 instructions: 10000001 cycles: 2724265 heartbeat IPC: 3.671 cumulative IPC: 3.671 (Simulation time: 00 hr 00 min 22 sec)
Heartbeat CPU 0 instructions: 20000001 cycles: 5379014 heartbeat IPC: 3.767 cumulative IPC: 3.718 (Simulation time: 00 hr 00 min 44 sec)
Warmup finished CPU 0 instructions: 25000002 cycles: 6728814 cumulative IPC: 3.715 (Simulation time: 00 hr 00 min 55 sec)
Warmup complete CPU 0 instructions: 25000002 cycles: 6728814 cumulative IPC: 3.715 (Simulation time: 00 hr 00 min 55 sec)
Heartbeat CPU 0 instructions: 30000004 cycles: 25863117 heartbeat IPC: 0.4882 cumulative IPC: 0.2613 (Simulation time: 00 hr 02 min 07 sec)
*** Reached end of trace: (0, "../traces/public_traces/compute_fp/compute_fp_7.champsimtrace.xz")
Heartbeat CPU 0 instructions: 40000000 cycles: 67261814 heartbeat IPC: 0.2416 cumulative IPC: 0.2478 (Simulation time: 00 hr 04 min 41 sec)
Heartbeat CPU 0 instructions: 50000001 cycles: 92037006 heartbeat IPC: 0.4036 cumulative IPC: 0.2931 (Simulation time: 00 hr 06 min 21 sec)
Heartbeat CPU 0 instructions: 60000004 cycles: 125160048 heartbeat IPC: 0.3019 cumulative IPC: 0.2955 (Simulation time: 00 hr 08 min 25 sec)
*** Reached end of trace: (0, "../traces/public_traces/compute_fp/compute_fp_7.champsimtrace.xz")
[cpu0_PTW_MSHR] entry:   0 address: 0xa0c000 v_addr: 0x8d16000 translation_level: 0 event_cycle: 18446744073709551615

DEADLOCK! CPU 0 cycle 159881524
cpu0_IFETCH empty

cpu0_DECODE empty

cpu0_DISPATCH empty

[cpu0_ROB] entry:   0 instr_id: 68087348 fetched: 2 scheduled: 2 executed: 1 num_reg_dependent: 0 num_mem_ops: 1 event: 159878261
[cpu0_ROB] entry:   1 instr_id: 68087349 fetched: 2 scheduled: 2 executed: 2 num_reg_dependent: 0 num_mem_ops: 0 event: 159878263
[cpu0_ROB] entry:   2 instr_id: 68087350 fetched: 2 scheduled: 2 executed: 2 num_reg_dependent: 0 num_mem_ops: 0 event: 159878017
[cpu0_ROB] entry:   3 instr_id: 68087351 fetched: 2 scheduled: 2 executed: 2 num_reg_dependent: 0 num_mem_ops: 0 event: 159878260
[cpu0_ROB] entry:   4 instr_id: 68087352 fetched: 2 scheduled: 2 executed: 2 num_reg_dependent: 0 num_mem_ops: 0 event: 159878029
[cpu0_ROB] entry:   5 instr_id: 68087353 fetched: 2 scheduled: 2 executed: 2 num_reg_dependent: 0 num_mem_ops: 0 event: 159878018
[cpu0_ROB] entry:   6 instr_id: 68087354 fetched: 2 scheduled: 2 executed: 0 num_reg_dependent: 1 num_mem_ops: 0 event: 159878017
[cpu0_ROB] entry:   7 instr_id: 68087355 fetched: 2 scheduled: 2 executed: 0 num_reg_dependent: 1 num_mem_ops: 0 event: 159878018
[cpu0_ROB] entry:   8 instr_id: 68087356 fetched: 2 scheduled: 2 executed: 2 num_reg_dependent: 0 num_mem_ops: 0 event: 159878019
[cpu0_ROB] entry:   9 instr_id: 68087357 fetched: 2 scheduled: 2 executed: 0 num_reg_dependent: 1 num_mem_ops: 0 event: 159878018
[cpu0_ROB] entry:  10 instr_id: 68087358 fetched: 2 scheduled: 2 executed: 2 num_reg_dependent: 0 num_mem_ops: 0 event: 159878027
[cpu0_ROB] entry:  11 instr_id: 68087359 fetched: 2 scheduled: 2 executed: 2 num_reg_dependent: 0 num_mem_ops: 0 event: 159878213
[cpu0_ROB] entry:  12 instr_id: 68087360 fetched: 2 scheduled: 2 executed: 2 num_reg_dependent: 0 num_mem_ops: 0 event: 159878261
[cpu0_ROB] entry:  13 instr_id: 68087361 fetched: 2 scheduled: 2 executed: 2 num_reg_dependent: 0 num_mem_ops: 0 event: 159878263
[cpu0_ROB] entry:  14 instr_id: 68087362 fetched: 2 scheduled: 2 executed: 2 num_reg_dependent: 0 num_mem_ops: 0 event: 159878030
[cpu0_ROB] entry:  15 instr_id: 68087363 fetched: 2 scheduled: 2 executed: 2 num_reg_dependent: 0 num_mem_ops: 0 event: 159878201
[cpu0_ROB] entry:  16 instr_id: 68087364 fetched: 2 scheduled: 2 executed: 2 num_reg_dependent: 0 num_mem_ops: 0 event: 159878214
[cpu0_ROB] entry:  17 instr_id: 68087365 fetched: 2 scheduled: 2 executed: 2 num_reg_dependent: 0 num_mem_ops: 0 event: 159878264
[cpu0_ROB] entry:  18 instr_id: 68087366 fetched: 2 scheduled: 2 executed: 2 num_reg_dependent: 0 num_mem_ops: 0 event: 159878214
[cpu0_ROB] entry:  19 instr_id: 68087367 fetched: 2 scheduled: 2 executed: 2 num_reg_dependent: 0 num_mem_ops: 0 event: 159878265
[cpu0_ROB] entry:  20 instr_id: 68087368 fetched: 2 scheduled: 2 executed: 2 num_reg_dependent: 0 num_mem_ops: 0 event: 159878028
[cpu0_ROB] entry:  21 instr_id: 68087369 fetched: 2 scheduled: 2 executed: 2 num_reg_dependent: 0 num_mem_ops: 0 event: 159878028
[cpu0_ROB] entry:  22 instr_id: 68087370 fetched: 2 scheduled: 2 executed: 2 num_reg_dependent: 0 num_mem_ops: 0 event: 159878214
[cpu0_ROB] entry:  23 instr_id: 68087371 fetched: 2 scheduled: 2 executed: 2 num_reg_dependent: 0 num_mem_ops: 0 event: 159878029
[cpu0_ROB] entry:  24 instr_id: 68087372 fetched: 2 scheduled: 2 executed: 2 num_reg_dependent: 0 num_mem_ops: 0 event: 159878215
[cpu0_ROB] entry:  25 instr_id: 68087373 fetched: 2 scheduled: 2 executed: 1 num_reg_dependent: 0 num_mem_ops: 1 event: 159878029
[cpu0_ROB] entry:  26 instr_id: 68087374 fetched: 2 scheduled: 2 executed: 2 num_reg_dependent: 0 num_mem_ops: 0 event: 159878030
[cpu0_ROB] entry:  27 instr_id: 68087375 fetched: 2 scheduled: 2 executed: 2 num_reg_dependent: 0 num_mem_ops: 0 event: 159878030
[cpu0_ROB] entry:  28 instr_id: 68087376 fetched: 2 scheduled: 2 executed: 0 num_reg_dependent: 1 num_mem_ops: 0 event: 159878024
[cpu0_ROB] entry:  29 instr_id: 68087377 fetched: 2 scheduled: 2 executed: 1 num_reg_dependent: 0 num_mem_ops: 1 event: 159878031
[cpu0_ROB] entry:  30 instr_id: 68087378 fetched: 2 scheduled: 2 executed: 2 num_reg_dependent: 0 num_mem_ops: 0 event: 159878031
[cpu0_ROB] entry:  31 instr_id: 68087379 fetched: 2 scheduled: 2 executed: 0 num_reg_dependent: 1 num_mem_ops: 0 event: 159878024
[cpu0_ROB] entry:  32 instr_id: 68087380 fetched: 2 scheduled: 2 executed: 0 num_reg_dependent: 1 num_mem_ops: 0 event: 159878025
[cpu0_ROB] entry:  33 instr_id: 68087381 fetched: 2 scheduled: 2 executed: 1 num_reg_dependent: 0 num_mem_ops: 1 event: 159878032
[cpu0_ROB] entry:  34 instr_id: 68087382 fetched: 2 scheduled: 2 executed: 0 num_reg_dependent: 1 num_mem_ops: 1 event: 159878025
[cpu0_ROB] entry:  35 instr_id: 68087383 fetched: 2 scheduled: 2 executed: 0 num_reg_dependent: 2 num_mem_ops: 0 event: 159878025
[cpu0_ROB] entry:  36 instr_id: 68087384 fetched: 2 scheduled: 2 executed: 0 num_reg_dependent: 1 num_mem_ops: 1 event: 159878026
[cpu0_ROB] entry:  37 instr_id: 68087385 fetched: 2 scheduled: 2 executed: 1 num_reg_dependent: 0 num_mem_ops: 1 event: 159878031
[cpu0_ROB] entry:  38 instr_id: 68087386 fetched: 2 scheduled: 2 executed: 0 num_reg_dependent: 1 num_mem_ops: 0 event: 159878026
[cpu0_ROB] entry:  39 instr_id: 68087387 fetched: 2 scheduled: 2 executed: 0 num_reg_dependent: 1 num_mem_ops: 0 event: 159878026
[cpu0_ROB] entry:  40 instr_id: 68087388 fetched: 2 scheduled: 2 executed: 0 num_reg_dependent: 2 num_mem_ops: 0 event: 159878027
[cpu0_ROB] entry:  41 instr_id: 68087389 fetched: 2 scheduled: 2 executed: 0 num_reg_dependent: 1 num_mem_ops: 0 event: 159878027
[cpu0_ROB] entry:  42 instr_id: 68087390 fetched: 2 scheduled: 2 executed: 0 num_reg_dependent: 1 num_mem_ops: 0 event: 159878027
[cpu0_ROB] entry:  43 instr_id: 68087391 fetched: 2 scheduled: 2 executed: 2 num_reg_dependent: 0 num_mem_ops: 0 event: 159878032
[cpu0_ROB] entry:  44 instr_id: 68087392 fetched: 2 scheduled: 2 executed: 0 num_reg_dependent: 1 num_mem_ops: 1 event: 159878028
[cpu0_ROB] entry:  45 instr_id: 68087393 fetched: 2 scheduled: 2 executed: 0 num_reg_dependent: 1 num_mem_ops: 0 event: 159878028
[cpu0_ROB] entry:  46 instr_id: 68087394 fetched: 2 scheduled: 2 executed: 0 num_reg_dependent: 1 num_mem_ops: 0 event: 159878028
[cpu0_ROB] entry:  47 instr_id: 68087395 fetched: 2 scheduled: 2 executed: 0 num_reg_dependent: 2 num_mem_ops: 0 event: 159878028
[cpu0_ROB] entry:  48 instr_id: 68087396 fetched: 2 scheduled: 2 executed: 0 num_reg_dependent: 1 num_mem_ops: 1 event: 159878029
[cpu0_ROB] entry:  49 instr_id: 68087397 fetched: 2 scheduled: 2 executed: 2 num_reg_dependent: 0 num_mem_ops: 0 event: 159878032
[cpu0_ROB] entry:  50 instr_id: 68087398 fetched: 2 scheduled: 2 executed: 0 num_reg_dependent: 1 num_mem_ops: 0 event: 159878029
[cpu0_ROB] entry:  51 instr_id: 68087399 fetched: 2 scheduled: 2 executed: 0 num_reg_dependent: 1 num_mem_ops: 1 event: 159878029
[cpu0_ROB] entry:  52 instr_id: 68087400 fetched: 2 scheduled: 2 executed: 0 num_reg_dependent: 1 num_mem_ops: 0 event: 159878030
[cpu0_ROB] entry:  53 instr_id: 68087401 fetched: 2 scheduled: 2 executed: 0 num_reg_dependent: 1 num_mem_ops: 1 event: 159878030
[cpu0_ROB] entry:  54 instr_id: 68087402 fetched: 2 scheduled: 2 executed: 0 num_reg_dependent: 2 num_mem_ops: 0 event: 159878030
[cpu0_ROB] entry:  55 instr_id: 68087403 fetched: 2 scheduled: 2 executed: 2 num_reg_dependent: 0 num_mem_ops: 0 event: 159878032
[cpu0_ROB] entry:  56 instr_id: 68087404 fetched: 2 scheduled: 2 executed: 0 num_reg_dependent: 1 num_mem_ops: 0 event: 159878031
[cpu0_ROB] entry:  57 instr_id: 68087405 fetched: 2 scheduled: 2 executed: 2 num_reg_dependent: 0 num_mem_ops: 0 event: 159878033
[cpu0_ROB] entry:  58 instr_id: 68087406 fetched: 2 scheduled: 2 executed: 2 num_reg_dependent: 0 num_mem_ops: 0 event: 159878033
[cpu0_ROB] entry:  59 instr_id: 68087407 fetched: 2 scheduled: 2 executed: 0 num_reg_dependent: 2 num_mem_ops: 0 event: 159878031
[cpu0_ROB] entry:  60 instr_id: 68087408 fetched: 2 scheduled: 2 executed: 0 num_reg_dependent: 1 num_mem_ops: 0 event: 159878032
[cpu0_ROB] entry:  61 instr_id: 68087409 fetched: 2 scheduled: 2 executed: 2 num_reg_dependent: 0 num_mem_ops: 0 event: 159878033
[cpu0_ROB] entry:  62 instr_id: 68087410 fetched: 2 scheduled: 2 executed: 0 num_reg_dependent: 2 num_mem_ops: 0 event: 159878032
[cpu0_ROB] entry:  63 instr_id: 68087411 fetched: 2 scheduled: 2 executed: 2 num_reg_dependent: 0 num_mem_ops: 0 event: 159878033
[cpu0_ROB] entry:  64 instr_id: 68087412 fetched: 2 scheduled: 2 executed: 0 num_reg_dependent: 1 num_mem_ops: 0 event: 159878033
[cpu0_ROB] entry:  65 instr_id: 68087413 fetched: 2 scheduled: 2 executed: 0 num_reg_dependent: 1 num_mem_ops: 0 event: 159878033
[cpu0_ROB] entry:  66 instr_id: 68087414 fetched: 2 scheduled: 2 executed: 0 num_reg_dependent: 2 num_mem_ops: 0 event: 159878033
[cpu0_ROB] entry:  67 instr_id: 68087415 fetched: 2 scheduled: 2 executed: 2 num_reg_dependent: 0 num_mem_ops: 0 event: 159878034
[cpu0_ROB] entry:  68 instr_id: 68087416 fetched: 2 scheduled: 2 executed: 0 num_reg_dependent: 1 num_mem_ops: 0 event: 159878034
[cpu0_ROB] entry:  69 instr_id: 68087417 fetched: 2 scheduled: 2 executed: 0 num_reg_dependent: 1 num_mem_ops: 0 event: 159878034
[cpu0_ROB] entry:  70 instr_id: 68087418 fetched: 2 scheduled: 2 executed: 0 num_reg_dependent: 2 num_mem_ops: 0 event: 159878034
[cpu0_ROB] entry:  71 instr_id: 68087419 fetched: 2 scheduled: 2 executed: 0 num_reg_dependent: 1 num_mem_ops: 1 event: 159878034
[cpu0_ROB] entry:  72 instr_id: 68087420 fetched: 2 scheduled: 2 executed: 0 num_reg_dependent: 1 num_mem_ops: 0 event: 159878035
[cpu0_ROB] entry:  73 instr_id: 68087421 fetched: 2 scheduled: 2 executed: 0 num_reg_dependent: 1 num_mem_ops: 0 event: 159878035
[cpu0_ROB] entry:  74 instr_id: 68087422 fetched: 2 scheduled: 2 executed: 0 num_reg_dependent: 2 num_mem_ops: 0 event: 159878035
[cpu0_ROB] entry:  75 instr_id: 68087423 fetched: 2 scheduled: 2 executed: 0 num_reg_dependent: 1 num_mem_ops: 1 event: 159878036
[cpu0_ROB] entry:  76 instr_id: 68087424 fetched: 2 scheduled: 2 executed: 2 num_reg_dependent: 0 num_mem_ops: 0 event: 159878037
[cpu0_ROB] entry:  77 instr_id: 68087425 fetched: 2 scheduled: 2 executed: 0 num_reg_dependent: 1 num_mem_ops: 0 event: 159878036
[cpu0_ROB] entry:  78 instr_id: 68087426 fetched: 2 scheduled: 2 executed: 0 num_reg_dependent: 1 num_mem_ops: 1 event: 159878037
[cpu0_ROB] entry:  79 instr_id: 68087427 fetched: 2 scheduled: 2 executed: 0 num_reg_dependent: 1 num_mem_ops: 0 event: 159878081
[cpu0_ROB] entry:  80 instr_id: 68087428 fetched: 2 scheduled: 2 executed: 0 num_reg_dependent: 1 num_mem_ops: 1 event: 159878081
[cpu0_ROB] entry:  81 instr_id: 68087429 fetched: 2 scheduled: 2 executed: 0 num_reg_dependent: 2 num_mem_ops: 0 event: 159878081
[cpu0_ROB] entry:  82 instr_id: 68087430 fetched: 2 scheduled: 2 executed: 2 num_reg_dependent: 0 num_mem_ops: 0 event: 159878083
[cpu0_ROB] entry:  83 instr_id: 68087431 fetched: 2 scheduled: 2 executed: 0 num_reg_dependent: 1 num_mem_ops: 0 event: 159878082
[cpu0_ROB] entry:  84 instr_id: 68087432 fetched: 2 scheduled: 2 executed: 2 num_reg_dependent: 0 num_mem_ops: 0 event: 159878083
[cpu0_ROB] entry:  85 instr_id: 68087433 fetched: 2 scheduled: 2 executed: 2 num_reg_dependent: 0 num_mem_ops: 0 event: 159878084
[cpu0_ROB] entry:  86 instr_id: 68087434 fetched: 2 scheduled: 2 executed: 0 num_reg_dependent: 2 num_mem_ops: 0 event: 159878083
[cpu0_ROB] entry:  87 instr_id: 68087435 fetched: 2 scheduled: 2 executed: 0 num_reg_dependent: 1 num_mem_ops: 0 event: 159878083
[cpu0_ROB] entry:  88 instr_id: 68087436 fetched: 2 scheduled: 2 executed: 2 num_reg_dependent: 0 num_mem_ops: 0 event: 159878085
[cpu0_ROB] entry:  89 instr_id: 68087437 fetched: 2 scheduled: 2 executed: 0 num_reg_dependent: 2 num_mem_ops: 0 event: 159878083
[cpu0_ROB] entry:  90 instr_id: 68087438 fetched: 2 scheduled: 2 executed: 2 num_reg_dependent: 0 num_mem_ops: 0 event: 159878085
[cpu0_ROB] entry:  91 instr_id: 68087439 fetched: 2 scheduled: 2 executed: 0 num_reg_dependent: 1 num_mem_ops: 0 event: 159878084
[cpu0_ROB] entry:  92 instr_id: 68087440 fetched: 2 scheduled: 2 executed: 0 num_reg_dependent: 1 num_mem_ops: 0 event: 159878084
[cpu0_ROB] entry:  93 instr_id: 68087441 fetched: 2 scheduled: 2 executed: 0 num_reg_dependent: 2 num_mem_ops: 0 event: 159878084
[cpu0_ROB] entry:  94 instr_id: 68087442 fetched: 2 scheduled: 2 executed: 0 num_reg_dependent: 1 num_mem_ops: 0 event: 159878085
[cpu0_ROB] entry:  95 instr_id: 68087443 fetched: 2 scheduled: 2 executed: 0 num_reg_dependent: 1 num_mem_ops: 0 event: 159878085
[cpu0_ROB] entry:  96 instr_id: 68087444 fetched: 2 scheduled: 2 executed: 0 num_reg_dependent: 1 num_mem_ops: 0 event: 159878138
[cpu0_ROB] entry:  97 instr_id: 68087445 fetched: 2 scheduled: 2 executed: 0 num_reg_dependent: 2 num_mem_ops: 0 event: 159878138
[cpu0_ROB] entry:  98 instr_id: 68087446 fetched: 2 scheduled: 2 executed: 0 num_reg_dependent: 1 num_mem_ops: 0 event: 159878138
[cpu0_ROB] entry:  99 instr_id: 68087447 fetched: 2 scheduled: 2 executed: 0 num_reg_dependent: 2 num_mem_ops: 0 event: 159878138
[cpu0_ROB] entry: 100 instr_id: 68087448 fetched: 2 scheduled: 2 executed: 1 num_reg_dependent: 0 num_mem_ops: 1 event: 159878143
[cpu0_ROB] entry: 101 instr_id: 68087449 fetched: 2 scheduled: 2 executed: 2 num_reg_dependent: 0 num_mem_ops: 0 event: 159878144
[cpu0_ROB] entry: 102 instr_id: 68087450 fetched: 2 scheduled: 2 executed: 0 num_reg_dependent: 2 num_mem_ops: 0 event: 159878139
[cpu0_ROB] entry: 103 instr_id: 68087451 fetched: 2 scheduled: 2 executed: 1 num_reg_dependent: 0 num_mem_ops: 1 event: 159878144
[cpu0_ROB] entry: 104 instr_id: 68087452 fetched: 2 scheduled: 2 executed: 0 num_reg_dependent: 2 num_mem_ops: 0 event: 159878140
[cpu0_ROB] entry: 105 instr_id: 68087453 fetched: 2 scheduled: 2 executed: 1 num_reg_dependent: 0 num_mem_ops: 1 event: 159878144
[cpu0_ROB] entry: 106 instr_id: 68087454 fetched: 2 scheduled: 2 executed: 2 num_reg_dependent: 0 num_mem_ops: 0 event: 159878145
[cpu0_ROB] entry: 107 instr_id: 68087455 fetched: 2 scheduled: 2 executed: 2 num_reg_dependent: 0 num_mem_ops: 0 event: 159878145
[cpu0_ROB] entry: 108 instr_id: 68087456 fetched: 2 scheduled: 2 executed: 0 num_reg_dependent: 2 num_mem_ops: 0 event: 159878141
[cpu0_ROB] entry: 109 instr_id: 68087457 fetched: 2 scheduled: 2 executed: 1 num_reg_dependent: 0 num_mem_ops: 1 event: 159878145
[cpu0_ROB] entry: 110 instr_id: 68087458 fetched: 2 scheduled: 2 executed: 2 num_reg_dependent: 0 num_mem_ops: 0 event: 159878146
[cpu0_ROB] entry: 111 instr_id: 68087459 fetched: 2 scheduled: 2 executed: 0 num_reg_dependent: 1 num_mem_ops: 0 event: 159878141
[cpu0_ROB] entry: 112 instr_id: 68087460 fetched: 2 scheduled: 2 executed: 0 num_reg_dependent: 1 num_mem_ops: 0 event: 159878142
[cpu0_ROB] entry: 113 instr_id: 68087461 fetched: 2 scheduled: 2 executed: 1 num_reg_dependent: 0 num_mem_ops: 1 event: 159878147
[cpu0_ROB] entry: 114 instr_id: 68087462 fetched: 2 scheduled: 2 executed: 0 num_reg_dependent: 1 num_mem_ops: 1 event: 159878142
[cpu0_ROB] entry: 115 instr_id: 68087463 fetched: 2 scheduled: 2 executed: 0 num_reg_dependent: 2 num_mem_ops: 0 event: 159878142
[cpu0_ROB] entry: 116 instr_id: 68087464 fetched: 2 scheduled: 2 executed: 0 num_reg_dependent: 1 num_mem_ops: 1 event: 159878143
[cpu0_ROB] entry: 117 instr_id: 68087465 fetched: 2 scheduled: 2 executed: 1 num_reg_dependent: 0 num_mem_ops: 1 event: 159878146
[cpu0_ROB] entry: 118 instr_id: 68087466 fetched: 2 scheduled: 2 executed: 0 num_reg_dependent: 1 num_mem_ops: 0 event: 159878143
[cpu0_ROB] entry: 119 instr_id: 68087467 fetched: 2 scheduled: 2 executed: 0 num_reg_dependent: 2 num_mem_ops: 0 event: 159878143
[cpu0_ROB] entry: 120 instr_id: 68087468 fetched: 2 scheduled: 2 executed: 0 num_reg_dependent: 2 num_mem_ops: 0 event: 159878144
[cpu0_ROB] entry: 121 instr_id: 68087469 fetched: 2 scheduled: 2 executed: 0 num_reg_dependent: 1 num_mem_ops: 0 event: 159878144
[cpu0_ROB] entry: 122 instr_id: 68087470 fetched: 2 scheduled: 2 executed: 0 num_reg_dependent: 1 num_mem_ops: 0 event: 159878144
[cpu0_ROB] entry: 123 instr_id: 68087471 fetched: 2 scheduled: 2 executed: 2 num_reg_dependent: 0 num_mem_ops: 0 event: 159878146
[cpu0_ROB] entry: 124 instr_id: 68087472 fetched: 2 scheduled: 2 executed: 0 num_reg_dependent: 1 num_mem_ops: 1 event: 159878145
[cpu0_ROB] entry: 125 instr_id: 68087473 fetched: 2 scheduled: 2 executed: 0 num_reg_dependent: 1 num_mem_ops: 0 event: 159878145
[cpu0_ROB] entry: 126 instr_id: 68087474 fetched: 2 scheduled: 2 executed: 0 num_reg_dependent: 1 num_mem_ops: 0 event: 159878145
[cpu0_ROB] entry: 127 instr_id: 68087475 fetched: 2 scheduled: 2 executed: 0 num_reg_dependent: 2 num_mem_ops: 0 event: 159878145
[cpu0_ROB] entry: 128 instr_id: 68087476 fetched: 2 scheduled: 2 executed: 0 num_reg_dependent: 1 num_mem_ops: 1 event: 159878146
[cpu0_ROB] entry: 129 instr_id: 68087477 fetched: 2 scheduled: 2 executed: 1 num_reg_dependent: 0 num_mem_ops: 1 event: 159878147
[cpu0_ROB] entry: 130 instr_id: 68087478 fetched: 2 scheduled: 2 executed: 0 num_reg_dependent: 1 num_mem_ops: 0 event: 159878146
[cpu0_ROB] entry: 131 instr_id: 68087479 fetched: 2 scheduled: 2 executed: 0 num_reg_dependent: 2 num_mem_ops: 1 event: 159878146
[cpu0_ROB] entry: 132 instr_id: 68087480 fetched: 2 scheduled: 2 executed: 0 num_reg_dependent: 1 num_mem_ops: 0 event: 159878147
[cpu0_ROB] entry: 133 instr_id: 68087481 fetched: 2 scheduled: 2 executed: 0 num_reg_dependent: 1 num_mem_ops: 1 event: 159878147
[cpu0_ROB] entry: 134 instr_id: 68087482 fetched: 2 scheduled: 2 executed: 0 num_reg_dependent: 3 num_mem_ops: 0 event: 159878147
[cpu0_ROB] entry: 135 instr_id: 68087483 fetched: 2 scheduled: 2 executed: 1 num_reg_dependent: 0 num_mem_ops: 1 event: 159878149
[cpu0_ROB] entry: 136 instr_id: 68087484 fetched: 2 scheduled: 2 executed: 0 num_reg_dependent: 3 num_mem_ops: 0 event: 159878149
[cpu0_ROB] entry: 137 instr_id: 68087485 fetched: 2 scheduled: 2 executed: 0 num_reg_dependent: 1 num_mem_ops: 0 event: 159878199
[cpu0_ROB] entry: 138 instr_id: 68087486 fetched: 2 scheduled: 2 executed: 1 num_reg_dependent: 0 num_mem_ops: 1 event: 159878200
[cpu0_ROB] entry: 139 instr_id: 68087487 fetched: 2 scheduled: 2 executed: 0 num_reg_dependent: 2 num_mem_ops: 0 event: 159878199
[cpu0_ROB] entry: 140 instr_id: 68087488 fetched: 2 scheduled: 2 executed: 0 num_reg_dependent: 2 num_mem_ops: 0 event: 159878200
[cpu0_ROB] entry: 141 instr_id: 68087489 fetched: 2 scheduled: 2 executed: 1 num_reg_dependent: 0 num_mem_ops: 1 event: 159878201
[cpu0_ROB] entry: 142 instr_id: 68087490 fetched: 2 scheduled: 2 executed: 0 num_reg_dependent: 3 num_mem_ops: 0 event: 159878200
[cpu0_ROB] entry: 143 instr_id: 68087491 fetched: 2 scheduled: 2 executed: 1 num_reg_dependent: 0 num_mem_ops: 1 event: 159878202
[cpu0_ROB] entry: 144 instr_id: 68087492 fetched: 2 scheduled: 2 executed: 0 num_reg_dependent: 1 num_mem_ops: 0 event: 159878201
[cpu0_ROB] entry: 145 instr_id: 68087493 fetched: 2 scheduled: 2 executed: 0 num_reg_dependent: 2 num_mem_ops: 0 event: 159878201
[cpu0_ROB] entry: 146 instr_id: 68087494 fetched: 2 scheduled: 2 executed: 0 num_reg_dependent: 2 num_mem_ops: 0 event: 159878201
[cpu0_ROB] entry: 147 instr_id: 68087495 fetched: 2 scheduled: 2 executed: 0 num_reg_dependent: 1 num_mem_ops: 0 event: 159878201
[cpu0_ROB] entry: 148 instr_id: 68087496 fetched: 2 scheduled: 2 executed: 0 num_reg_dependent: 1 num_mem_ops: 0 event: 159878202
[cpu0_ROB] entry: 149 instr_id: 68087497 fetched: 2 scheduled: 2 executed: 0 num_reg_dependent: 1 num_mem_ops: 0 event: 159878209
[cpu0_ROB] entry: 150 instr_id: 68087498 fetched: 2 scheduled: 2 executed: 0 num_reg_dependent: 2 num_mem_ops: 0 event: 159878209
[cpu0_ROB] entry: 151 instr_id: 68087499 fetched: 2 scheduled: 2 executed: 0 num_reg_dependent: 1 num_mem_ops: 1 event: 159878209
[cpu0_ROB] entry: 152 instr_id: 68087500 fetched: 2 scheduled: 2 executed: 0 num_reg_dependent: 1 num_mem_ops: 0 event: 159878209
[cpu0_ROB] entry: 153 instr_id: 68087501 fetched: 2 scheduled: 2 executed: 0 num_reg_dependent: 1 num_mem_ops: 0 event: 159878210
[cpu0_ROB] entry: 154 instr_id: 68087502 fetched: 2 scheduled: 2 executed: 0 num_reg_dependent: 2 num_mem_ops: 0 event: 159878210
[cpu0_ROB] entry: 155 instr_id: 68087503 fetched: 2 scheduled: 2 executed: 0 num_reg_dependent: 1 num_mem_ops: 1 event: 159878210
[cpu0_ROB] entry: 156 instr_id: 68087504 fetched: 2 scheduled: 2 executed: 1 num_reg_dependent: 0 num_mem_ops: 1 event: 159878213
[cpu0_ROB] entry: 157 instr_id: 68087505 fetched: 2 scheduled: 2 executed: 0 num_reg_dependent: 1 num_mem_ops: 0 event: 159878211
[cpu0_ROB] entry: 158 instr_id: 68087506 fetched: 2 scheduled: 2 executed: 0 num_reg_dependent: 2 num_mem_ops: 1 event: 159878211
[cpu0_ROB] entry: 159 instr_id: 68087507 fetched: 2 scheduled: 2 executed: 0 num_reg_dependent: 1 num_mem_ops: 0 event: 159878211
[cpu0_ROB] entry: 160 instr_id: 68087508 fetched: 2 scheduled: 2 executed: 0 num_reg_dependent: 1 num_mem_ops: 1 event: 159878211
[cpu0_ROB] entry: 161 instr_id: 68087509 fetched: 2 scheduled: 2 executed: 0 num_reg_dependent: 3 num_mem_ops: 0 event: 159878212
[cpu0_ROB] entry: 162 instr_id: 68087510 fetched: 2 scheduled: 2 executed: 1 num_reg_dependent: 0 num_mem_ops: 1 event: 159878215
[cpu0_ROB] entry: 163 instr_id: 68087511 fetched: 2 scheduled: 2 executed: 0 num_reg_dependent: 3 num_mem_ops: 0 event: 159878212
[cpu0_ROB] entry: 164 instr_id: 68087512 fetched: 2 scheduled: 2 executed: 0 num_reg_dependent: 1 num_mem_ops: 0 event: 159878212
[cpu0_ROB] entry: 165 instr_id: 68087513 fetched: 2 scheduled: 2 executed: 1 num_reg_dependent: 0 num_mem_ops: 1 event: 159878215
[cpu0_ROB] entry: 166 instr_id: 68087514 fetched: 2 scheduled: 2 executed: 0 num_reg_dependent: 2 num_mem_ops: 0 event: 159878213
[cpu0_ROB] entry: 167 instr_id: 68087515 fetched: 2 scheduled: 2 executed: 0 num_reg_dependent: 2 num_mem_ops: 0 event: 159878213
[cpu0_ROB] entry: 168 instr_id: 68087516 fetched: 2 scheduled: 2 executed: 1 num_reg_dependent: 0 num_mem_ops: 1 event: 159878216
[cpu0_ROB] entry: 169 instr_id: 68087517 fetched: 2 scheduled: 2 executed: 0 num_reg_dependent: 3 num_mem_ops: 0 event: 159878214
[cpu0_ROB] entry: 170 instr_id: 68087518 fetched: 2 scheduled: 2 executed: 1 num_reg_dependent: 0 num_mem_ops: 1 event: 159878216
[cpu0_ROB] entry: 171 instr_id: 68087519 fetched: 2 scheduled: 2 executed: 0 num_reg_dependent: 1 num_mem_ops: 0 event: 159878214
[cpu0_ROB] entry: 172 instr_id: 68087520 fetched: 2 scheduled: 2 executed: 0 num_reg_dependent: 2 num_mem_ops: 0 event: 159878214
[cpu0_ROB] entry: 173 instr_id: 68087521 fetched: 2 scheduled: 2 executed: 0 num_reg_dependent: 2 num_mem_ops: 0 event: 159878215
[cpu0_ROB] entry: 174 instr_id: 68087522 fetched: 2 scheduled: 2 executed: 0 num_reg_dependent: 1 num_mem_ops: 0 event: 159878215
[cpu0_ROB] entry: 175 instr_id: 68087523 fetched: 2 scheduled: 2 executed: 0 num_reg_dependent: 1 num_mem_ops: 0 event: 159878215
[cpu0_ROB] entry: 176 instr_id: 68087524 fetched: 2 scheduled: 2 executed: 0 num_reg_dependent: 1 num_mem_ops: 0 event: 159878215
[cpu0_ROB] entry: 177 instr_id: 68087525 fetched: 2 scheduled: 2 executed: 0 num_reg_dependent: 2 num_mem_ops: 0 event: 159878216
[cpu0_ROB] entry: 178 instr_id: 68087526 fetched: 2 scheduled: 2 executed: 0 num_reg_dependent: 1 num_mem_ops: 0 event: 159878216
[cpu0_ROB] entry: 179 instr_id: 68087527 fetched: 2 scheduled: 2 executed: 0 num_reg_dependent: 2 num_mem_ops: 0 event: 159878260
[cpu0_ROB] entry: 180 instr_id: 68087528 fetched: 2 scheduled: 2 executed: 1 num_reg_dependent: 0 num_mem_ops: 1 event: 159878262
[cpu0_ROB] entry: 181 instr_id: 68087529 fetched: 2 scheduled: 2 executed: 2 num_reg_dependent: 0 num_mem_ops: 0 event: 159878262
[cpu0_ROB] entry: 182 instr_id: 68087530 fetched: 2 scheduled: 2 executed: 0 num_reg_dependent: 2 num_mem_ops: 0 event: 159878261
[cpu0_ROB] entry: 183 instr_id: 68087531 fetched: 2 scheduled: 2 executed: 1 num_reg_dependent: 0 num_mem_ops: 1 event: 159878263
[cpu0_ROB] entry: 184 instr_id: 68087532 fetched: 2 scheduled: 2 executed: 0 num_reg_dependent: 2 num_mem_ops: 0 event: 159878261
[cpu0_ROB] entry: 185 instr_id: 68087533 fetched: 2 scheduled: 2 executed: 1 num_reg_dependent: 0 num_mem_ops: 1 event: 159878263
[cpu0_ROB] entry: 186 instr_id: 68087534 fetched: 2 scheduled: 2 executed: 2 num_reg_dependent: 0 num_mem_ops: 0 event: 159878264
[cpu0_ROB] entry: 187 instr_id: 68087535 fetched: 2 scheduled: 2 executed: 2 num_reg_dependent: 0 num_mem_ops: 0 event: 159878264
[cpu0_ROB] entry: 188 instr_id: 68087536 fetched: 2 scheduled: 2 executed: 0 num_reg_dependent: 2 num_mem_ops: 0 event: 159878262
[cpu0_ROB] entry: 189 instr_id: 68087537 fetched: 2 scheduled: 2 executed: 1 num_reg_dependent: 0 num_mem_ops: 1 event: 159878264
[cpu0_ROB] entry: 190 instr_id: 68087538 fetched: 2 scheduled: 2 executed: 2 num_reg_dependent: 0 num_mem_ops: 0 event: 159878265
[cpu0_ROB] entry: 191 instr_id: 68087539 fetched: 2 scheduled: 2 executed: 0 num_reg_dependent: 1 num_mem_ops: 0 event: 159878263
[cpu0_ROB] entry: 192 instr_id: 68087540 fetched: 2 scheduled: 2 executed: 0 num_reg_dependent: 1 num_mem_ops: 0 event: 159878263
[cpu0_ROB] entry: 193 instr_id: 68087541 fetched: 2 scheduled: 2 executed: 1 num_reg_dependent: 0 num_mem_ops: 1 event: 159878266
[cpu0_ROB] entry: 194 instr_id: 68087542 fetched: 2 scheduled: 2 executed: 0 num_reg_dependent: 1 num_mem_ops: 1 event: 159878264
[cpu0_ROB] entry: 195 instr_id: 68087543 fetched: 2 scheduled: 2 executed: 0 num_reg_dependent: 2 num_mem_ops: 0 event: 159878264
[cpu0_ROB] entry: 196 instr_id: 68087544 fetched: 2 scheduled: 2 executed: 0 num_reg_dependent: 1 num_mem_ops: 1 event: 159878264
[cpu0_ROB] entry: 197 instr_id: 68087545 fetched: 2 scheduled: 2 executed: 1 num_reg_dependent: 0 num_mem_ops: 1 event: 159878265
[cpu0_ROB] entry: 198 instr_id: 68087546 fetched: 2 scheduled: 2 executed: 0 num_reg_dependent: 1 num_mem_ops: 0 event: 159878265
[cpu0_ROB] entry: 199 instr_id: 68087547 fetched: 2 scheduled: 2 executed: 0 num_reg_dependent: 2 num_mem_ops: 0 event: 159878265
[cpu0_ROB] entry: 200 instr_id: 68087548 fetched: 2 scheduled: 2 executed: 0 num_reg_dependent: 2 num_mem_ops: 0 event: 159878265
[cpu0_ROB] entry: 201 instr_id: 68087549 fetched: 2 scheduled: 2 executed: 0 num_reg_dependent: 1 num_mem_ops: 0 event: 159878266
[cpu0_ROB] entry: 202 instr_id: 68087550 fetched: 2 scheduled: 0 executed: 0 num_reg_dependent: 0 num_mem_ops: 0 event: 159878027
[cpu0_ROB] entry: 203 instr_id: 68087551 fetched: 2 scheduled: 0 executed: 0 num_reg_dependent: 0 num_mem_ops: 0 event: 159878028
[cpu0_ROB] entry: 204 instr_id: 68087552 fetched: 2 scheduled: 0 executed: 0 num_reg_dependent: 0 num_mem_ops: 1 event: 159878028
[cpu0_ROB] entry: 205 instr_id: 68087553 fetched: 2 scheduled: 0 executed: 0 num_reg_dependent: 0 num_mem_ops: 0 event: 159878028
[cpu0_ROB] entry: 206 instr_id: 68087554 fetched: 2 scheduled: 0 executed: 0 num_reg_dependent: 0 num_mem_ops: 0 event: 159878028
[cpu0_ROB] entry: 207 instr_id: 68087555 fetched: 2 scheduled: 0 executed: 0 num_reg_dependent: 0 num_mem_ops: 0 event: 159878028
[cpu0_ROB] entry: 208 instr_id: 68087556 fetched: 2 scheduled: 0 executed: 0 num_reg_dependent: 0 num_mem_ops: 1 event: 159878029
[cpu0_ROB] entry: 209 instr_id: 68087557 fetched: 2 scheduled: 0 executed: 0 num_reg_dependent: 0 num_mem_ops: 1 event: 159878029
[cpu0_ROB] entry: 210 instr_id: 68087558 fetched: 2 scheduled: 0 executed: 0 num_reg_dependent: 0 num_mem_ops: 0 event: 159878029
[cpu0_ROB] entry: 211 instr_id: 68087559 fetched: 2 scheduled: 0 executed: 0 num_reg_dependent: 0 num_mem_ops: 1 event: 159878029
[cpu0_ROB] entry: 212 instr_id: 68087560 fetched: 2 scheduled: 0 executed: 0 num_reg_dependent: 0 num_mem_ops: 0 event: 159878029
[cpu0_ROB] entry: 213 instr_id: 68087561 fetched: 2 scheduled: 0 executed: 0 num_reg_dependent: 0 num_mem_ops: 1 event: 159878030
[cpu0_ROB] entry: 214 instr_id: 68087562 fetched: 2 scheduled: 0 executed: 0 num_reg_dependent: 0 num_mem_ops: 0 event: 159878030
[cpu0_ROB] entry: 215 instr_id: 68087563 fetched: 2 scheduled: 0 executed: 0 num_reg_dependent: 0 num_mem_ops: 1 event: 159878030
[cpu0_ROB] entry: 216 instr_id: 68087564 fetched: 2 scheduled: 0 executed: 0 num_reg_dependent: 0 num_mem_ops: 0 event: 159878030
[cpu0_ROB] entry: 217 instr_id: 68087565 fetched: 2 scheduled: 0 executed: 0 num_reg_dependent: 0 num_mem_ops: 0 event: 159878030
[cpu0_ROB] entry: 218 instr_id: 68087566 fetched: 2 scheduled: 0 executed: 0 num_reg_dependent: 0 num_mem_ops: 1 event: 159878031
[cpu0_ROB] entry: 219 instr_id: 68087567 fetched: 2 scheduled: 0 executed: 0 num_reg_dependent: 0 num_mem_ops: 0 event: 159878031
[cpu0_ROB] entry: 220 instr_id: 68087568 fetched: 2 scheduled: 0 executed: 0 num_reg_dependent: 0 num_mem_ops: 0 event: 159878031
[cpu0_ROB] entry: 221 instr_id: 68087569 fetched: 2 scheduled: 0 executed: 0 num_reg_dependent: 0 num_mem_ops: 1 event: 159878031
[cpu0_ROB] entry: 222 instr_id: 68087570 fetched: 2 scheduled: 0 executed: 0 num_reg_dependent: 0 num_mem_ops: 0 event: 159878031
[cpu0_ROB] entry: 223 instr_id: 68087571 fetched: 2 scheduled: 0 executed: 0 num_reg_dependent: 0 num_mem_ops: 1 event: 159878032
[cpu0_ROB] entry: 224 instr_id: 68087572 fetched: 2 scheduled: 0 executed: 0 num_reg_dependent: 0 num_mem_ops: 0 event: 159878032
[cpu0_ROB] entry: 225 instr_id: 68087573 fetched: 2 scheduled: 0 executed: 0 num_reg_dependent: 0 num_mem_ops: 0 event: 159878032
[cpu0_ROB] entry: 226 instr_id: 68087574 fetched: 2 scheduled: 0 executed: 0 num_reg_dependent: 0 num_mem_ops: 0 event: 159878032
[cpu0_ROB] entry: 227 instr_id: 68087575 fetched: 2 scheduled: 0 executed: 0 num_reg_dependent: 0 num_mem_ops: 0 event: 159878032
[cpu0_ROB] entry: 228 instr_id: 68087576 fetched: 2 scheduled: 0 executed: 0 num_reg_dependent: 0 num_mem_ops: 0 event: 159878033
[cpu0_ROB] entry: 229 instr_id: 68087577 fetched: 2 scheduled: 0 executed: 0 num_reg_dependent: 0 num_mem_ops: 0 event: 159878033
[cpu0_ROB] entry: 230 instr_id: 68087578 fetched: 2 scheduled: 0 executed: 0 num_reg_dependent: 0 num_mem_ops: 0 event: 159878033
[cpu0_ROB] entry: 231 instr_id: 68087579 fetched: 2 scheduled: 0 executed: 0 num_reg_dependent: 0 num_mem_ops: 1 event: 159878033
[cpu0_ROB] entry: 232 instr_id: 68087580 fetched: 2 scheduled: 0 executed: 0 num_reg_dependent: 0 num_mem_ops: 0 event: 159878033
[cpu0_ROB] entry: 233 instr_id: 68087581 fetched: 2 scheduled: 0 executed: 0 num_reg_dependent: 0 num_mem_ops: 0 event: 159878034
[cpu0_ROB] entry: 234 instr_id: 68087582 fetched: 2 scheduled: 0 executed: 0 num_reg_dependent: 0 num_mem_ops: 0 event: 159878034
[cpu0_ROB] entry: 235 instr_id: 68087583 fetched: 2 scheduled: 0 executed: 0 num_reg_dependent: 0 num_mem_ops: 1 event: 159878034
[cpu0_ROB] entry: 236 instr_id: 68087584 fetched: 2 scheduled: 0 executed: 0 num_reg_dependent: 0 num_mem_ops: 1 event: 159878034
[cpu0_ROB] entry: 237 instr_id: 68087585 fetched: 2 scheduled: 0 executed: 0 num_reg_dependent: 0 num_mem_ops: 0 event: 159878034
[cpu0_ROB] entry: 238 instr_id: 68087586 fetched: 2 scheduled: 0 executed: 0 num_reg_dependent: 0 num_mem_ops: 1 event: 159878035
[cpu0_ROB] entry: 239 instr_id: 68087587 fetched: 2 scheduled: 0 executed: 0 num_reg_dependent: 0 num_mem_ops: 0 event: 159878035
[cpu0_ROB] entry: 240 instr_id: 68087588 fetched: 2 scheduled: 0 executed: 0 num_reg_dependent: 0 num_mem_ops: 1 event: 159878035
[cpu0_ROB] entry: 241 instr_id: 68087589 fetched: 2 scheduled: 0 executed: 0 num_reg_dependent: 0 num_mem_ops: 0 event: 159878035
[cpu0_ROB] entry: 242 instr_id: 68087590 fetched: 2 scheduled: 0 executed: 0 num_reg_dependent: 0 num_mem_ops: 1 event: 159878035
[cpu0_ROB] entry: 243 instr_id: 68087591 fetched: 2 scheduled: 0 executed: 0 num_reg_dependent: 0 num_mem_ops: 0 event: 159878036
[cpu0_ROB] entry: 244 instr_id: 68087592 fetched: 2 scheduled: 0 executed: 0 num_reg_dependent: 0 num_mem_ops: 0 event: 159878036
[cpu0_ROB] entry: 245 instr_id: 68087593 fetched: 2 scheduled: 0 executed: 0 num_reg_dependent: 0 num_mem_ops: 1 event: 159878036
[cpu0_ROB] entry: 246 instr_id: 68087594 fetched: 2 scheduled: 0 executed: 0 num_reg_dependent: 0 num_mem_ops: 0 event: 159878036
[cpu0_ROB] entry: 247 instr_id: 68087595 fetched: 2 scheduled: 0 executed: 0 num_reg_dependent: 0 num_mem_ops: 0 event: 159878036
[cpu0_ROB] entry: 248 instr_id: 68087596 fetched: 2 scheduled: 0 executed: 0 num_reg_dependent: 0 num_mem_ops: 1 event: 159878037
[cpu0_ROB] entry: 249 instr_id: 68087597 fetched: 2 scheduled: 0 executed: 0 num_reg_dependent: 0 num_mem_ops: 0 event: 159878037
[cpu0_ROB] entry: 250 instr_id: 68087598 fetched: 2 scheduled: 0 executed: 0 num_reg_dependent: 0 num_mem_ops: 1 event: 159878037
[cpu0_ROB] entry: 251 instr_id: 68087599 fetched: 2 scheduled: 0 executed: 0 num_reg_dependent: 0 num_mem_ops: 0 event: 159878037
[cpu0_ROB] entry: 252 instr_id: 68087600 fetched: 2 scheduled: 0 executed: 0 num_reg_dependent: 0 num_mem_ops: 0 event: 159878037
[cpu0_ROB] entry: 253 instr_id: 68087601 fetched: 2 scheduled: 0 executed: 0 num_reg_dependent: 0 num_mem_ops: 0 event: 159878038
[cpu0_ROB] entry: 254 instr_id: 68087602 fetched: 2 scheduled: 0 executed: 0 num_reg_dependent: 0 num_mem_ops: 0 event: 159878038
[cpu0_ROB] entry: 255 instr_id: 68087603 fetched: 2 scheduled: 0 executed: 0 num_reg_dependent: 0 num_mem_ops: 0 event: 159878038
[cpu0_ROB] entry: 256 instr_id: 68087604 fetched: 2 scheduled: 0 executed: 0 num_reg_dependent: 0 num_mem_ops: 0 event: 159878038
[cpu0_ROB] entry: 257 instr_id: 68087605 fetched: 2 scheduled: 0 executed: 0 num_reg_dependent: 0 num_mem_ops: 0 event: 159878038

[cpu0_LQ] entry:   0 instr_id: 68087377 address: 0xfffffffff4bc fetch_issued: true event_cycle: 159878031 waits on -
[cpu0_LQ] entry:   1 instr_id: 68087381 address: 0xf6c098 fetch_issued: true event_cycle: 159878032 waits on -
[cpu0_LQ] entry:   2 instr_id: 68087451 address: 0xfffffffff610 fetch_issued: true event_cycle: 159878144 waits on -
[cpu0_LQ] entry:   3 instr_id: 68087552 address: 0x9a23950 fetch_issued: true event_cycle: 0 waits on -
[cpu0_LQ] entry:   4 instr_id: 68087579 address: 0x9a23960 fetch_issued: true event_cycle: 0 waits on -
[cpu0_LQ] entry:   5 instr_id: 68087583 address: 0x9a23968 fetch_issued: true event_cycle: 0 waits on -
[cpu0_LQ] entry:   6 instr_id: 68087584 address: 0xfffffffff5c0 fetch_issued: true event_cycle: 0 waits on -
[cpu0_LQ] entry:   7 instr_id: 68087453 address: 0xfffffffff650 fetch_issued: true event_cycle: 159878144 waits on -
[cpu0_LQ] entry:   8 instr_id: 68087586 address: 0x8c34854 fetch_issued: true event_cycle: 0 waits on -
[cpu0_LQ] entry:   9 instr_id: 68087588 address: 0x8c80854 fetch_issued: true event_cycle: 0 waits on -
[cpu0_LQ] entry:  10 instr_id: 68087457 address: 0xfffffffff4bc fetch_issued: true event_cycle: 159878145 waits on -
[cpu0_LQ] entry:  11 instr_id: 68087461 address: 0xf6c0a0 fetch_issued: true event_cycle: 159878147 waits on -
[cpu0_LQ] entry:  12 instr_id: 68087462 address: 0x346d280 fetch_issued: true event_cycle: 0 waits on -
[cpu0_LQ] entry:  13 empty
[cpu0_LQ] entry:  14 empty
[cpu0_LQ] entry:  15 empty
[cpu0_LQ] entry:  16 instr_id: 68087392 address: 0x9a27100 fetch_issued: true event_cycle: 0 waits on -
[cpu0_LQ] entry:  17 empty
[cpu0_LQ] entry:  18 empty
[cpu0_LQ] entry:  19 empty
[cpu0_LQ] entry:  20 instr_id: 68087373 address: 0xfffffffff650 fetch_issued: true event_cycle: 159878029 waits on -
[cpu0_LQ] entry:  21 instr_id: 68087382 address: 0x346f3c0 fetch_issued: true event_cycle: 0 waits on -
[cpu0_LQ] entry:  22 instr_id: 68087348 address: 0x8c7e9c0 fetch_issued: true event_cycle: 159878261 waits on -
[cpu0_LQ] entry:  23 instr_id: 68087464 address: 0x9a23418 fetch_issued: true event_cycle: 0 waits on -
[cpu0_LQ] entry:  24 instr_id: 68087465 address: 0xfffffffff608 fetch_issued: true event_cycle: 159878146 waits on -
[cpu0_LQ] entry:  25 instr_id: 68087384 address: 0x9a270f8 fetch_issued: true event_cycle: 0 waits on -
[cpu0_LQ] entry:  26 instr_id: 68087472 address: 0x9a23420 fetch_issued: true event_cycle: 0 waits on -
[cpu0_LQ] entry:  27 instr_id: 68087476 address: 0x9a23428 fetch_issued: true event_cycle: 0 waits on -
[cpu0_LQ] entry:  28 instr_id: 68087479 address: 0x8c32adc fetch_issued: true event_cycle: 0 waits on -
[cpu0_LQ] entry:  29 instr_id: 68087477 address: 0xfffffffff5c0 fetch_issued: true event_cycle: 159878147 waits on -
[cpu0_LQ] entry:  30 instr_id: 68087396 address: 0x9a27108 fetch_issued: true event_cycle: 0 waits on -
[cpu0_LQ] entry:  31 instr_id: 68087385 address: 0xfffffffff608 fetch_issued: true event_cycle: 159878031 waits on -
[cpu0_LQ] entry:  32 instr_id: 68087481 address: 0x8c7eadc fetch_issued: true event_cycle: 0 waits on -
[cpu0_LQ] entry:  33 instr_id: 68087399 address: 0x8c373d0 fetch_issued: true event_cycle: 0 waits on -
[cpu0_LQ] entry:  34 instr_id: 68087483 address: 0xfffffffff5f8 fetch_issued: true event_cycle: 159878149 waits on -
[cpu0_LQ] entry:  35 instr_id: 68087486 address: 0xfffffffff5b0 fetch_issued: true event_cycle: 159878200 waits on -
[cpu0_LQ] entry:  36 instr_id: 68087489 address: 0xfffffffff5a8 fetch_issued: true event_cycle: 159878201 waits on -
[cpu0_LQ] entry:  37 instr_id: 68087401 address: 0x8c833d0 fetch_issued: true event_cycle: 0 waits on -
[cpu0_LQ] entry:  38 instr_id: 68087491 address: 0xfffffffff4c8 fetch_issued: true event_cycle: 159878202 waits on -
[cpu0_LQ] entry:  39 instr_id: 68087499 address: 0x9a23430 fetch_issued: true event_cycle: 0 waits on -
[cpu0_LQ] entry:  40 instr_id: 68087503 address: 0x9a23438 fetch_issued: true event_cycle: 0 waits on -
[cpu0_LQ] entry:  41 instr_id: 68087419 address: 0x9a27110 fetch_issued: true event_cycle: 0 waits on -
[cpu0_LQ] entry:  42 instr_id: 68087423 address: 0x9a27118 fetch_issued: true event_cycle: 0 waits on -
[cpu0_LQ] entry:  43 instr_id: 68087504 address: 0xfffffffff5c0 fetch_issued: true event_cycle: 159878213 waits on -
[cpu0_LQ] entry:  44 instr_id: 68087426 address: 0x8c37404 fetch_issued: true event_cycle: 0 waits on -
[cpu0_LQ] entry:  45 instr_id: 68087428 address: 0x8c83404 fetch_issued: true event_cycle: 0 waits on -
[cpu0_LQ] entry:  46 instr_id: 68087506 address: 0x8c32ae0 fetch_issued: true event_cycle: 0 waits on -
[cpu0_LQ] entry:  47 instr_id: 68087508 address: 0x8c7eae0 fetch_issued: true event_cycle: 0 waits on -
[cpu0_LQ] entry:  48 instr_id: 68087510 address: 0xfffffffff5f8 fetch_issued: true event_cycle: 159878215 waits on -
[cpu0_LQ] entry:  49 instr_id: 68087513 address: 0xfffffffff5b0 fetch_issued: true event_cycle: 159878215 waits on -
[cpu0_LQ] entry:  50 instr_id: 68087448 address: 0xfffffffff618 fetch_issued: true event_cycle: 159878143 waits on -
[cpu0_LQ] entry:  51 instr_id: 68087516 address: 0xfffffffff5a8 fetch_issued: true event_cycle: 159878216 waits on -
[cpu0_LQ] entry:  52 instr_id: 68087518 address: 0xfffffffff4c8 fetch_issued: true event_cycle: 159878216 waits on -
[cpu0_LQ] entry:  53 instr_id: 68087528 address: 0xfffffffff618 fetch_issued: true event_cycle: 159878262 waits on -
[cpu0_LQ] entry:  54 instr_id: 68087531 address: 0xfffffffff610 fetch_issued: true event_cycle: 159878263 waits on -
[cpu0_LQ] entry:  55 instr_id: 68087533 address: 0xfffffffff650 fetch_issued: true event_cycle: 159878263 waits on -
[cpu0_LQ] entry:  56 instr_id: 68087537 address: 0xfffffffff4bc fetch_issued: true event_cycle: 159878264 waits on -
[cpu0_LQ] entry:  57 instr_id: 68087541 address: 0xf6c0a8 fetch_issued: true event_cycle: 159878266 waits on -
[cpu0_LQ] entry:  58 instr_id: 68087542 address: 0x346d560 fetch_issued: true event_cycle: 0 waits on -
[cpu0_LQ] entry:  59 instr_id: 68087544 address: 0x9a23948 fetch_issued: true event_cycle: 0 waits on -
[cpu0_LQ] entry:  60 instr_id: 68087545 address: 0xfffffffff608 fetch_issued: true event_cycle: 159878265 waits on -
[cpu0_LQ] entry:  61 instr_id: 68087556 address: 0x9a23958 fetch_issued: true event_cycle: 0 waits on -
[cpu0_LQ] entry:  62 instr_id: 68087557 address: 0xfffffffff5c0 fetch_issued: true event_cycle: 0 waits on -
[cpu0_LQ] entry:  63 instr_id: 68087559 address: 0x8c34850 fetch_issued: true event_cycle: 0 waits on -
[cpu0_LQ] entry:  64 instr_id: 68087561 address: 0x8c80850 fetch_issued: true event_cycle: 0 waits on -
[cpu0_LQ] entry:  65 instr_id: 68087563 address: 0xfffffffff5f8 fetch_issued: true event_cycle: 0 waits on -
[cpu0_LQ] entry:  66 instr_id: 68087566 address: 0xfffffffff5b0 fetch_issued: true event_cycle: 0 waits on -
[cpu0_LQ] entry:  67 instr_id: 68087569 address: 0xfffffffff5a8 fetch_issued: true event_cycle: 0 waits on -
[cpu0_LQ] entry:  68 instr_id: 68087571 address: 0xfffffffff4c8 fetch_issued: true event_cycle: 0 waits on -
[cpu0_LQ] entry:  69 instr_id: 68087590 address: 0xfffffffff5f8 fetch_issued: true event_cycle: 0 waits on -
[cpu0_LQ] entry:  70 instr_id: 68087593 address: 0xfffffffff5b0 fetch_issued: true event_cycle: 0 waits on -
[cpu0_LQ] entry:  71 instr_id: 68087596 address: 0xfffffffff5a8 fetch_issued: true event_cycle: 0 waits on -
[cpu0_LQ] entry:  72 instr_id: 68087598 address: 0xfffffffff4c8 fetch_issued: true event_cycle: 0 waits on -
[cpu0_LQ] entry:  73 empty
[cpu0_LQ] entry:  74 empty
[cpu0_LQ] entry:  75 empty
[cpu0_LQ] entry:  76 empty
[cpu0_LQ] entry:  77 empty
[cpu0_LQ] entry:  78 empty
[cpu0_LQ] entry:  79 empty
[cpu0_LQ] entry:  80 empty
[cpu0_LQ] entry:  81 empty
[cpu0_LQ] entry:  82 empty
[cpu0_LQ] entry:  83 empty
[cpu0_LQ] entry:  84 empty
[cpu0_LQ] entry:  85 empty
[cpu0_LQ] entry:  86 empty
[cpu0_LQ] entry:  87 empty
[cpu0_LQ] entry:  88 empty
[cpu0_LQ] entry:  89 empty
[cpu0_LQ] entry:  90 empty
[cpu0_LQ] entry:  91 empty
[cpu0_LQ] entry:  92 empty
[cpu0_LQ] entry:  93 empty
[cpu0_LQ] entry:  94 empty
[cpu0_LQ] entry:  95 empty
[cpu0_LQ] entry:  96 empty
[cpu0_LQ] entry:  97 empty
[cpu0_LQ] entry:  98 empty
[cpu0_LQ] entry:  99 empty
[cpu0_LQ] entry: 100 empty
[cpu0_LQ] entry: 101 empty
[cpu0_LQ] entry: 102 empty
[cpu0_LQ] entry: 103 empty
[cpu0_LQ] entry: 104 empty
[cpu0_LQ] entry: 105 empty
[cpu0_LQ] entry: 106 empty
[cpu0_LQ] entry: 107 empty
[cpu0_LQ] entry: 108 empty
[cpu0_LQ] entry: 109 empty
[cpu0_LQ] entry: 110 empty
[cpu0_LQ] entry: 111 empty
[cpu0_LQ] entry: 112 empty
[cpu0_LQ] entry: 113 empty
[cpu0_LQ] entry: 114 empty
[cpu0_LQ] entry: 115 empty
[cpu0_LQ] entry: 116 empty
[cpu0_LQ] entry: 117 empty
[cpu0_LQ] entry: 118 empty
[cpu0_LQ] entry: 119 empty
[cpu0_LQ] entry: 120 empty
[cpu0_LQ] entry: 121 empty
[cpu0_LQ] entry: 122 empty
[cpu0_LQ] entry: 123 empty
[cpu0_LQ] entry: 124 empty
[cpu0_LQ] entry: 125 empty
[cpu0_LQ] entry: 126 empty
[cpu0_LQ] entry: 127 empty

[cpu0_SQ] entry:   0 instr_id: 68087349 address: 0x8c329c0 fetch_issued: true event_cycle: 159878263 LQ waiting: []
[cpu0_SQ] entry:   1 instr_id: 68087351 address: 0x3fcf4b8 fetch_issued: true event_cycle: 159878260 LQ waiting: []
[cpu0_SQ] entry:   2 instr_id: 68087355 address: 0x53b9a74 fetch_issued: true event_cycle: 159877965 LQ waiting: []
[cpu0_SQ] entry:   3 instr_id: 68087357 address: 0x5cfd4e8 fetch_issued: true event_cycle: 159877965 LQ waiting: []
[cpu0_SQ] entry:   4 instr_id: 68087370 address: 0x8cca048 fetch_issued: true event_cycle: 159878214 LQ waiting: []
[cpu0_SQ] entry:   5 instr_id: 68087372 address: 0x8ca4048 fetch_issued: true event_cycle: 159878215 LQ waiting: []
[cpu0_SQ] entry:   6 instr_id: 68087376 address: 0x8d16048 fetch_issued: true event_cycle: 159877969 LQ waiting: []
[cpu0_SQ] entry:   7 instr_id: 68087387 address: 0x8cf004c fetch_issued: true event_cycle: 159877971 LQ waiting: []
[cpu0_SQ] entry:   8 instr_id: 68087402 address: 0x8c373d0 fetch_issued: true event_cycle: 159877974 LQ waiting: []
[cpu0_SQ] entry:   9 instr_id: 68087404 address: 0x3fcf4bc fetch_issued: true event_cycle: 159877975 LQ waiting: []
[cpu0_SQ] entry:  10 instr_id: 68087404 address: 0x3fcf4c0 fetch_issued: true event_cycle: 159877975 LQ waiting: []
[cpu0_SQ] entry:  11 instr_id: 68087408 address: 0x53c2ea4 fetch_issued: true event_cycle: 159877976 LQ waiting: []
[cpu0_SQ] entry:  12 instr_id: 68087410 address: 0x5d0fd48 fetch_issued: true event_cycle: 159877976 LQ waiting: []
[cpu0_SQ] entry:  13 instr_id: 68087429 address: 0x8c37404 fetch_issued: true event_cycle: 159877980 LQ waiting: []
[cpu0_SQ] entry:  14 instr_id: 68087431 address: 0x3fcf4c0 fetch_issued: true event_cycle: 159877980 LQ waiting: []
[cpu0_SQ] entry:  15 instr_id: 68087435 address: 0x53c2f18 fetch_issued: true event_cycle: 159877981 LQ waiting: []
[cpu0_SQ] entry:  16 instr_id: 68087437 address: 0x5d0fe30 fetch_issued: true event_cycle: 159877981 LQ waiting: []
[cpu0_SQ] entry:  17 instr_id: 68087450 address: 0x8cca04c fetch_issued: true event_cycle: 159877984 LQ waiting: []
[cpu0_SQ] entry:  18 instr_id: 68087452 address: 0x8ca404c fetch_issued: true event_cycle: 159878013 LQ waiting: []
[cpu0_SQ] entry:  19 instr_id: 68087456 address: 0x8d1604c fetch_issued: true event_cycle: 159878015 LQ waiting: []
[cpu0_SQ] entry:  20 instr_id: 68087467 address: 0x8cf0050 fetch_issued: true event_cycle: 159878017 LQ waiting: []
[cpu0_SQ] entry:  21 instr_id: 68087482 address: 0x8c32adc fetch_issued: true event_cycle: 159878020 LQ waiting: []
[cpu0_SQ] entry:  22 instr_id: 68087484 address: 0x3fcf4c4 fetch_issued: true event_cycle: 159878021 LQ waiting: []
[cpu0_SQ] entry:  23 instr_id: 68087488 address: 0x53b9c00 fetch_issued: true event_cycle: 159878021 LQ waiting: []
[cpu0_SQ] entry:  24 instr_id: 68087490 address: 0x5cfd800 fetch_issued: true event_cycle: 159878022 LQ waiting: []
[cpu0_SQ] entry:  25 instr_id: 68087509 address: 0x8c32ae0 fetch_issued: true event_cycle: 159878026 LQ waiting: []
[cpu0_SQ] entry:  26 instr_id: 68087511 address: 0x3fcf4c8 fetch_issued: true event_cycle: 159878026 LQ waiting: []
[cpu0_SQ] entry:  27 instr_id: 68087515 address: 0x53b9c1c fetch_issued: true event_cycle: 159878027 LQ waiting: []
[cpu0_SQ] entry:  28 instr_id: 68087517 address: 0x5cfd838 fetch_issued: true event_cycle: 159878027 LQ waiting: []
[cpu0_SQ] entry:  29 instr_id: 68087530 address: 0x8cca050 fetch_issued: true event_cycle: 159878030 LQ waiting: []
[cpu0_SQ] entry:  30 instr_id: 68087532 address: 0x8ca4050 fetch_issued: true event_cycle: 159878030 LQ waiting: []
[cpu0_SQ] entry:  31 instr_id: 68087536 address: 0x8d16050 fetch_issued: true event_cycle: 159878031 LQ waiting: []
[cpu0_SQ] entry:  32 instr_id: 68087547 address: 0x8cf0054 fetch_issued: true event_cycle: 159878033 LQ waiting: []
[cpu0_SQ] entry:  33 instr_id: 68087562 address: 0x8c34850 fetch_issued: true event_cycle: 159878036 LQ waiting: []
[cpu0_SQ] entry:  34 instr_id: 68087564 address: 0x3fcf4cc fetch_issued: true event_cycle: 159878037 LQ waiting: []
[cpu0_SQ] entry:  35 instr_id: 68087568 address: 0x53bdf7c fetch_issued: true event_cycle: 159878037 LQ waiting: []
[cpu0_SQ] entry:  36 instr_id: 68087570 address: 0x5d05ef8 fetch_issued: true event_cycle: 159878038 LQ waiting: []
[cpu0_SQ] entry:  37 instr_id: 68087589 address: 0x8c34854 fetch_issued: true event_cycle: 159878143 LQ waiting: []
[cpu0_SQ] entry:  38 instr_id: 68087591 address: 0x3fcf4d0 fetch_issued: true event_cycle: 159878144 LQ waiting: []
[cpu0_SQ] entry:  39 instr_id: 68087595 address: 0x53bdf80 fetch_issued: true event_cycle: 159878145 LQ waiting: []
[cpu0_SQ] entry:  40 instr_id: 68087597 address: 0x5d05f00 fetch_issued: true event_cycle: 159878145 LQ waiting: []

L1D_MSHR empty

L1D_tags empty

[L1D_translation] entry:   0 instr_id: 68085856 address: 0x8d16000 v_addr: 0x8d16000 is_translated: false translate_issued: true event_cycle: 159874640
[L1D_translation] entry:   1 instr_id: 68085936 address: 0x8d16000 v_addr: 0x8d16000 is_translated: false translate_issued: true event_cycle: 159874655
[L1D_translation] entry:   2 instr_id: 68086016 address: 0x8d16004 v_addr: 0x8d16004 is_translated: false translate_issued: true event_cycle: 159874669
[L1D_translation] entry:   3 instr_id: 68086096 address: 0x8d16008 v_addr: 0x8d16008 is_translated: false translate_issued: true event_cycle: 159875364
[L1D_translation] entry:   4 instr_id: 68086176 address: 0x8d1600c v_addr: 0x8d1600c is_translated: false translate_issued: true event_cycle: 159875380
[L1D_translation] entry:   5 instr_id: 68086256 address: 0x8d16010 v_addr: 0x8d16010 is_translated: false translate_issued: true event_cycle: 159876147
[L1D_translation] entry:   6 instr_id: 68086336 address: 0x8d16014 v_addr: 0x8d16014 is_translated: false translate_issued: true event_cycle: 159876163
[L1D_translation] entry:   7 instr_id: 68086416 address: 0x8d16018 v_addr: 0x8d16018 is_translated: false translate_issued: true event_cycle: 159876180
[L1D_translation] entry:   8 instr_id: 68086496 address: 0x8d1601c v_addr: 0x8d1601c is_translated: false translate_issued: true event_cycle: 159876430
[L1D_translation] entry:   9 instr_id: 68086576 address: 0x8d16020 v_addr: 0x8d16020 is_translated: false translate_issued: true event_cycle: 159876609
[L1D_translation] entry:  10 instr_id: 68086656 address: 0x8d16024 v_addr: 0x8d16024 is_translated: false translate_issued: true event_cycle: 159876762
[L1D_translation] entry:  11 instr_id: 68086736 address: 0x8d16028 v_addr: 0x8d16028 is_translated: false translate_issued: true event_cycle: 159876982
[L1D_translation] entry:  12 instr_id: 68086816 address: 0x8d1602c v_addr: 0x8d1602c is_translated: false translate_issued: true event_cycle: 159877002
[L1D_translation] entry:  13 instr_id: 68086896 address: 0x8d16030 v_addr: 0x8d16030 is_translated: false translate_issued: true event_cycle: 159877936
[L1D_translation] entry:  14 instr_id: 68086976 address: 0x8d16034 v_addr: 0x8d16034 is_translated: false translate_issued: true event_cycle: 159877964
[L1D_translation] entry:  15 instr_id: 68087056 address: 0x8d16038 v_addr: 0x8d16038 is_translated: false translate_issued: true event_cycle: 159877981

L1D_RQ empty

L1D_WQ empty

L1D_PQ empty

[L1D_RQ] entry:   0 instr_id: 68087348 address: 0x8c7e9c0 v_addr: 0x8c7e9c0 type: LOAD translated: false
[L1D_RQ] entry:   1 instr_id: 68087368 address: 0xfffffffff618 v_addr: 0xfffffffff618 type: LOAD translated: false
[L1D_RQ] entry:   2 instr_id: 68087373 address: 0xfffffffff650 v_addr: 0xfffffffff650 type: LOAD translated: false
[L1D_RQ] entry:   3 instr_id: 68087377 address: 0xfffffffff4bc v_addr: 0xfffffffff4bc type: LOAD translated: false
[L1D_RQ] entry:   4 instr_id: 68087381 address: 0xf6c098 v_addr: 0xf6c098 type: LOAD translated: false
[L1D_RQ] entry:   5 instr_id: 68087382 address: 0x346f3c0 v_addr: 0x346f3c0 type: LOAD translated: false
[L1D_RQ] entry:   6 instr_id: 68087384 address: 0x9a270f8 v_addr: 0x9a270f8 type: LOAD translated: false
[L1D_RQ] entry:   7 instr_id: 68087392 address: 0x9a27100 v_addr: 0x9a27100 type: LOAD translated: false
[L1D_RQ] entry:   8 instr_id: 68087399 address: 0x8c373d0 v_addr: 0x8c373d0 type: LOAD translated: false
[L1D_RQ] entry:   9 instr_id: 68087401 address: 0x8c833d0 v_addr: 0x8c833d0 type: LOAD translated: false
[L1D_RQ] entry:  10 instr_id: 68087426 address: 0x8c37404 v_addr: 0x8c37404 type: LOAD translated: false
[L1D_RQ] entry:  11 instr_id: 68087428 address: 0x8c83404 v_addr: 0x8c83404 type: LOAD translated: false
[L1D_RQ] entry:  12 instr_id: 68087433 address: 0xfffffffff5b0 v_addr: 0xfffffffff5b0 type: LOAD translated: false
[L1D_RQ] entry:  13 instr_id: 68087438 address: 0xfffffffff4c8 v_addr: 0xfffffffff4c8 type: LOAD translated: false
[L1D_RQ] entry:  14 instr_id: 68087462 address: 0x346d280 v_addr: 0x346d280 type: LOAD translated: false
[L1D_RQ] entry:  15 instr_id: 68087464 address: 0x9a23418 v_addr: 0x9a23418 type: LOAD translated: false
[L1D_RQ] entry:  16 instr_id: 68087477 address: 0xfffffffff5c0 v_addr: 0xfffffffff5c0 type: LOAD translated: false
[L1D_RQ] entry:  17 instr_id: 68087479 address: 0x8c32adc v_addr: 0x8c32adc type: LOAD translated: false
[L1D_RQ] entry:  18 instr_id: 68087481 address: 0x8c7eadc v_addr: 0x8c7eadc type: LOAD translated: false
[L1D_RQ] entry:  19 instr_id: 68087542 address: 0x346d560 v_addr: 0x346d560 type: LOAD translated: false
[L1D_RQ] entry:  20 instr_id: 68087544 address: 0x9a23948 v_addr: 0x9a23948 type: LOAD translated: false
[L1D_RQ] entry:  21 instr_id: 68087559 address: 0x8c34850 v_addr: 0x8c34850 type: LOAD translated: false
[L1D_RQ] entry:  22 instr_id: 68087561 address: 0x8c80850 v_addr: 0x8c80850 type: LOAD translated: false

[L1D_WQ] entry:   0 instr_id: 68087082 address: 0x8c32acc v_addr: 0x8c32acc type: WRITE translated: false
[L1D_WQ] entry:   1 instr_id: 68087084 address: 0x3fcf49c v_addr: 0x3fcf49c type: WRITE translated: false
[L1D_WQ] entry:   2 instr_id: 68087088 address: 0x53b9be4 v_addr: 0x53b9be4 type: WRITE translated: false
[L1D_WQ] entry:   3 instr_id: 68087090 address: 0x5cfd7c8 v_addr: 0x5cfd7c8 type: WRITE translated: false
[L1D_WQ] entry:   4 instr_id: 68087109 address: 0x8c329c0 v_addr: 0x8c329c0 type: WRITE translated: false
[L1D_WQ] entry:   5 instr_id: 68087111 address: 0x3fcf4a0 v_addr: 0x3fcf4a0 type: WRITE translated: false
[L1D_WQ] entry:   6 instr_id: 68087115 address: 0x53b9a68 v_addr: 0x53b9a68 type: WRITE translated: false
[L1D_WQ] entry:   7 instr_id: 68087117 address: 0x5cfd4d0 v_addr: 0x5cfd4d0 type: WRITE translated: false
[L1D_WQ] entry:   8 instr_id: 68087130 address: 0x8cca03c v_addr: 0x8cca03c type: WRITE translated: false
[L1D_WQ] entry:   9 instr_id: 68087130 address: 0x8cca040 v_addr: 0x8cca040 type: WRITE translated: false
[L1D_WQ] entry:  10 instr_id: 68087132 address: 0x8ca403c v_addr: 0x8ca403c type: WRITE translated: false
[L1D_WQ] entry:  11 instr_id: 68087132 address: 0x8ca4040 v_addr: 0x8ca4040 type: WRITE translated: false
[L1D_WQ] entry:  12 instr_id: 68087136 address: 0x8d1603c v_addr: 0x8d1603c type: WRITE translated: false
[L1D_WQ] entry:  13 instr_id: 68087136 address: 0x8d16040 v_addr: 0x8d16040 type: WRITE translated: false
[L1D_WQ] entry:  14 instr_id: 68087147 address: 0x8cf0040 v_addr: 0x8cf0040 type: WRITE translated: false
[L1D_WQ] entry:  15 instr_id: 68087162 address: 0x8c32ad0 v_addr: 0x8c32ad0 type: WRITE translated: false
[L1D_WQ] entry:  16 instr_id: 68087164 address: 0x3fcf4a4 v_addr: 0x3fcf4a4 type: WRITE translated: false
[L1D_WQ] entry:  17 instr_id: 68087168 address: 0x53b9be8 v_addr: 0x53b9be8 type: WRITE translated: false
[L1D_WQ] entry:  18 instr_id: 68087170 address: 0x5cfd7d0 v_addr: 0x5cfd7d0 type: WRITE translated: false
[L1D_WQ] entry:  19 instr_id: 68087191 address: 0x3fcf4a8 v_addr: 0x3fcf4a8 type: WRITE translated: false
[L1D_WQ] entry:  20 instr_id: 68087195 address: 0x53b9a6c v_addr: 0x53b9a6c type: WRITE translated: false
[L1D_WQ] entry:  21 instr_id: 68087197 address: 0x5cfd4d8 v_addr: 0x5cfd4d8 type: WRITE translated: false
[L1D_WQ] entry:  22 instr_id: 68087227 address: 0x8cf0044 v_addr: 0x8cf0044 type: WRITE translated: false
[L1D_WQ] entry:  23 instr_id: 68087242 address: 0x8c32ad4 v_addr: 0x8c32ad4 type: WRITE translated: false
[L1D_WQ] entry:  24 instr_id: 68087244 address: 0x3fcf4ac v_addr: 0x3fcf4ac type: WRITE translated: false
[L1D_WQ] entry:  25 instr_id: 68087248 address: 0x53b9bf0 v_addr: 0x53b9bf0 type: WRITE translated: false
[L1D_WQ] entry:  26 instr_id: 68087250 address: 0x5cfd7e0 v_addr: 0x5cfd7e0 type: WRITE translated: false
[L1D_WQ] entry:  27 instr_id: 68087271 address: 0x3fcf4b0 v_addr: 0x3fcf4b0 type: WRITE translated: false
[L1D_WQ] entry:  28 instr_id: 68087275 address: 0x53b9a70 v_addr: 0x53b9a70 type: WRITE translated: false
[L1D_WQ] entry:  29 instr_id: 68087277 address: 0x5cfd4e0 v_addr: 0x5cfd4e0 type: WRITE translated: false
[L1D_WQ] entry:  30 instr_id: 68087290 address: 0x8cca044 v_addr: 0x8cca044 type: WRITE translated: false
[L1D_WQ] entry:  31 instr_id: 68087292 address: 0x8ca4044 v_addr: 0x8ca4044 type: WRITE translated: false
[L1D_WQ] entry:  32 instr_id: 68087296 address: 0x8d16044 v_addr: 0x8d16044 type: WRITE translated: false
[L1D_WQ] entry:  33 instr_id: 68087307 address: 0x8cf0048 v_addr: 0x8cf0048 type: WRITE translated: false
[L1D_WQ] entry:  34 instr_id: 68087322 address: 0x8c32ad8 v_addr: 0x8c32ad8 type: WRITE translated: false
[L1D_WQ] entry:  35 instr_id: 68087324 address: 0x3fcf4b4 v_addr: 0x3fcf4b4 type: WRITE translated: false
[L1D_WQ] entry:  36 instr_id: 68087328 address: 0x53b9bf4 v_addr: 0x53b9bf4 type: WRITE translated: false
[L1D_WQ] entry:  37 instr_id: 68087330 address: 0x5cfd7e8 v_addr: 0x5cfd7e8 type: WRITE translated: false

L1D_PQ empty

L1I_MSHR empty

L1I_tags empty

L1I_translation empty

L1I_RQ empty

L1I_WQ empty

L1I_PQ empty

L2C_MSHR empty

L2C_tags empty

L2C_translation empty

L2C_RQ empty

L2C_WQ empty

L2C_PQ empty

L2C_RQ empty

L2C_WQ empty

L2C_PQ empty

LLC_MSHR empty

LLC_tags empty

LLC_translation empty

LLC_RQ empty

LLC_WQ empty

LLC_PQ empty

[cpu0_DTLB_MSHR] entry:   0 instr_id: 68087056 address: 0x8d16038 v_addr: 0x8d16038 type: LOAD event: 18446744073709551615

cpu0_DTLB_tags empty

cpu0_DTLB_translation empty

cpu0_DTLB_RQ empty

cpu0_DTLB_WQ empty

cpu0_DTLB_PQ empty

cpu0_ITLB_MSHR empty

cpu0_ITLB_tags empty

cpu0_ITLB_translation empty

cpu0_ITLB_RQ empty

cpu0_ITLB_WQ empty

cpu0_ITLB_PQ empty

[cpu0_STLB_MSHR] entry:   0 instr_id: 68085856 address: 0x8d16000 v_addr: 0x8d16000 type: LOAD event: 18446744073709551615

cpu0_STLB_tags empty

cpu0_STLB_translation empty

cpu0_STLB_RQ empty

cpu0_STLB_WQ empty

cpu0_STLB_PQ empty

cpu0_STLB_RQ empty

cpu0_STLB_WQ empty

cpu0_STLB_PQ empty

cpu0_STLB_RQ empty

cpu0_STLB_WQ empty

cpu0_STLB_PQ empty

DRAM Channel 0
[RQ] entry:   0 empty
[RQ] entry:   1 empty
[RQ] entry:   2 empty
[RQ] entry:   3 empty
[RQ] entry:   4 empty
[RQ] entry:   5 empty
[RQ] entry:   6 empty
[RQ] entry:   7 empty
[RQ] entry:   8 empty
[RQ] entry:   9 empty
[RQ] entry:  10 empty
[RQ] entry:  11 empty
[RQ] entry:  12 empty
[RQ] entry:  13 empty
[RQ] entry:  14 empty
[RQ] entry:  15 empty
[RQ] entry:  16 empty
[RQ] entry:  17 empty
[RQ] entry:  18 empty
[RQ] entry:  19 empty
[RQ] entry:  20 empty
[RQ] entry:  21 empty
[RQ] entry:  22 empty
[RQ] entry:  23 empty
[RQ] entry:  24 empty
[RQ] entry:  25 empty
[RQ] entry:  26 empty
[RQ] entry:  27 empty
[RQ] entry:  28 empty
[RQ] entry:  29 empty
[RQ] entry:  30 empty
[RQ] entry:  31 empty
[RQ] entry:  32 empty
[RQ] entry:  33 empty
[RQ] entry:  34 empty
[RQ] entry:  35 empty
[RQ] entry:  36 empty
[RQ] entry:  37 empty
[RQ] entry:  38 empty
[RQ] entry:  39 empty
[RQ] entry:  40 empty
[RQ] entry:  41 empty
[RQ] entry:  42 empty
[RQ] entry:  43 empty
[RQ] entry:  44 empty
[RQ] entry:  45 empty
[RQ] entry:  46 empty
[RQ] entry:  47 empty
[RQ] entry:  48 empty
[RQ] entry:  49 empty
[RQ] entry:  50 empty
[RQ] entry:  51 empty
[RQ] entry:  52 empty
[RQ] entry:  53 empty
[RQ] entry:  54 empty
[RQ] entry:  55 empty
[RQ] entry:  56 empty
[RQ] entry:  57 empty
[RQ] entry:  58 empty
[RQ] entry:  59 empty
[RQ] entry:  60 empty
[RQ] entry:  61 empty
[RQ] entry:  62 empty
[RQ] entry:  63 empty

[WQ] entry:   0 empty
[WQ] entry:   1 empty
[WQ] entry:   2 empty
[WQ] entry:   3 empty
[WQ] entry:   4 empty
[WQ] entry:   5 empty
[WQ] entry:   6 empty
[WQ] entry:   7 empty
[WQ] entry:   8 empty
[WQ] entry:   9 empty
[WQ] entry:  10 empty
[WQ] entry:  11 empty
[WQ] entry:  12 empty
[WQ] entry:  13 empty
[WQ] entry:  14 empty
[WQ] entry:  15 empty
[WQ] entry:  16 empty
[WQ] entry:  17 empty
[WQ] entry:  18 empty
[WQ] entry:  19 empty
[WQ] entry:  20 empty
[WQ] entry:  21 empty
[WQ] entry:  22 empty
[WQ] entry:  23 empty
[WQ] entry:  24 empty
[WQ] entry:  25 empty
[WQ] entry:  26 empty
[WQ] entry:  27 empty
[WQ] entry:  28 empty
[WQ] entry:  29 empty
[WQ] entry:  30 empty
[WQ] entry:  31 empty
[WQ] entry:  32 empty
[WQ] entry:  33 empty
[WQ] entry:  34 empty
[WQ] entry:  35 empty
[WQ] entry:  36 empty
[WQ] entry:  37 empty
[WQ] entry:  38 empty
[WQ] entry:  39 empty
[WQ] entry:  40 empty
[WQ] entry:  41 empty
[WQ] entry:  42 empty
[WQ] entry:  43 empty
[WQ] entry:  44 empty
[WQ] entry:  45 empty
[WQ] entry:  46 empty
[WQ] entry:  47 empty
[WQ] entry:  48 empty
[WQ] ent