WARNING: physical memory size is smaller than virtual memory size.

*** ChampSim Multicore Out-of-Order Simulator ***
Warmup Instructions: 25000000
Simulation Instructions: 100000000
Number of CPUs: 1
Page size: 4096

[L1D] Demand IPV: 1 2 2 1 4 Prefetch IPV: 1 2 1 1 4
[L1I] Demand IPV: 1 2 2 1 4 Prefetch IPV: 1 2 1 1 4
[L2C] Demand IPV: 1 2 2 1 4 Prefetch IPV: 1 2 1 1 4
[LLC] Demand IPV: 1 2 2 1 4 Prefetch IPV: 1 2 1 1 4
Off-chip DRAM Size: 4 GiB Channels: 1 Width: 64-bit Data Race: 3200 MT/s
Heartbeat CPU 0 instructions: 10000003 cycles: 2500174 heartbeat IPC: 4 cumulative IPC: 4 (Simulation time: 00 hr 00 min 21 sec)
Heartbeat CPU 0 instructions: 20000001 cycles: 5000174 heartbeat IPC: 4 cumulative IPC: 4 (Simulation time: 00 hr 00 min 43 sec)
Warmup finished CPU 0 instructions: 25000001 cycles: 6250175 cumulative IPC: 4 (Simulation time: 00 hr 00 min 54 sec)
Warmup complete CPU 0 instructions: 25000001 cycles: 6250175 cumulative IPC: 4 (Simulation time: 00 hr 00 min 54 sec)
Heartbeat CPU 0 instructions: 30000002 cycles: 13368890 heartbeat IPC: 1.195 cumulative IPC: 0.7024 (Simulation time: 00 hr 01 min 23 sec)
*** Reached end of trace: (0, "../traces/public_traces/srv/srv_3.champsimtrace.xz")
Heartbeat CPU 0 instructions: 40000000 cycles: 25211320 heartbeat IPC: 0.8444 cumulative IPC: 0.7911 (Simulation time: 00 hr 02 min 15 sec)
Heartbeat CPU 0 instructions: 50000002 cycles: 37556346 heartbeat IPC: 0.81 cumulative IPC: 0.7986 (Simulation time: 00 hr 03 min 08 sec)
Heartbeat CPU 0 instructions: 60000004 cycles: 49698934 heartbeat IPC: 0.8235 cumulative IPC: 0.8055 (Simulation time: 00 hr 04 min 01 sec)
*** Reached end of trace: (0, "../traces/public_traces/srv/srv_3.champsimtrace.xz")
Heartbeat CPU 0 instructions: 70000001 cycles: 61986880 heartbeat IPC: 0.8138 cumulative IPC: 0.8074 (Simulation time: 00 hr 04 min 54 sec)
Heartbeat CPU 0 instructions: 80000001 cycles: 74425641 heartbeat IPC: 0.8039 cumulative IPC: 0.8067 (Simulation time: 00 hr 05 min 47 sec)
Heartbeat CPU 0 instructions: 90000001 cycles: 86444428 heartbeat IPC: 0.832 cumulative IPC: 0.8105 (Simulation time: 00 hr 06 min 39 sec)
*** Reached end of trace: (0, "../traces/public_traces/srv/srv_3.champsimtrace.xz")
Heartbeat CPU 0 instructions: 100000003 cycles: 98826073 heartbeat IPC: 0.8076 cumulative IPC: 0.8101 (Simulation time: 00 hr 07 min 32 sec)
Heartbeat CPU 0 instructions: 110000000 cycles: 111004698 heartbeat IPC: 0.8211 cumulative IPC: 0.8114 (Simulation time: 00 hr 08 min 25 sec)
Heartbeat CPU 0 instructions: 120000001 cycles: 123239549 heartbeat IPC: 0.8173 cumulative IPC: 0.812 (Simulation time: 00 hr 09 min 18 sec)
*** Reached end of trace: (0, "../traces/public_traces/srv/srv_3.champsimtrace.xz")
Simulation finished CPU 0 instructions: 100000001 cycles: 123283958 cumulative IPC: 0.8111 (Simulation time: 00 hr 09 min 45 sec)
Simulation complete CPU 0 instructions: 100000001 cycles: 123283958 cumulative IPC: 0.8111 (Simulation time: 00 hr 09 min 45 sec)

ChampSim completed all CPUs

=== Simulation ===
CPU 0 runs ../traces/public_traces/srv/srv_3.champsimtrace.xz
Region of Interest Statistics

CPU 0 cumulative IPC: 0.8111 instructions: 100000001 cycles: 123283958
CPU 0 Branch Prediction Accuracy: 84.86% MPKI: 27.12 Average ROB Occupancy at Mispredict: 18.43
Branch type MPKI
BRANCH_DIRECT_JUMP: 0.438
BRANCH_INDIRECT: 15.2
BRANCH_CONDITIONAL: 9.56
BRANCH_DIRECT_CALL: 0.829
BRANCH_INDIRECT_CALL: 0.495
BRANCH_RETURN: 0.635

L1D TOTAL        ACCESS:   27248145 HIT:   25076645 MISS:    2171500
L1D LOAD         ACCESS:   16922531 HIT:   15391461 MISS:    1531070
L1D RFO          ACCESS:          0 HIT:          0 MISS:          0
L1D PREFETCH     ACCESS:          0 HIT:          0 MISS:          0
L1D WRITE        ACCESS:   10108048 HIT:    9671404 MISS:     436644
L1D TRANSLATION  ACCESS:     217566 HIT:      13780 MISS:     203786
L1D PREFETCH REQUESTED:          0 ISSUED:          0 USEFUL:          0 USELESS:          0
L1D AVERAGE MISS LATENCY: 23.85 cycles
L1I TOTAL        ACCESS:   10767758 HIT:    7030455 MISS:    3737303
L1I LOAD         ACCESS:   10767758 HIT:    7030455 MISS:    3737303
L1I RFO          ACCESS:          0 HIT:          0 MISS:          0
L1I PREFETCH     ACCESS:          0 HIT:          0 MISS:          0
L1I WRITE        ACCESS:          0 HIT:          0 MISS:          0
L1I TRANSLATION  ACCESS:          0 HIT:          0 MISS:          0
L1I PREFETCH REQUESTED:          0 ISSUED:          0 USEFUL:          0 USELESS:          0
L1I AVERAGE MISS LATENCY: 12.88 cycles
L2C TOTAL        ACCESS:    4827334 HIT:    3342825 MISS:    1484509
L2C LOAD         ACCESS:    3925349 HIT:    2728390 MISS:    1196959
L2C RFO          ACCESS:     189199 HIT:     130096 MISS:      59103
L2C PREFETCH     ACCESS:          0 HIT:          0 MISS:          0
L2C WRITE        ACCESS:     510064 HIT:     433275 MISS:      76789
L2C TRANSLATION  ACCESS:     202722 HIT:      51064 MISS:     151658
L2C PREFETCH REQUESTED:          0 ISSUED:          0 USEFUL:          0 USELESS:          0
L2C AVERAGE MISS LATENCY: 40.78 cycles
LLC TOTAL        ACCESS:    1593361 HIT:    1365294 MISS:     228067
LLC LOAD         ACCESS:    1196959 HIT:    1048195 MISS:     148764
LLC RFO          ACCESS:      59103 HIT:      38599 MISS:      20504
LLC PREFETCH     ACCESS:          0 HIT:          0 MISS:          0
LLC WRITE        ACCESS:     185641 HIT:     162045 MISS:      23596
LLC TRANSLATION  ACCESS:     151658 HIT:     116455 MISS:      35203
LLC PREFETCH REQUESTED:          0 ISSUED:          0 USEFUL:          0 USELESS:          0
LLC AVERAGE MISS LATENCY: 141.1 cycles
cpu0_DTLB TOTAL        ACCESS:   21977293 HIT:   20507921 MISS:    1469372
cpu0_DTLB LOAD         ACCESS:   21977293 HIT:   20507921 MISS:    1469372
cpu0_DTLB RFO          ACCESS:          0 HIT:          0 MISS:          0
cpu0_DTLB PREFETCH     ACCESS:          0 HIT:          0 MISS:          0
cpu0_DTLB WRITE        ACCESS:          0 HIT:          0 MISS:          0
cpu0_DTLB TRANSLATION  ACCESS:          0 HIT:          0 MISS:          0
cpu0_DTLB PREFETCH REQUESTED:          0 ISSUED:          0 USEFUL:          0 USELESS:          0
cpu0_DTLB AVERAGE MISS LATENCY: 12.08 cycles
cpu0_ITLB TOTAL        ACCESS:    9608284 HIT:    8821244 MISS:     787040
cpu0_ITLB LOAD         ACCESS:    9608284 HIT:    8821244 MISS:     787040
cpu0_ITLB RFO          ACCESS:          0 HIT:          0 MISS:          0
cpu0_ITLB PREFETCH     ACCESS:          0 HIT:          0 MISS:          0
cpu0_ITLB WRITE        ACCESS:          0 HIT:          0 MISS:          0
cpu0_ITLB TRANSLATION  ACCESS:          0 HIT:          0 MISS:          0
cpu0_ITLB PREFETCH REQUESTED:          0 ISSUED:          0 USEFUL:          0 USELESS:          0
cpu0_ITLB AVERAGE MISS LATENCY: 6.995 cycles
cpu0_STLB TOTAL        ACCESS:    1518330 HIT:    1351950 MISS:     166380
cpu0_STLB LOAD         ACCESS:    1518330 HIT:    1351950 MISS:     166380
cpu0_STLB RFO          ACCESS:          0 HIT:          0 MISS:          0
cpu0_STLB PREFETCH     ACCESS:          0 HIT:          0 MISS:          0
cpu0_STLB WRITE        ACCESS:          0 HIT:          0 MISS:          0
cpu0_STLB TRANSLATION  ACCESS:          0 HIT:          0 MISS:          0
cpu0_STLB PREFETCH REQUESTED:          0 ISSUED:          0 USEFUL:          0 USELESS:          0
cpu0_STLB AVERAGE MISS LATENCY: 77.85 cycles

DRAM Statistics

Channel 0 RQ ROW_BUFFER_HIT:      46688
  ROW_BUFFER_MISS:     157779
 AVG DBUS CONGESTED CYCLE: 3.907
WQ ROW_BUFFER_HIT: Channel 0 
  ROW_BUFFER_MISS:      19552
  FULL:      78385
