WARNING: physical memory size is smaller than virtual memory size.

*** ChampSim Multicore Out-of-Order Simulator ***
Warmup Instructions: 25000000
Simulation Instructions: 100000000
Number of CPUs: 1
Page size: 4096

[L1D] Demand IPV: 1 2 2 1 4 Prefetch IPV: 1 2 1 1 4
[L1I] Demand IPV: 1 2 2 1 4 Prefetch IPV: 1 2 1 1 4
[L2C] Demand IPV: 1 2 2 1 4 Prefetch IPV: 1 2 1 1 4
[LLC] Demand IPV: 1 2 2 1 4 Prefetch IPV: 1 2 1 1 4
Off-chip DRAM Size: 4 GiB Channels: 1 Width: 64-bit Data Race: 3200 MT/s
Heartbeat CPU 0 instructions: 10000000 cycles: 2500126 heartbeat IPC: 4 cumulative IPC: 4 (Simulation time: 00 hr 00 min 21 sec)
Heartbeat CPU 0 instructions: 20000000 cycles: 5000126 heartbeat IPC: 4 cumulative IPC: 4 (Simulation time: 00 hr 00 min 43 sec)
Warmup finished CPU 0 instructions: 25000002 cycles: 6250150 cumulative IPC: 4 (Simulation time: 00 hr 00 min 54 sec)
Warmup complete CPU 0 instructions: 25000002 cycles: 6250150 cumulative IPC: 4 (Simulation time: 00 hr 00 min 54 sec)
Heartbeat CPU 0 instructions: 30000004 cycles: 12254695 heartbeat IPC: 1.378 cumulative IPC: 0.8327 (Simulation time: 00 hr 01 min 20 sec)
*** Reached end of trace: (0, "../traces/public_traces/srv/srv_5.champsimtrace.xz")
Heartbeat CPU 0 instructions: 40000000 cycles: 24327655 heartbeat IPC: 0.8283 cumulative IPC: 0.8298 (Simulation time: 00 hr 02 min 12 sec)
Heartbeat CPU 0 instructions: 50000002 cycles: 35546312 heartbeat IPC: 0.8914 cumulative IPC: 0.8534 (Simulation time: 00 hr 03 min 02 sec)
Heartbeat CPU 0 instructions: 60000001 cycles: 47572491 heartbeat IPC: 0.8315 cumulative IPC: 0.847 (Simulation time: 00 hr 03 min 55 sec)
*** Reached end of trace: (0, "../traces/public_traces/srv/srv_5.champsimtrace.xz")
Heartbeat CPU 0 instructions: 70000003 cycles: 59673584 heartbeat IPC: 0.8264 cumulative IPC: 0.8423 (Simulation time: 00 hr 04 min 47 sec)
Heartbeat CPU 0 instructions: 80000003 cycles: 71026134 heartbeat IPC: 0.8809 cumulative IPC: 0.8491 (Simulation time: 00 hr 05 min 38 sec)
Heartbeat CPU 0 instructions: 90000003 cycles: 83209534 heartbeat IPC: 0.8208 cumulative IPC: 0.8446 (Simulation time: 00 hr 06 min 30 sec)
*** Reached end of trace: (0, "../traces/public_traces/srv/srv_5.champsimtrace.xz")
Heartbeat CPU 0 instructions: 100000004 cycles: 95063725 heartbeat IPC: 0.8436 cumulative IPC: 0.8445 (Simulation time: 00 hr 07 min 22 sec)
Heartbeat CPU 0 instructions: 110000000 cycles: 106649188 heartbeat IPC: 0.8632 cumulative IPC: 0.8466 (Simulation time: 00 hr 08 min 13 sec)
Heartbeat CPU 0 instructions: 120000003 cycles: 118715133 heartbeat IPC: 0.8288 cumulative IPC: 0.8447 (Simulation time: 00 hr 09 min 06 sec)
*** Reached end of trace: (0, "../traces/public_traces/srv/srv_5.champsimtrace.xz")
Simulation finished CPU 0 instructions: 100000000 cycles: 117996733 cumulative IPC: 0.8475 (Simulation time: 00 hr 09 min 31 sec)
Simulation complete CPU 0 instructions: 100000000 cycles: 117996733 cumulative IPC: 0.8475 (Simulation time: 00 hr 09 min 31 sec)

ChampSim completed all CPUs

=== Simulation ===
CPU 0 runs ../traces/public_traces/srv/srv_5.champsimtrace.xz
Region of Interest Statistics

CPU 0 cumulative IPC: 0.8475 instructions: 100000000 cycles: 117996733
CPU 0 Branch Prediction Accuracy: 85.65% MPKI: 25.76 Average ROB Occupancy at Mispredict: 18.57
Branch type MPKI
BRANCH_DIRECT_JUMP: 0.398
BRANCH_INDIRECT: 14.5
BRANCH_CONDITIONAL: 9.1
BRANCH_DIRECT_CALL: 0.732
BRANCH_INDIRECT_CALL: 0.48
BRANCH_RETURN: 0.557

L1D TOTAL        ACCESS:   26994889 HIT:   24775470 MISS:    2219419
L1D LOAD         ACCESS:   16696377 HIT:   15115479 MISS:    1580898
L1D RFO          ACCESS:          0 HIT:          0 MISS:          0
L1D PREFETCH     ACCESS:          0 HIT:          0 MISS:          0
L1D WRITE        ACCESS:   10089937 HIT:    9646162 MISS:     443775
L1D TRANSLATION  ACCESS:     208575 HIT:      13829 MISS:     194746
L1D PREFETCH REQUESTED:          0 ISSUED:          0 USEFUL:          0 USELESS:          0
L1D AVERAGE MISS LATENCY: 23.17 cycles
L1I TOTAL        ACCESS:   10495743 HIT:    6714446 MISS:    3781297
L1I LOAD         ACCESS:   10495743 HIT:    6714446 MISS:    3781297
L1I RFO          ACCESS:          0 HIT:          0 MISS:          0
L1I PREFETCH     ACCESS:          0 HIT:          0 MISS:          0
L1I WRITE        ACCESS:          0 HIT:          0 MISS:          0
L1I TRANSLATION  ACCESS:          0 HIT:          0 MISS:          0
L1I PREFETCH REQUESTED:          0 ISSUED:          0 USEFUL:          0 USELESS:          0
L1I AVERAGE MISS LATENCY: 11.97 cycles
L2C TOTAL        ACCESS:    4845368 HIT:    3380632 MISS:    1464736
L2C LOAD         ACCESS:    3950816 HIT:    2767885 MISS:    1182931
L2C RFO          ACCESS:     187202 HIT:     127226 MISS:      59976
L2C PREFETCH     ACCESS:          0 HIT:          0 MISS:          0
L2C WRITE        ACCESS:     513795 HIT:     440832 MISS:      72963
L2C TRANSLATION  ACCESS:     193555 HIT:      44689 MISS:     148866
L2C PREFETCH REQUESTED:          0 ISSUED:          0 USEFUL:          0 USELESS:          0
L2C AVERAGE MISS LATENCY: 39.26 cycles
LLC TOTAL        ACCESS:    1578671 HIT:    1371511 MISS:     207160
LLC LOAD         ACCESS:    1182929 HIT:    1050827 MISS:     132102
LLC RFO          ACCESS:      59975 HIT:      39009 MISS:      20966
LLC PREFETCH     ACCESS:          0 HIT:          0 MISS:          0
LLC WRITE        ACCESS:     186901 HIT:     165036 MISS:      21865
LLC TRANSLATION  ACCESS:     148866 HIT:     116639 MISS:      32227
LLC PREFETCH REQUESTED:          0 ISSUED:          0 USEFUL:          0 USELESS:          0
LLC AVERAGE MISS LATENCY: 142.3 cycles
cpu0_DTLB TOTAL        ACCESS:   21795799 HIT:   20191072 MISS:    1604727
cpu0_DTLB LOAD         ACCESS:   21795799 HIT:   20191072 MISS:    1604727
cpu0_DTLB RFO          ACCESS:          0 HIT:          0 MISS:          0
cpu0_DTLB PREFETCH     ACCESS:          0 HIT:          0 MISS:          0
cpu0_DTLB WRITE        ACCESS:          0 HIT:          0 MISS:          0
cpu0_DTLB TRANSLATION  ACCESS:          0 HIT:          0 MISS:          0
cpu0_DTLB PREFETCH REQUESTED:          0 ISSUED:          0 USEFUL:          0 USELESS:          0
cpu0_DTLB AVERAGE MISS LATENCY: 11.31 cycles
cpu0_ITLB TOTAL        ACCESS:    9357308 HIT:    8526845 MISS:     830463
cpu0_ITLB LOAD         ACCESS:    9357308 HIT:    8526845 MISS:     830463
cpu0_ITLB RFO          ACCESS:          0 HIT:          0 MISS:          0
cpu0_ITLB PREFETCH     ACCESS:          0 HIT:          0 MISS:          0
cpu0_ITLB WRITE        ACCESS:          0 HIT:          0 MISS:          0
cpu0_ITLB TRANSLATION  ACCESS:          0 HIT:          0 MISS:          0
cpu0_ITLB PREFETCH REQUESTED:          0 ISSUED:          0 USEFUL:          0 USELESS:          0
cpu0_ITLB AVERAGE MISS LATENCY: 6.505 cycles
cpu0_STLB TOTAL        ACCESS:    1648165 HIT:    1489149 MISS:     159016
cpu0_STLB LOAD         ACCESS:    1648165 HIT:    1489149 MISS:     159016
cpu0_STLB RFO          ACCESS:          0 HIT:          0 MISS:          0
cpu0_STLB PREFETCH     ACCESS:          0 HIT:          0 MISS:          0
cpu0_STLB WRITE        ACCESS:          0 HIT:          0 MISS:          0
cpu0_STLB TRANSLATION  ACCESS:          0 HIT:          0 MISS:          0
cpu0_STLB PREFETCH REQUESTED:          0 ISSUED:          0 USEFUL:          0 USELESS:          0
cpu0_STLB AVERAGE MISS LATENCY: 77.39 cycles

DRAM Statistics

Channel 0 RQ ROW_BUFFER_HIT:      43611
  ROW_BUFFER_MISS:     141680
 AVG DBUS CONGESTED CYCLE: 3.92
WQ ROW_BUFFER_HIT: Channel 0 
  ROW_BUFFER_MISS:      17867
  FULL:      78048
