WARNING: physical memory size is smaller than virtual memory size.

*** ChampSim Multicore Out-of-Order Simulator ***
Warmup Instructions: 25000000
Simulation Instructions: 100000000
Number of CPUs: 1
Page size: 4096

[L1D] Demand IPV: 1 2 2 1 4 Prefetch IPV: 1 2 1 1 4
[L1I] Demand IPV: 1 2 2 1 4 Prefetch IPV: 1 2 1 1 4
[L2C] Demand IPV: 1 2 2 1 4 Prefetch IPV: 1 2 1 1 4
[LLC] Demand IPV: 1 2 2 1 4 Prefetch IPV: 1 2 1 1 4
Off-chip DRAM Size: 4 GiB Channels: 1 Width: 64-bit Data Race: 3200 MT/s
Heartbeat CPU 0 instructions: 10000001 cycles: 2500084 heartbeat IPC: 4 cumulative IPC: 4 (Simulation time: 00 hr 00 min 22 sec)
Heartbeat CPU 0 instructions: 20000000 cycles: 5000092 heartbeat IPC: 4 cumulative IPC: 4 (Simulation time: 00 hr 00 min 44 sec)
Warmup finished CPU 0 instructions: 25000003 cycles: 6250138 cumulative IPC: 4 (Simulation time: 00 hr 00 min 55 sec)
Warmup complete CPU 0 instructions: 25000003 cycles: 6250138 cumulative IPC: 4 (Simulation time: 00 hr 00 min 55 sec)
Heartbeat CPU 0 instructions: 30000001 cycles: 13546984 heartbeat IPC: 1.17 cumulative IPC: 0.6852 (Simulation time: 00 hr 01 min 25 sec)
*** Reached end of trace: (0, "../traces/public_traces/srv/srv_60.champsimtrace.xz")
Heartbeat CPU 0 instructions: 40000000 cycles: 28672041 heartbeat IPC: 0.6612 cumulative IPC: 0.669 (Simulation time: 00 hr 02 min 26 sec)
Heartbeat CPU 0 instructions: 50000000 cycles: 43487610 heartbeat IPC: 0.675 cumulative IPC: 0.6714 (Simulation time: 00 hr 03 min 26 sec)
Heartbeat CPU 0 instructions: 60000001 cycles: 58475952 heartbeat IPC: 0.6672 cumulative IPC: 0.6702 (Simulation time: 00 hr 04 min 26 sec)
*** Reached end of trace: (0, "../traces/public_traces/srv/srv_60.champsimtrace.xz")
Heartbeat CPU 0 instructions: 70000000 cycles: 73402103 heartbeat IPC: 0.67 cumulative IPC: 0.6701 (Simulation time: 00 hr 05 min 27 sec)
Heartbeat CPU 0 instructions: 80000001 cycles: 88413853 heartbeat IPC: 0.6661 cumulative IPC: 0.6694 (Simulation time: 00 hr 06 min 27 sec)
Heartbeat CPU 0 instructions: 90000000 cycles: 103662438 heartbeat IPC: 0.6558 cumulative IPC: 0.6673 (Simulation time: 00 hr 07 min 29 sec)
*** Reached end of trace: (0, "../traces/public_traces/srv/srv_60.champsimtrace.xz")
Heartbeat CPU 0 instructions: 100000000 cycles: 118517293 heartbeat IPC: 0.6732 cumulative IPC: 0.668 (Simulation time: 00 hr 08 min 29 sec)
Heartbeat CPU 0 instructions: 110000003 cycles: 133383733 heartbeat IPC: 0.6727 cumulative IPC: 0.6686 (Simulation time: 00 hr 09 min 29 sec)
Heartbeat CPU 0 instructions: 120000000 cycles: 148474072 heartbeat IPC: 0.6627 cumulative IPC: 0.668 (Simulation time: 00 hr 10 min 30 sec)
*** Reached end of trace: (0, "../traces/public_traces/srv/srv_60.champsimtrace.xz")
Simulation finished CPU 0 instructions: 100000001 cycles: 149483033 cumulative IPC: 0.669 (Simulation time: 00 hr 11 min 00 sec)
Simulation complete CPU 0 instructions: 100000001 cycles: 149483033 cumulative IPC: 0.669 (Simulation time: 00 hr 11 min 00 sec)

ChampSim completed all CPUs

=== Simulation ===
CPU 0 runs ../traces/public_traces/srv/srv_60.champsimtrace.xz
Region of Interest Statistics

CPU 0 cumulative IPC: 0.669 instructions: 100000001 cycles: 149483033
CPU 0 Branch Prediction Accuracy: 81.28% MPKI: 33.63 Average ROB Occupancy at Mispredict: 14.43
Branch type MPKI
BRANCH_DIRECT_JUMP: 0.85
BRANCH_INDIRECT: 18.4
BRANCH_CONDITIONAL: 11.1
BRANCH_DIRECT_CALL: 1.49
BRANCH_INDIRECT_CALL: 0.643
BRANCH_RETURN: 1.11

L1D TOTAL        ACCESS:   27551579 HIT:   25116848 MISS:    2434731
L1D LOAD         ACCESS:   17198183 HIT:   15532660 MISS:    1665523
L1D RFO          ACCESS:          0 HIT:          0 MISS:          0
L1D PREFETCH     ACCESS:          0 HIT:          0 MISS:          0
L1D WRITE        ACCESS:   10039543 HIT:    9567247 MISS:     472296
L1D TRANSLATION  ACCESS:     313853 HIT:      16941 MISS:     296912
L1D PREFETCH REQUESTED:          0 ISSUED:          0 USEFUL:          0 USELESS:          0
L1D AVERAGE MISS LATENCY: 25.67 cycles
L1I TOTAL        ACCESS:   10869517 HIT:    7087855 MISS:    3781662
L1I LOAD         ACCESS:   10869517 HIT:    7087855 MISS:    3781662
L1I RFO          ACCESS:          0 HIT:          0 MISS:          0
L1I PREFETCH     ACCESS:          0 HIT:          0 MISS:          0
L1I WRITE        ACCESS:          0 HIT:          0 MISS:          0
L1I TRANSLATION  ACCESS:          0 HIT:          0 MISS:          0
L1I PREFETCH REQUESTED:          0 ISSUED:          0 USEFUL:          0 USELESS:          0
L1I AVERAGE MISS LATENCY: 15.12 cycles
L2C TOTAL        ACCESS:    5210336 HIT:    3117152 MISS:    2093184
L2C LOAD         ACCESS:    4186186 HIT:    2497844 MISS:    1688342
L2C RFO          ACCESS:     199330 HIT:     125896 MISS:      73434
L2C PREFETCH     ACCESS:          0 HIT:          0 MISS:          0
L2C WRITE        ACCESS:     529162 HIT:     430033 MISS:      99129
L2C TRANSLATION  ACCESS:     295658 HIT:      63379 MISS:     232279
L2C PREFETCH REQUESTED:          0 ISSUED:          0 USEFUL:          0 USELESS:          0
L2C AVERAGE MISS LATENCY: 36.29 cycles
LLC TOTAL        ACCESS:    2214770 HIT:    1957481 MISS:     257289
LLC LOAD         ACCESS:    1688342 HIT:    1534486 MISS:     153856
LLC RFO          ACCESS:      73434 HIT:      52129 MISS:      21305
LLC PREFETCH     ACCESS:          0 HIT:          0 MISS:          0
LLC WRITE        ACCESS:     220715 HIT:     194381 MISS:      26334
LLC TRANSLATION  ACCESS:     232279 HIT:     176485 MISS:      55794
LLC PREFETCH REQUESTED:          0 ISSUED:          0 USEFUL:          0 USELESS:          0
LLC AVERAGE MISS LATENCY: 139.3 cycles
cpu0_DTLB TOTAL        ACCESS:   22330464 HIT:   20757737 MISS:    1572727
cpu0_DTLB LOAD         ACCESS:   22330464 HIT:   20757737 MISS:    1572727
cpu0_DTLB RFO          ACCESS:          0 HIT:          0 MISS:          0
cpu0_DTLB PREFETCH     ACCESS:          0 HIT:          0 MISS:          0
cpu0_DTLB WRITE        ACCESS:          0 HIT:          0 MISS:          0
cpu0_DTLB TRANSLATION  ACCESS:          0 HIT:          0 MISS:          0
cpu0_DTLB PREFETCH REQUESTED:          0 ISSUED:          0 USEFUL:          0 USELESS:          0
cpu0_DTLB AVERAGE MISS LATENCY: 14.02 cycles
cpu0_ITLB TOTAL        ACCESS:    9601007 HIT:    8822200 MISS:     778807
cpu0_ITLB LOAD         ACCESS:    9601007 HIT:    8822200 MISS:     778807
cpu0_ITLB RFO          ACCESS:          0 HIT:          0 MISS:          0
cpu0_ITLB PREFETCH     ACCESS:          0 HIT:          0 MISS:          0
cpu0_ITLB WRITE        ACCESS:          0 HIT:          0 MISS:          0
cpu0_ITLB TRANSLATION  ACCESS:          0 HIT:          0 MISS:          0
cpu0_ITLB PREFETCH REQUESTED:          0 ISSUED:          0 USEFUL:          0 USELESS:          0
cpu0_ITLB AVERAGE MISS LATENCY: 10.93 cycles
cpu0_STLB TOTAL        ACCESS:    1639647 HIT:    1387349 MISS:     252298
cpu0_STLB LOAD         ACCESS:    1639647 HIT:    1387349 MISS:     252298
cpu0_STLB RFO          ACCESS:          0 HIT:          0 MISS:          0
cpu0_STLB PREFETCH     ACCESS:          0 HIT:          0 MISS:          0
cpu0_STLB WRITE        ACCESS:          0 HIT:          0 MISS:          0
cpu0_STLB TRANSLATION  ACCESS:          0 HIT:          0 MISS:          0
cpu0_STLB PREFETCH REQUESTED:          0 ISSUED:          0 USEFUL:          0 USELESS:          0
cpu0_STLB AVERAGE MISS LATENCY: 75.97 cycles

DRAM Statistics

Channel 0 RQ ROW_BUFFER_HIT:      35674
  ROW_BUFFER_MISS:     195277
 AVG DBUS CONGESTED CYCLE: 3.855
WQ ROW_BUFFER_HIT: Channel 0 
  ROW_BUFFER_MISS:      19645
  FULL:      86248
