WARNING: physical memory size is smaller than virtual memory size.

*** ChampSim Multicore Out-of-Order Simulator ***
Warmup Instructions: 25000000
Simulation Instructions: 100000000
Number of CPUs: 1
Page size: 4096

[L1D] Demand IPV: 1 2 2 1 4 Prefetch IPV: 1 2 1 1 4
[L1I] Demand IPV: 1 2 2 1 4 Prefetch IPV: 1 2 1 1 4
[L2C] Demand IPV: 1 2 2 1 4 Prefetch IPV: 1 2 1 1 4
[LLC] Demand IPV: 1 2 2 1 4 Prefetch IPV: 1 2 1 1 4
Off-chip DRAM Size: 4 GiB Channels: 1 Width: 64-bit Data Race: 3200 MT/s
Heartbeat CPU 0 instructions: 10000000 cycles: 2794765 heartbeat IPC: 3.578 cumulative IPC: 3.578 (Simulation time: 00 hr 00 min 21 sec)
Heartbeat CPU 0 instructions: 20000004 cycles: 5777190 heartbeat IPC: 3.353 cumulative IPC: 3.462 (Simulation time: 00 hr 00 min 44 sec)
Warmup finished CPU 0 instructions: 25000003 cycles: 7136483 cumulative IPC: 3.503 (Simulation time: 00 hr 00 min 54 sec)
Warmup complete CPU 0 instructions: 25000003 cycles: 7136483 cumulative IPC: 3.503 (Simulation time: 00 hr 00 min 54 sec)
Heartbeat CPU 0 instructions: 30000000 cycles: 10782714 heartbeat IPC: 1.998 cumulative IPC: 1.371 (Simulation time: 00 hr 01 min 14 sec)
*** Reached end of trace: (0, "../traces/public_traces/srv/srv_9.champsimtrace.xz")
Heartbeat CPU 0 instructions: 40000003 cycles: 18837717 heartbeat IPC: 1.241 cumulative IPC: 1.282 (Simulation time: 00 hr 01 min 55 sec)
Heartbeat CPU 0 instructions: 50000001 cycles: 28410718 heartbeat IPC: 1.045 cumulative IPC: 1.175 (Simulation time: 00 hr 02 min 40 sec)
Heartbeat CPU 0 instructions: 60000003 cycles: 37367195 heartbeat IPC: 1.117 cumulative IPC: 1.158 (Simulation time: 00 hr 03 min 27 sec)
*** Reached end of trace: (0, "../traces/public_traces/srv/srv_9.champsimtrace.xz")
Heartbeat CPU 0 instructions: 70000001 cycles: 45632006 heartbeat IPC: 1.21 cumulative IPC: 1.169 (Simulation time: 00 hr 04 min 09 sec)
Heartbeat CPU 0 instructions: 80000003 cycles: 54791231 heartbeat IPC: 1.092 cumulative IPC: 1.154 (Simulation time: 00 hr 04 min 53 sec)
Heartbeat CPU 0 instructions: 90000004 cycles: 63850974 heartbeat IPC: 1.104 cumulative IPC: 1.146 (Simulation time: 00 hr 05 min 39 sec)
*** Reached end of trace: (0, "../traces/public_traces/srv/srv_9.champsimtrace.xz")
Heartbeat CPU 0 instructions: 100000000 cycles: 72168082 heartbeat IPC: 1.202 cumulative IPC: 1.153 (Simulation time: 00 hr 06 min 21 sec)
Heartbeat CPU 0 instructions: 110000004 cycles: 81216701 heartbeat IPC: 1.105 cumulative IPC: 1.147 (Simulation time: 00 hr 07 min 05 sec)
Heartbeat CPU 0 instructions: 120000003 cycles: 90362779 heartbeat IPC: 1.093 cumulative IPC: 1.141 (Simulation time: 00 hr 07 min 52 sec)
*** Reached end of trace: (0, "../traces/public_traces/srv/srv_9.champsimtrace.xz")
Simulation finished CPU 0 instructions: 100000003 cycles: 87377428 cumulative IPC: 1.144 (Simulation time: 00 hr 08 min 13 sec)
Simulation complete CPU 0 instructions: 100000003 cycles: 87377428 cumulative IPC: 1.144 (Simulation time: 00 hr 08 min 13 sec)

ChampSim completed all CPUs

=== Simulation ===
CPU 0 runs ../traces/public_traces/srv/srv_9.champsimtrace.xz
Region of Interest Statistics

CPU 0 cumulative IPC: 1.144 instructions: 100000003 cycles: 87377428
CPU 0 Branch Prediction Accuracy: 95.27% MPKI: 11.07 Average ROB Occupancy at Mispredict: 70.66
Branch type MPKI
BRANCH_DIRECT_JUMP: 0.0891
BRANCH_INDIRECT: 6.13
BRANCH_CONDITIONAL: 4.18
BRANCH_DIRECT_CALL: 0.151
BRANCH_INDIRECT_CALL: 0.38
BRANCH_RETURN: 0.138

L1D TOTAL        ACCESS:   35543396 HIT:   29372240 MISS:    6171156
L1D LOAD         ACCESS:   26436676 HIT:   20520487 MISS:    5916189
L1D RFO          ACCESS:          0 HIT:          0 MISS:          0
L1D PREFETCH     ACCESS:          0 HIT:          0 MISS:          0
L1D WRITE        ACCESS:    9049023 HIT:    8839508 MISS:     209515
L1D TRANSLATION  ACCESS:      57697 HIT:      12245 MISS:      45452
L1D PREFETCH REQUESTED:          0 ISSUED:          0 USEFUL:          0 USELESS:          0
L1D AVERAGE MISS LATENCY: 22.97 cycles
L1I TOTAL        ACCESS:    2707667 HIT:    2214363 MISS:     493304
L1I LOAD         ACCESS:    2707667 HIT:    2214363 MISS:     493304
L1I RFO          ACCESS:          0 HIT:          0 MISS:          0
L1I PREFETCH     ACCESS:          0 HIT:          0 MISS:          0
L1I WRITE        ACCESS:          0 HIT:          0 MISS:          0
L1I TRANSLATION  ACCESS:          0 HIT:          0 MISS:          0
L1I PREFETCH REQUESTED:          0 ISSUED:          0 USEFUL:          0 USELESS:          0
L1I AVERAGE MISS LATENCY: 24.21 cycles
L2C TOTAL        ACCESS:    4247727 HIT:    3104281 MISS:    1143446
L2C LOAD         ACCESS:    4036761 HIT:    2989713 MISS:    1047048
L2C RFO          ACCESS:      51047 HIT:      15273 MISS:      35774
L2C PREFETCH     ACCESS:          0 HIT:          0 MISS:          0
L2C WRITE        ACCESS:     114720 HIT:      92100 MISS:      22620
L2C TRANSLATION  ACCESS:      45199 HIT:       7195 MISS:      38004
L2C PREFETCH REQUESTED:          0 ISSUED:          0 USEFUL:          0 USELESS:          0
L2C AVERAGE MISS LATENCY: 107.1 cycles
LLC TOTAL        ACCESS:    1205680 HIT:     595940 MISS:     609740
LLC LOAD         ACCESS:    1047046 HIT:     501121 MISS:     545925
LLC RFO          ACCESS:      35774 HIT:      22430 MISS:      13344
LLC PREFETCH     ACCESS:          0 HIT:          0 MISS:          0
LLC WRITE        ACCESS:      84856 HIT:      63251 MISS:      21605
LLC TRANSLATION  ACCESS:      38004 HIT:       9138 MISS:      28866
LLC PREFETCH REQUESTED:          0 ISSUED:          0 USEFUL:          0 USELESS:          0
LLC AVERAGE MISS LATENCY: 163.1 cycles
cpu0_DTLB TOTAL        ACCESS:   29838194 HIT:   23023093 MISS:    6815101
cpu0_DTLB LOAD         ACCESS:   29838194 HIT:   23023093 MISS:    6815101
cpu0_DTLB RFO          ACCESS:          0 HIT:          0 MISS:          0
cpu0_DTLB PREFETCH     ACCESS:          0 HIT:          0 MISS:          0
cpu0_DTLB WRITE        ACCESS:          0 HIT:          0 MISS:          0
cpu0_DTLB TRANSLATION  ACCESS:          0 HIT:          0 MISS:          0
cpu0_DTLB PREFETCH REQUESTED:          0 ISSUED:          0 USEFUL:          0 USELESS:          0
cpu0_DTLB AVERAGE MISS LATENCY: 4.619 cycles
cpu0_ITLB TOTAL        ACCESS:    2398255 HIT:    2246367 MISS:     151888
cpu0_ITLB LOAD         ACCESS:    2398255 HIT:    2246367 MISS:     151888
cpu0_ITLB RFO          ACCESS:          0 HIT:          0 MISS:          0
cpu0_ITLB PREFETCH     ACCESS:          0 HIT:          0 MISS:          0
cpu0_ITLB WRITE        ACCESS:          0 HIT:          0 MISS:          0
cpu0_ITLB TRANSLATION  ACCESS:          0 HIT:          0 MISS:          0
cpu0_ITLB PREFETCH REQUESTED:          0 ISSUED:          0 USEFUL:          0 USELESS:          0
cpu0_ITLB AVERAGE MISS LATENCY: 11.52 cycles
cpu0_STLB TOTAL        ACCESS:    4196057 HIT:    4147894 MISS:      48163
cpu0_STLB LOAD         ACCESS:    4196057 HIT:    4147894 MISS:      48163
cpu0_STLB RFO          ACCESS:          0 HIT:          0 MISS:          0
cpu0_STLB PREFETCH     ACCESS:          0 HIT:          0 MISS:          0
cpu0_STLB WRITE        ACCESS:          0 HIT:          0 MISS:          0
cpu0_STLB TRANSLATION  ACCESS:          0 HIT:          0 MISS:          0
cpu0_STLB PREFETCH REQUESTED:          0 ISSUED:          0 USEFUL:          0 USELESS:          0
cpu0_STLB AVERAGE MISS LATENCY: 160.8 cycles

DRAM Statistics

Channel 0 RQ ROW_BUFFER_HIT:     274843
  ROW_BUFFER_MISS:     313275
 AVG DBUS CONGESTED CYCLE: 3.739
WQ ROW_BUFFER_HIT: Channel 0 
  ROW_BUFFER_MISS:      10488
  FULL:      23071
