WARNING: physical memory size is smaller than virtual memory size.

*** ChampSim Multicore Out-of-Order Simulator ***
Warmup Instructions: 25000000
Simulation Instructions: 100000000
Number of CPUs: 1
Page size: 4096

[L1D] Demand IPV: 1 2 2 1 4 Prefetch IPV: 1 2 1 1 4
[L1I] Demand IPV: 1 2 2 1 4 Prefetch IPV: 1 2 1 1 4
[L2C] Demand IPV: 1 2 2 1 4 Prefetch IPV: 1 2 1 1 4
[LLC] Demand IPV: 1 2 2 1 4 Prefetch IPV: 1 2 1 1 4
Off-chip DRAM Size: 4 GiB Channels: 1 Width: 64-bit Data Race: 3200 MT/s
Heartbeat CPU 0 instructions: 10000000 cycles: 2500101 heartbeat IPC: 4 cumulative IPC: 4 (Simulation time: 00 hr 00 min 21 sec)
Heartbeat CPU 0 instructions: 20000000 cycles: 5000101 heartbeat IPC: 4 cumulative IPC: 4 (Simulation time: 00 hr 00 min 43 sec)
Warmup finished CPU 0 instructions: 25000000 cycles: 6250102 cumulative IPC: 4 (Simulation time: 00 hr 00 min 54 sec)
Warmup complete CPU 0 instructions: 25000000 cycles: 6250102 cumulative IPC: 4 (Simulation time: 00 hr 00 min 54 sec)
Heartbeat CPU 0 instructions: 30000000 cycles: 12949626 heartbeat IPC: 1.258 cumulative IPC: 0.7463 (Simulation time: 00 hr 01 min 22 sec)
*** Reached end of trace: (0, "../traces/public_traces/srv/srv_10.champsimtrace.xz")
Heartbeat CPU 0 instructions: 40000004 cycles: 26800422 heartbeat IPC: 0.722 cumulative IPC: 0.7299 (Simulation time: 00 hr 02 min 19 sec)
Heartbeat CPU 0 instructions: 50000000 cycles: 40703347 heartbeat IPC: 0.7193 cumulative IPC: 0.7256 (Simulation time: 00 hr 03 min 16 sec)
Heartbeat CPU 0 instructions: 60000003 cycles: 54433543 heartbeat IPC: 0.7283 cumulative IPC: 0.7264 (Simulation time: 00 hr 04 min 13 sec)
*** Reached end of trace: (0, "../traces/public_traces/srv/srv_10.champsimtrace.xz")
Heartbeat CPU 0 instructions: 70000001 cycles: 68259635 heartbeat IPC: 0.7233 cumulative IPC: 0.7257 (Simulation time: 00 hr 05 min 10 sec)
Heartbeat CPU 0 instructions: 80000003 cycles: 82264914 heartbeat IPC: 0.714 cumulative IPC: 0.7235 (Simulation time: 00 hr 06 min 08 sec)
Heartbeat CPU 0 instructions: 90000001 cycles: 95928339 heartbeat IPC: 0.7319 cumulative IPC: 0.7248 (Simulation time: 00 hr 07 min 04 sec)
*** Reached end of trace: (0, "../traces/public_traces/srv/srv_10.champsimtrace.xz")
Heartbeat CPU 0 instructions: 100000002 cycles: 109703668 heartbeat IPC: 0.7259 cumulative IPC: 0.725 (Simulation time: 00 hr 08 min 01 sec)
Heartbeat CPU 0 instructions: 110000000 cycles: 123747470 heartbeat IPC: 0.7121 cumulative IPC: 0.7234 (Simulation time: 00 hr 08 min 59 sec)
Heartbeat CPU 0 instructions: 120000000 cycles: 137514482 heartbeat IPC: 0.7264 cumulative IPC: 0.7237 (Simulation time: 00 hr 09 min 55 sec)
*** Reached end of trace: (0, "../traces/public_traces/srv/srv_10.champsimtrace.xz")
Simulation finished CPU 0 instructions: 100000000 cycles: 137959961 cumulative IPC: 0.7248 (Simulation time: 00 hr 10 min 23 sec)
Simulation complete CPU 0 instructions: 100000000 cycles: 137959961 cumulative IPC: 0.7248 (Simulation time: 00 hr 10 min 23 sec)

ChampSim completed all CPUs

=== Simulation ===
CPU 0 runs ../traces/public_traces/srv/srv_10.champsimtrace.xz
Region of Interest Statistics

CPU 0 cumulative IPC: 0.7248 instructions: 100000000 cycles: 137959961
CPU 0 Branch Prediction Accuracy: 82.41% MPKI: 31.67 Average ROB Occupancy at Mispredict: 15.25
Branch type MPKI
BRANCH_DIRECT_JUMP: 0.754
BRANCH_INDIRECT: 16.9
BRANCH_CONDITIONAL: 10.9
BRANCH_DIRECT_CALL: 1.44
BRANCH_INDIRECT_CALL: 0.671
BRANCH_RETURN: 1.02

L1D TOTAL        ACCESS:   27329617 HIT:   24982877 MISS:    2346740
L1D LOAD         ACCESS:   16937059 HIT:   15365579 MISS:    1571480
L1D RFO          ACCESS:          0 HIT:          0 MISS:          0
L1D PREFETCH     ACCESS:          0 HIT:          0 MISS:          0
L1D WRITE        ACCESS:   10103890 HIT:    9598192 MISS:     505698
L1D TRANSLATION  ACCESS:     288668 HIT:      19106 MISS:     269562
L1D PREFETCH REQUESTED:          0 ISSUED:          0 USEFUL:          0 USELESS:          0
L1D AVERAGE MISS LATENCY: 23.68 cycles
L1I TOTAL        ACCESS:   10500880 HIT:    6879466 MISS:    3621414
L1I LOAD         ACCESS:   10500880 HIT:    6879466 MISS:    3621414
L1I RFO          ACCESS:          0 HIT:          0 MISS:          0
L1I PREFETCH     ACCESS:          0 HIT:          0 MISS:          0
L1I WRITE        ACCESS:          0 HIT:          0 MISS:          0
L1I TRANSLATION  ACCESS:          0 HIT:          0 MISS:          0
L1I PREFETCH REQUESTED:          0 ISSUED:          0 USEFUL:          0 USELESS:          0
L1I AVERAGE MISS LATENCY: 14.41 cycles
L2C TOTAL        ACCESS:    4951623 HIT:    3048744 MISS:    1902879
L2C LOAD         ACCESS:    3960881 HIT:    2439756 MISS:    1521125
L2C RFO          ACCESS:     204788 HIT:     127921 MISS:      76867
L2C PREFETCH     ACCESS:          0 HIT:          0 MISS:          0
L2C WRITE        ACCESS:     517698 HIT:     423868 MISS:      93830
L2C TRANSLATION  ACCESS:     268256 HIT:      57199 MISS:     211057
L2C PREFETCH REQUESTED:          0 ISSUED:          0 USEFUL:          0 USELESS:          0
L2C AVERAGE MISS LATENCY: 35.01 cycles
LLC TOTAL        ACCESS:    2018899 HIT:    1800906 MISS:     217993
LLC LOAD         ACCESS:    1521125 HIT:    1390647 MISS:     130478
LLC RFO          ACCESS:      76867 HIT:      55644 MISS:      21223
LLC PREFETCH     ACCESS:          0 HIT:          0 MISS:          0
LLC WRITE        ACCESS:     209850 HIT:     187021 MISS:      22829
LLC TRANSLATION  ACCESS:     211057 HIT:     167594 MISS:      43463
LLC PREFETCH REQUESTED:          0 ISSUED:          0 USEFUL:          0 USELESS:          0
LLC AVERAGE MISS LATENCY: 138.7 cycles
cpu0_DTLB TOTAL        ACCESS:   22098255 HIT:   20566090 MISS:    1532165
cpu0_DTLB LOAD         ACCESS:   22098255 HIT:   20566090 MISS:    1532165
cpu0_DTLB RFO          ACCESS:          0 HIT:          0 MISS:          0
cpu0_DTLB PREFETCH     ACCESS:          0 HIT:          0 MISS:          0
cpu0_DTLB WRITE        ACCESS:          0 HIT:          0 MISS:          0
cpu0_DTLB TRANSLATION  ACCESS:          0 HIT:          0 MISS:          0
cpu0_DTLB PREFETCH REQUESTED:          0 ISSUED:          0 USEFUL:          0 USELESS:          0
cpu0_DTLB AVERAGE MISS LATENCY: 13.04 cycles
cpu0_ITLB TOTAL        ACCESS:    9354257 HIT:    8580435 MISS:     773822
cpu0_ITLB LOAD         ACCESS:    9354257 HIT:    8580435 MISS:     773822
cpu0_ITLB RFO          ACCESS:          0 HIT:          0 MISS:          0
cpu0_ITLB PREFETCH     ACCESS:          0 HIT:          0 MISS:          0
cpu0_ITLB WRITE        ACCESS:          0 HIT:          0 MISS:          0
cpu0_ITLB TRANSLATION  ACCESS:          0 HIT:          0 MISS:          0
cpu0_ITLB PREFETCH REQUESTED:          0 ISSUED:          0 USEFUL:          0 USELESS:          0
cpu0_ITLB AVERAGE MISS LATENCY: 9.631 cycles
cpu0_STLB TOTAL        ACCESS:    1603303 HIT:    1371592 MISS:     231711
cpu0_STLB LOAD         ACCESS:    1603303 HIT:    1371592 MISS:     231711
cpu0_STLB RFO          ACCESS:          0 HIT:          0 MISS:          0
cpu0_STLB PREFETCH     ACCESS:          0 HIT:          0 MISS:          0
cpu0_STLB WRITE        ACCESS:          0 HIT:          0 MISS:          0
cpu0_STLB TRANSLATION  ACCESS:          0 HIT:          0 MISS:          0
cpu0_STLB PREFETCH REQUESTED:          0 ISSUED:          0 USEFUL:          0 USELESS:          0
cpu0_STLB AVERAGE MISS LATENCY: 70.48 cycles

DRAM Statistics

Channel 0 RQ ROW_BUFFER_HIT:      33334
  ROW_BUFFER_MISS:     161828
 AVG DBUS CONGESTED CYCLE: 3.875
WQ ROW_BUFFER_HIT: Channel 0 
  ROW_BUFFER_MISS:      18834
  FULL:      82380
