WARNING: physical memory size is smaller than virtual memory size.

*** ChampSim Multicore Out-of-Order Simulator ***
Warmup Instructions: 25000000
Simulation Instructions: 100000000
Number of CPUs: 1
Page size: 4096

[L1D] Demand IPV: 1 2 2 1 4 Prefetch IPV: 1 2 1 1 4
[L1I] Demand IPV: 1 2 2 1 4 Prefetch IPV: 1 2 1 1 4
[L2C] Demand IPV: 1 2 2 1 4 Prefetch IPV: 1 2 1 1 4
[LLC] Demand IPV: 1 2 2 1 4 Prefetch IPV: 1 2 1 1 4
Off-chip DRAM Size: 4 GiB Channels: 1 Width: 64-bit Data Race: 3200 MT/s
Heartbeat CPU 0 instructions: 10000001 cycles: 2500102 heartbeat IPC: 4 cumulative IPC: 4 (Simulation time: 00 hr 00 min 22 sec)
Heartbeat CPU 0 instructions: 20000000 cycles: 5000139 heartbeat IPC: 4 cumulative IPC: 4 (Simulation time: 00 hr 00 min 45 sec)
Warmup finished CPU 0 instructions: 25000000 cycles: 6250140 cumulative IPC: 4 (Simulation time: 00 hr 00 min 56 sec)
Warmup complete CPU 0 instructions: 25000000 cycles: 6250140 cumulative IPC: 4 (Simulation time: 00 hr 00 min 56 sec)
Heartbeat CPU 0 instructions: 30000004 cycles: 14163018 heartbeat IPC: 1.091 cumulative IPC: 0.6319 (Simulation time: 00 hr 01 min 28 sec)
*** Reached end of trace: (0, "../traces/public_traces/srv/srv_22.champsimtrace.xz")
Heartbeat CPU 0 instructions: 40000002 cycles: 29736347 heartbeat IPC: 0.6421 cumulative IPC: 0.6387 (Simulation time: 00 hr 02 min 30 sec)
Heartbeat CPU 0 instructions: 50000000 cycles: 45429246 heartbeat IPC: 0.6372 cumulative IPC: 0.6381 (Simulation time: 00 hr 03 min 33 sec)
Heartbeat CPU 0 instructions: 60000003 cycles: 61352065 heartbeat IPC: 0.628 cumulative IPC: 0.6352 (Simulation time: 00 hr 04 min 36 sec)
*** Reached end of trace: (0, "../traces/public_traces/srv/srv_22.champsimtrace.xz")
Heartbeat CPU 0 instructions: 70000002 cycles: 76985597 heartbeat IPC: 0.6397 cumulative IPC: 0.6362 (Simulation time: 00 hr 05 min 39 sec)
Heartbeat CPU 0 instructions: 80000000 cycles: 92863373 heartbeat IPC: 0.6298 cumulative IPC: 0.635 (Simulation time: 00 hr 06 min 42 sec)
Heartbeat CPU 0 instructions: 90000002 cycles: 108492558 heartbeat IPC: 0.6398 cumulative IPC: 0.6357 (Simulation time: 00 hr 07 min 44 sec)
*** Reached end of trace: (0, "../traces/public_traces/srv/srv_22.champsimtrace.xz")
Heartbeat CPU 0 instructions: 100000001 cycles: 124159839 heartbeat IPC: 0.6383 cumulative IPC: 0.6361 (Simulation time: 00 hr 08 min 47 sec)
Heartbeat CPU 0 instructions: 110000000 cycles: 139969498 heartbeat IPC: 0.6325 cumulative IPC: 0.6357 (Simulation time: 00 hr 09 min 50 sec)
Heartbeat CPU 0 instructions: 120000000 cycles: 155635695 heartbeat IPC: 0.6383 cumulative IPC: 0.6359 (Simulation time: 00 hr 10 min 52 sec)
*** Reached end of trace: (0, "../traces/public_traces/srv/srv_22.champsimtrace.xz")
Simulation finished CPU 0 instructions: 100000001 cycles: 157332981 cumulative IPC: 0.6356 (Simulation time: 00 hr 11 min 24 sec)
Simulation complete CPU 0 instructions: 100000001 cycles: 157332981 cumulative IPC: 0.6356 (Simulation time: 00 hr 11 min 24 sec)

ChampSim completed all CPUs

=== Simulation ===
CPU 0 runs ../traces/public_traces/srv/srv_22.champsimtrace.xz
Region of Interest Statistics

CPU 0 cumulative IPC: 0.6356 instructions: 100000001 cycles: 157332981
CPU 0 Branch Prediction Accuracy: 70.43% MPKI: 52.25 Average ROB Occupancy at Mispredict: 4.197
Branch type MPKI
BRANCH_DIRECT_JUMP: 0.842
BRANCH_INDIRECT: 35.4
BRANCH_CONDITIONAL: 10.2
BRANCH_DIRECT_CALL: 2.31
BRANCH_INDIRECT_CALL: 2.15
BRANCH_RETURN: 1.43

L1D TOTAL        ACCESS:   34035676 HIT:   30892424 MISS:    3143252
L1D LOAD         ACCESS:   20894054 HIT:   19154098 MISS:    1739956
L1D RFO          ACCESS:          0 HIT:          0 MISS:          0
L1D PREFETCH     ACCESS:          0 HIT:          0 MISS:          0
L1D WRITE        ACCESS:   13136366 HIT:   11738249 MISS:    1398117
L1D TRANSLATION  ACCESS:       5256 HIT:         77 MISS:       5179
L1D PREFETCH REQUESTED:          0 ISSUED:          0 USEFUL:          0 USELESS:          0
L1D AVERAGE MISS LATENCY: 8.045 cycles
L1I TOTAL        ACCESS:   11267826 HIT:    4737821 MISS:    6530005
L1I LOAD         ACCESS:   11267826 HIT:    4737821 MISS:    6530005
L1I RFO          ACCESS:          0 HIT:          0 MISS:          0
L1I PREFETCH     ACCESS:          0 HIT:          0 MISS:          0
L1I WRITE        ACCESS:          0 HIT:          0 MISS:          0
L1I TRANSLATION  ACCESS:          0 HIT:          0 MISS:          0
L1I PREFETCH REQUESTED:          0 ISSUED:          0 USEFUL:          0 USELESS:          0
L1I AVERAGE MISS LATENCY: 9.323 cycles
L2C TOTAL        ACCESS:    8010550 HIT:    7228072 MISS:     782478
L2C LOAD         ACCESS:    6660533 HIT:    5994959 MISS:     665574
L2C RFO          ACCESS:     503965 HIT:     431121 MISS:      72844
L2C PREFETCH     ACCESS:          0 HIT:          0 MISS:          0
L2C WRITE        ACCESS:     840876 HIT:     800663 MISS:      40213
L2C TRANSLATION  ACCESS:       5176 HIT:       1329 MISS:       3847
L2C PREFETCH REQUESTED:          0 ISSUED:          0 USEFUL:          0 USELESS:          0
L2C AVERAGE MISS LATENCY: 21 cycles
LLC TOTAL        ACCESS:     852502 HIT:     843018 MISS:       9484
LLC LOAD         ACCESS:     665574 HIT:     659184 MISS:       6390
LLC RFO          ACCESS:      72844 HIT:      70290 MISS:       2554
LLC PREFETCH     ACCESS:          0 HIT:          0 MISS:          0
LLC WRITE        ACCESS:     110237 HIT:     110001 MISS:        236
LLC TRANSLATION  ACCESS:       3847 HIT:       3543 MISS:        304
LLC PREFETCH REQUESTED:          0 ISSUED:          0 USEFUL:          0 USELESS:          0
LLC AVERAGE MISS LATENCY: 166 cycles
cpu0_DTLB TOTAL        ACCESS:   27161352 HIT:   26085135 MISS:    1076217
cpu0_DTLB LOAD         ACCESS:   27161352 HIT:   26085135 MISS:    1076217
cpu0_DTLB RFO          ACCESS:          0 HIT:          0 MISS:          0
cpu0_DTLB PREFETCH     ACCESS:          0 HIT:          0 MISS:          0
cpu0_DTLB WRITE        ACCESS:          0 HIT:          0 MISS:          0
cpu0_DTLB TRANSLATION  ACCESS:          0 HIT:          0 MISS:          0
cpu0_DTLB PREFETCH REQUESTED:          0 ISSUED:          0 USEFUL:          0 USELESS:          0
cpu0_DTLB AVERAGE MISS LATENCY: 6.352 cycles
cpu0_ITLB TOTAL        ACCESS:   10045328 HIT:    8299231 MISS:    1746097
cpu0_ITLB LOAD         ACCESS:   10045328 HIT:    8299231 MISS:    1746097
cpu0_ITLB RFO          ACCESS:          0 HIT:          0 MISS:          0
cpu0_ITLB PREFETCH     ACCESS:          0 HIT:          0 MISS:          0
cpu0_ITLB WRITE        ACCESS:          0 HIT:          0 MISS:          0
cpu0_ITLB TRANSLATION  ACCESS:          0 HIT:          0 MISS:          0
cpu0_ITLB PREFETCH REQUESTED:          0 ISSUED:          0 USEFUL:          0 USELESS:          0
cpu0_ITLB AVERAGE MISS LATENCY: 3.122 cycles
cpu0_STLB TOTAL        ACCESS:    1750905 HIT:    1745952 MISS:       4953
cpu0_STLB LOAD         ACCESS:    1750905 HIT:    1745952 MISS:       4953
cpu0_STLB RFO          ACCESS:          0 HIT:          0 MISS:          0
cpu0_STLB PREFETCH     ACCESS:          0 HIT:          0 MISS:          0
cpu0_STLB WRITE        ACCESS:          0 HIT:          0 MISS:          0
cpu0_STLB TRANSLATION  ACCESS:          0 HIT:          0 MISS:          0
cpu0_STLB PREFETCH REQUESTED:          0 ISSUED:          0 USEFUL:          0 USELESS:          0
cpu0_STLB AVERAGE MISS LATENCY: 47.48 cycles

DRAM Statistics

Channel 0 RQ ROW_BUFFER_HIT:       3258
  ROW_BUFFER_MISS:       5990
 AVG DBUS CONGESTED CYCLE: 3.87
WQ ROW_BUFFER_HIT: Channel 0 
  ROW_BUFFER_MISS:         42
  FULL:       1334
