WARNING: physical memory size is smaller than virtual memory size.

*** ChampSim Multicore Out-of-Order Simulator ***
Warmup Instructions: 25000000
Simulation Instructions: 100000000
Number of CPUs: 1
Page size: 4096

[L1D] Demand IPV: 1 2 2 1 4 Prefetch IPV: 1 2 1 1 4
[L1I] Demand IPV: 1 2 2 1 4 Prefetch IPV: 1 2 1 1 4
[L2C] Demand IPV: 1 2 2 1 4 Prefetch IPV: 1 2 1 1 4
[LLC] Demand IPV: 1 2 2 1 4 Prefetch IPV: 1 2 1 1 4
Off-chip DRAM Size: 4 GiB Channels: 1 Width: 64-bit Data Race: 3200 MT/s
Heartbeat CPU 0 instructions: 10000000 cycles: 2500133 heartbeat IPC: 4 cumulative IPC: 4 (Simulation time: 00 hr 00 min 22 sec)
Heartbeat CPU 0 instructions: 20000000 cycles: 5000133 heartbeat IPC: 4 cumulative IPC: 4 (Simulation time: 00 hr 00 min 45 sec)
Warmup finished CPU 0 instructions: 25000002 cycles: 6250148 cumulative IPC: 4 (Simulation time: 00 hr 00 min 56 sec)
Warmup complete CPU 0 instructions: 25000002 cycles: 6250148 cumulative IPC: 4 (Simulation time: 00 hr 00 min 56 sec)
Heartbeat CPU 0 instructions: 30000004 cycles: 14219766 heartbeat IPC: 1.085 cumulative IPC: 0.6274 (Simulation time: 00 hr 01 min 28 sec)
*** Reached end of trace: (0, "../traces/public_traces/srv/srv_13.champsimtrace.xz")
Heartbeat CPU 0 instructions: 40000002 cycles: 29587805 heartbeat IPC: 0.6507 cumulative IPC: 0.6427 (Simulation time: 00 hr 02 min 29 sec)
Heartbeat CPU 0 instructions: 50000000 cycles: 45440389 heartbeat IPC: 0.6308 cumulative IPC: 0.6379 (Simulation time: 00 hr 03 min 31 sec)
Heartbeat CPU 0 instructions: 60000000 cycles: 61411091 heartbeat IPC: 0.6261 cumulative IPC: 0.6345 (Simulation time: 00 hr 04 min 34 sec)
*** Reached end of trace: (0, "../traces/public_traces/srv/srv_13.champsimtrace.xz")
Heartbeat CPU 0 instructions: 70000001 cycles: 76715103 heartbeat IPC: 0.6534 cumulative IPC: 0.6386 (Simulation time: 00 hr 05 min 35 sec)
Heartbeat CPU 0 instructions: 80000000 cycles: 92519586 heartbeat IPC: 0.6327 cumulative IPC: 0.6375 (Simulation time: 00 hr 06 min 38 sec)
Heartbeat CPU 0 instructions: 90000002 cycles: 108561342 heartbeat IPC: 0.6234 cumulative IPC: 0.6353 (Simulation time: 00 hr 07 min 41 sec)
*** Reached end of trace: (0, "../traces/public_traces/srv/srv_13.champsimtrace.xz")
Heartbeat CPU 0 instructions: 100000000 cycles: 124018120 heartbeat IPC: 0.647 cumulative IPC: 0.6368 (Simulation time: 00 hr 08 min 42 sec)
Heartbeat CPU 0 instructions: 110000004 cycles: 139625835 heartbeat IPC: 0.6407 cumulative IPC: 0.6373 (Simulation time: 00 hr 09 min 44 sec)
Heartbeat CPU 0 instructions: 120000003 cycles: 155732342 heartbeat IPC: 0.6209 cumulative IPC: 0.6355 (Simulation time: 00 hr 10 min 48 sec)
*** Reached end of trace: (0, "../traces/public_traces/srv/srv_13.champsimtrace.xz")
Simulation finished CPU 0 instructions: 100000004 cycles: 157199014 cumulative IPC: 0.6361 (Simulation time: 00 hr 11 min 18 sec)
Simulation complete CPU 0 instructions: 100000004 cycles: 157199014 cumulative IPC: 0.6361 (Simulation time: 00 hr 11 min 18 sec)

ChampSim completed all CPUs

=== Simulation ===
CPU 0 runs ../traces/public_traces/srv/srv_13.champsimtrace.xz
Region of Interest Statistics

CPU 0 cumulative IPC: 0.6361 instructions: 100000004 cycles: 157199014
CPU 0 Branch Prediction Accuracy: 70.42% MPKI: 52.16 Average ROB Occupancy at Mispredict: 4.27
Branch type MPKI
BRANCH_DIRECT_JUMP: 0.846
BRANCH_INDIRECT: 35.3
BRANCH_CONDITIONAL: 10.2
BRANCH_DIRECT_CALL: 2.3
BRANCH_INDIRECT_CALL: 2.13
BRANCH_RETURN: 1.42

L1D TOTAL        ACCESS:   34031488 HIT:   30887402 MISS:    3144086
L1D LOAD         ACCESS:   20891665 HIT:   19155667 MISS:    1735998
L1D RFO          ACCESS:          0 HIT:          0 MISS:          0
L1D PREFETCH     ACCESS:          0 HIT:          0 MISS:          0
L1D WRITE        ACCESS:   13134823 HIT:   11731550 MISS:    1403273
L1D TRANSLATION  ACCESS:       5000 HIT:        185 MISS:       4815
L1D PREFETCH REQUESTED:          0 ISSUED:          0 USEFUL:          0 USELESS:          0
L1D AVERAGE MISS LATENCY: 8.526 cycles
L1I TOTAL        ACCESS:   11200608 HIT:    4725349 MISS:    6475259
L1I LOAD         ACCESS:   11200608 HIT:    4725349 MISS:    6475259
L1I RFO          ACCESS:          0 HIT:          0 MISS:          0
L1I PREFETCH     ACCESS:          0 HIT:          0 MISS:          0
L1I WRITE        ACCESS:          0 HIT:          0 MISS:          0
L1I TRANSLATION  ACCESS:          0 HIT:          0 MISS:          0
L1I PREFETCH REQUESTED:          0 ISSUED:          0 USEFUL:          0 USELESS:          0
L1I AVERAGE MISS LATENCY: 9.341 cycles
L2C TOTAL        ACCESS:    7942967 HIT:    7108420 MISS:     834547
L2C LOAD         ACCESS:    6604328 HIT:    5907212 MISS:     697116
L2C RFO          ACCESS:     501342 HIT:     411843 MISS:      89499
L2C PREFETCH     ACCESS:          0 HIT:          0 MISS:          0
L2C WRITE        ACCESS:     832482 HIT:     788497 MISS:      43985
L2C TRANSLATION  ACCESS:       4815 HIT:        868 MISS:       3947
L2C PREFETCH REQUESTED:          0 ISSUED:          0 USEFUL:          0 USELESS:          0
L2C AVERAGE MISS LATENCY: 21.75 cycles
LLC TOTAL        ACCESS:     918664 HIT:     904384 MISS:      14280
LLC LOAD         ACCESS:     697116 HIT:     687494 MISS:       9622
LLC RFO          ACCESS:      89499 HIT:      85866 MISS:       3633
LLC PREFETCH     ACCESS:          0 HIT:          0 MISS:          0
LLC WRITE        ACCESS:     128102 HIT:     127529 MISS:        573
LLC TRANSLATION  ACCESS:       3947 HIT:       3495 MISS:        452
LLC PREFETCH REQUESTED:          0 ISSUED:          0 USEFUL:          0 USELESS:          0
LLC AVERAGE MISS LATENCY: 162.4 cycles
cpu0_DTLB TOTAL        ACCESS:   27184437 HIT:   26108288 MISS:    1076149
cpu0_DTLB LOAD         ACCESS:   27184437 HIT:   26108288 MISS:    1076149
cpu0_DTLB RFO          ACCESS:          0 HIT:          0 MISS:          0
cpu0_DTLB PREFETCH     ACCESS:          0 HIT:          0 MISS:          0
cpu0_DTLB WRITE        ACCESS:          0 HIT:          0 MISS:          0
cpu0_DTLB TRANSLATION  ACCESS:          0 HIT:          0 MISS:          0
cpu0_DTLB PREFETCH REQUESTED:          0 ISSUED:          0 USEFUL:          0 USELESS:          0
cpu0_DTLB AVERAGE MISS LATENCY: 6.351 cycles
cpu0_ITLB TOTAL        ACCESS:    9989405 HIT:    8264414 MISS:    1724991
cpu0_ITLB LOAD         ACCESS:    9989405 HIT:    8264414 MISS:    1724991
cpu0_ITLB RFO          ACCESS:          0 HIT:          0 MISS:          0
cpu0_ITLB PREFETCH     ACCESS:          0 HIT:          0 MISS:          0
cpu0_ITLB WRITE        ACCESS:          0 HIT:          0 MISS:          0
cpu0_ITLB TRANSLATION  ACCESS:          0 HIT:          0 MISS:          0
cpu0_ITLB PREFETCH REQUESTED:          0 ISSUED:          0 USEFUL:          0 USELESS:          0
cpu0_ITLB AVERAGE MISS LATENCY: 3.131 cycles
cpu0_STLB TOTAL        ACCESS:    1739689 HIT:    1735001 MISS:       4688
cpu0_STLB LOAD         ACCESS:    1739689 HIT:    1735001 MISS:       4688
cpu0_STLB RFO          ACCESS:          0 HIT:          0 MISS:          0
cpu0_STLB PREFETCH     ACCESS:          0 HIT:          0 MISS:          0
cpu0_STLB WRITE        ACCESS:          0 HIT:          0 MISS:          0
cpu0_STLB TRANSLATION  ACCESS:          0 HIT:          0 MISS:          0
cpu0_STLB PREFETCH REQUESTED:          0 ISSUED:          0 USEFUL:          0 USELESS:          0
cpu0_STLB AVERAGE MISS LATENCY: 55.07 cycles

DRAM Statistics

Channel 0 RQ ROW_BUFFER_HIT:       5256
  ROW_BUFFER_MISS:       8449
 AVG DBUS CONGESTED CYCLE: 3.865
WQ ROW_BUFFER_HIT: Channel 0 
  ROW_BUFFER_MISS:        139
  FULL:       2468
