WARNING: physical memory size is smaller than virtual memory size.

*** ChampSim Multicore Out-of-Order Simulator ***
Warmup Instructions: 30000000
Simulation Instructions: 100000000
Number of CPUs: 1
Page size: 4096

BTB:
Basic BTB sets: 1024 ways: 8
Indirect:
history lengths: 0 0 10 16 27 44 60 96 109 219 449 487 714 1313 2146 3881 
ITTAGE tables: 64768 bytes;Region table: 240 bytes;IUM: 384 bytes;Total Storage= 65392 bytes;
RAS:
RAS size: 64
Berti Prefetcher
CPU 0 Entangling prefetcher
Off-chip DRAM Size: 8 GiB Channels: 2 Width: 64-bit Data Race: 6400 MT/s
Heartbeat CPU 0 instructions: 10000008 cycles: 1724235 heartbeat IPC: 5.8 cumulative IPC: 5.8 (Simulation time: 00 hr 00 min 47 sec)
Heartbeat CPU 0 instructions: 20000005 cycles: 3441131 heartbeat IPC: 5.824 cumulative IPC: 5.812 (Simulation time: 00 hr 01 min 36 sec)
Heartbeat CPU 0 instructions: 30000007 cycles: 5196177 heartbeat IPC: 5.698 cumulative IPC: 5.773 (Simulation time: 00 hr 02 min 24 sec)
Warmup finished CPU 0 instructions: 30000007 cycles: 5196178 cumulative IPC: 5.773 (Simulation time: 00 hr 02 min 24 sec)
Warmup complete CPU 0 instructions: 30000007 cycles: 5196178 cumulative IPC: 5.773 (Simulation time: 00 hr 02 min 24 sec)
Heartbeat CPU 0 instructions: 40000007 cycles: 13675079 heartbeat IPC: 1.179 cumulative IPC: 1.179 (Simulation time: 00 hr 04 min 48 sec)
Heartbeat CPU 0 instructions: 50000011 cycles: 20733124 heartbeat IPC: 1.417 cumulative IPC: 1.287 (Simulation time: 00 hr 06 min 51 sec)
Heartbeat CPU 0 instructions: 60000004 cycles: 29946403 heartbeat IPC: 1.085 cumulative IPC: 1.212 (Simulation time: 00 hr 09 min 39 sec)
Heartbeat CPU 0 instructions: 70000002 cycles: 37217022 heartbeat IPC: 1.375 cumulative IPC: 1.249 (Simulation time: 00 hr 11 min 44 sec)
Heartbeat CPU 0 instructions: 80000008 cycles: 47054955 heartbeat IPC: 1.016 cumulative IPC: 1.194 (Simulation time: 00 hr 14 min 15 sec)
Heartbeat CPU 0 instructions: 90000000 cycles: 56763123 heartbeat IPC: 1.03 cumulative IPC: 1.164 (Simulation time: 00 hr 16 min 53 sec)
Heartbeat CPU 0 instructions: 100000011 cycles: 63937156 heartbeat IPC: 1.394 cumulative IPC: 1.192 (Simulation time: 00 hr 18 min 52 sec)
*** Reached end of trace: (0, "../traces/secret_traces/compute_fp/compute_fp_12.champsimtrace.xz")
Heartbeat CPU 0 instructions: 110000011 cycles: 73121568 heartbeat IPC: 1.089 cumulative IPC: 1.178 (Simulation time: 00 hr 21 min 14 sec)
Heartbeat CPU 0 instructions: 120000009 cycles: 82708543 heartbeat IPC: 1.043 cumulative IPC: 1.161 (Simulation time: 00 hr 23 min 52 sec)
Heartbeat CPU 0 instructions: 130000005 cycles: 89746917 heartbeat IPC: 1.421 cumulative IPC: 1.183 (Simulation time: 00 hr 25 min 55 sec)
Simulation finished CPU 0 instructions: 100000010 cycles: 84550741 cumulative IPC: 1.183 (Simulation time: 00 hr 25 min 55 sec)
Simulation complete CPU 0 instructions: 100000010 cycles: 84550741 cumulative IPC: 1.183 (Simulation time: 00 hr 25 min 55 sec)

ChampSim completed all CPUs

=== Simulation ===
CPU 0 runs ../traces/secret_traces/compute_fp/compute_fp_12.champsimtrace.xz
Region of Interest Statistics

CPU 0 cumulative IPC: 1.183 instructions: 100000010 cycles: 84550741
CPU 0 Branch Prediction Accuracy: 99.72% MPKI: 0.1627 Average ROB Occupancy at Mispredict: 67.41
Branch type MPKI
BRANCH_DIRECT_JUMP: 0.0111
BRANCH_INDIRECT: 0.0711
BRANCH_CONDITIONAL: 0.0447
BRANCH_DIRECT_CALL: 0.0216
BRANCH_INDIRECT_CALL: 0.00235
BRANCH_RETURN: 0.0118

LLC TOTAL        ACCESS:    3619238 HIT:     904896 MISS:    2714342
LLC LOAD         ACCESS:     325202 HIT:      22828 MISS:     302374
LLC RFO          ACCESS:     165773 HIT:       7275 MISS:     158498
LLC PREFETCH     ACCESS:    2311352 HIT:      67423 MISS:    2243929
LLC WRITE        ACCESS:     810064 HIT:     806718 MISS:       3346
LLC TRANSLATION  ACCESS:       6847 HIT:        652 MISS:       6195
LLC PREFETCH REQUESTED:          0 ISSUED:          0 USEFUL:          0 USELESS:          0
LLC AVERAGE MISS LATENCY: 579.7 cycles
cpu0_DTLB TOTAL        ACCESS:   20610945 HIT:   20365934 MISS:     245011
cpu0_DTLB LOAD         ACCESS:   20610945 HIT:   20365934 MISS:     245011
cpu0_DTLB RFO          ACCESS:          0 HIT:          0 MISS:          0
cpu0_DTLB PREFETCH     ACCESS:          0 HIT:          0 MISS:          0
cpu0_DTLB WRITE        ACCESS:          0 HIT:          0 MISS:          0
cpu0_DTLB TRANSLATION  ACCESS:          0 HIT:          0 MISS:          0
cpu0_DTLB PREFETCH REQUESTED:          0 ISSUED:          0 USEFUL:          0 USELESS:          0
cpu0_DTLB AVERAGE MISS LATENCY: 26.23 cycles
cpu0_ITLB TOTAL        ACCESS:     683589 HIT:     681840 MISS:       1749
cpu0_ITLB LOAD         ACCESS:     683589 HIT:     681840 MISS:       1749
cpu0_ITLB RFO          ACCESS:          0 HIT:          0 MISS:          0
cpu0_ITLB PREFETCH     ACCESS:          0 HIT:          0 MISS:          0
cpu0_ITLB WRITE        ACCESS:          0 HIT:          0 MISS:          0
cpu0_ITLB TRANSLATION  ACCESS:          0 HIT:          0 MISS:          0
cpu0_ITLB PREFETCH REQUESTED:          0 ISSUED:          0 USEFUL:          0 USELESS:          0
cpu0_ITLB AVERAGE MISS LATENCY: 76.32 cycles
cpu0_L1D TOTAL        ACCESS:   39056904 HIT:   26689301 MISS:   12367603
cpu0_L1D LOAD         ACCESS:   23070089 HIT:   17366455 MISS:    5703634
cpu0_L1D RFO          ACCESS:          0 HIT:          0 MISS:          0
cpu0_L1D PREFETCH     ACCESS:    8212419 HIT:    3459086 MISS:    4753333
cpu0_L1D WRITE        ACCESS:    7738188 HIT:    5849813 MISS:    1888375
cpu0_L1D TRANSLATION  ACCESS:      36208 HIT:      13947 MISS:      22261
cpu0_L1D PREFETCH REQUESTED:  131703176 ISSUED:    8212390 USEFUL:    1218705 USELESS:      67055
cpu0_L1D AVERAGE MISS LATENCY: 61.23 cycles
cpu0_L1I TOTAL        ACCESS:    1029029 HIT:     985297 MISS:      43732
cpu0_L1I LOAD         ACCESS:     471837 HIT:     458360 MISS:      13477
cpu0_L1I RFO          ACCESS:          0 HIT:          0 MISS:          0
cpu0_L1I PREFETCH     ACCESS:     557192 HIT:     526937 MISS:      30255
cpu0_L1I WRITE        ACCESS:          0 HIT:          0 MISS:          0
cpu0_L1I TRANSLATION  ACCESS:          0 HIT:          0 MISS:          0
cpu0_L1I PREFETCH REQUESTED:     819298 ISSUED:     557192 USEFUL:      17511 USELESS:      10254
cpu0_L1I AVERAGE MISS LATENCY: 173.5 cycles
cpu0_L2C TOTAL        ACCESS:   13772747 HIT:    6378989 MISS:    7393758
cpu0_L2C LOAD         ACCESS:    2185198 HIT:     992762 MISS:    1192436
cpu0_L2C RFO          ACCESS:     447128 HIT:     279451 MISS:     167677
cpu0_L2C PREFETCH     ACCESS:    9878412 HIT:    3851733 MISS:    6026679
cpu0_L2C WRITE        ACCESS:    1240154 HIT:    1240044 MISS:        110
cpu0_L2C TRANSLATION  ACCESS:      21855 HIT:      14999 MISS:       6856
cpu0_L2C PREFETCH REQUESTED:    6304564 ISSUED:    6002062 USEFUL:    1127768 USELESS:     221739
cpu0_L2C AVERAGE MISS LATENCY: 197.6 cycles
cpu0_STLB TOTAL        ACCESS:     171739 HIT:     135982 MISS:      35757
cpu0_STLB LOAD         ACCESS:     171739 HIT:     135982 MISS:      35757
cpu0_STLB RFO          ACCESS:          0 HIT:          0 MISS:          0
cpu0_STLB PREFETCH     ACCESS:          0 HIT:          0 MISS:          0
cpu0_STLB WRITE        ACCESS:          0 HIT:          0 MISS:          0
cpu0_STLB TRANSLATION  ACCESS:          0 HIT:          0 MISS:          0
cpu0_STLB PREFETCH REQUESTED:          0 ISSUED:          0 USEFUL:          0 USELESS:          0
cpu0_STLB AVERAGE MISS LATENCY: 186.2 cycles

DRAM Statistics

Channel 0 RQ ROW_BUFFER_HIT:     455094
  ROW_BUFFER_MISS:     905978
 AVG DBUS CONGESTED CYCLE: 3.96
WQ ROW_BUFFER_HIT: Channel 0 
  ROW_BUFFER_MISS:      43075
  FULL:     342435

Channel 1 RQ ROW_BUFFER_HIT:     449228
  ROW_BUFFER_MISS:     900029
 AVG DBUS CONGESTED CYCLE: 3.956
WQ ROW_BUFFER_HIT: Channel 1 
  ROW_BUFFER_MISS:      46764
  FULL:     337886
BERTI TO_L1: 42097643 TO_L2: 110415041 TO_L2_BC_MSHR: 54970840
BERTI AVG_LAT: 253.345 NUM_TRACK_LATENCY: 4514423 NUM_CANT_TRACK_LATENCY: 286
BERTI CROSS_PAGE 43333117 NO_CROSS_PAGE: 109179567
BERTI FOUND_BERTI: 30619314 NO_FOUND_BERTI: 16527353
BERTI AVERAGE_ISSUED: 3.3994
CPU 0 L1I Entangling prefetcher final stats
IP accesses: 14f9 53e40 7530 / 539254
IP misses: 44fd 113f40 1611 / 80894
IP hits: 0 0 0 / 0
IP late: 4232 108c80 17 / 6648
IP wrong: 5aef 16bbc0 27 / 10194
miss rate: 0.150011
coverage: 0
coverage_late: 0.0821817
accuracy: 0
accuracy_late: 0.394728
discarded: 0
evicts entangled j table: 0
evicts entangled k table: 1707
max bb size: 65
formats: 515 0 1407 769 390 809 0 
hist_lookups: 1232 1334 1143 973 875 717 591 469 358 285 201 130 84 48 40 0 27 4234 
hist_lookups_evict: 0.211915 %
hist_lookups_shortlat: 33.2314 %
bb_found_hist: 0 46720 16361 8882 6616 3733 4172 1865 842 1392 1586 279 183 8 828 804 17 2006 0 240 243 0 0 0 240 0 237 480 0 0 0 0 0 0 0 0 3 474 0 6 0 6 4 0 0 0 0 0 0 0 2 0 0 0 0 0 0 0 0 0 0 0 0 0 
bb_found_summary: 340519 98229 3.46659
entangled_found_hist: 0 25097 13811 14190 3497 2228 58 0 
entangled_found_summary: 120765 58881 2.05101
bb_ent_found_hist: 0 32954 17348 8290 6130 4176 2478 2114 3235 3675 2418 353 168 99 944 724 0 560 0 690 33 0 0 3 242 0 493 1991 0 0 0 0 0 0 0 0 3 0 0 6 0 0 0 0 0 0 0 0 0 0 6 0 0 0 0 0 0 0 0 0 0 0 0 0 
bb_ent_found_summary: 378367 89133 4.24498
