WARNING: physical memory size is smaller than virtual memory size.

*** ChampSim Multicore Out-of-Order Simulator ***
Warmup Instructions: 30000000
Simulation Instructions: 100000000
Number of CPUs: 1
Page size: 4096

BTB:
Basic BTB sets: 1024 ways: 8
Indirect:
history lengths: 0 0 10 16 27 44 60 96 109 219 449 487 714 1313 2146 3881 
ITTAGE tables: 64768 bytes;Region table: 240 bytes;IUM: 384 bytes;Total Storage= 65392 bytes;
RAS:
RAS size: 64
Berti Prefetcher
CPU 0 Entangling prefetcher
Off-chip DRAM Size: 8 GiB Channels: 2 Width: 64-bit Data Race: 6400 MT/s
Heartbeat CPU 0 instructions: 10000007 cycles: 1770278 heartbeat IPC: 5.649 cumulative IPC: 5.649 (Simulation time: 00 hr 00 min 48 sec)
Heartbeat CPU 0 instructions: 20000001 cycles: 3511154 heartbeat IPC: 5.744 cumulative IPC: 5.696 (Simulation time: 00 hr 01 min 37 sec)
Heartbeat CPU 0 instructions: 30000007 cycles: 5195451 heartbeat IPC: 5.937 cumulative IPC: 5.774 (Simulation time: 00 hr 02 min 30 sec)
Warmup finished CPU 0 instructions: 30000007 cycles: 5195452 cumulative IPC: 5.774 (Simulation time: 00 hr 02 min 30 sec)
Warmup complete CPU 0 instructions: 30000007 cycles: 5195452 cumulative IPC: 5.774 (Simulation time: 00 hr 02 min 30 sec)
Heartbeat CPU 0 instructions: 40000000 cycles: 18736773 heartbeat IPC: 0.7385 cumulative IPC: 0.7385 (Simulation time: 00 hr 05 min 42 sec)
Heartbeat CPU 0 instructions: 50000003 cycles: 32258222 heartbeat IPC: 0.7396 cumulative IPC: 0.739 (Simulation time: 00 hr 08 min 55 sec)
Heartbeat CPU 0 instructions: 60000007 cycles: 45785904 heartbeat IPC: 0.7392 cumulative IPC: 0.7391 (Simulation time: 00 hr 12 min 07 sec)
Heartbeat CPU 0 instructions: 70000009 cycles: 59315669 heartbeat IPC: 0.7391 cumulative IPC: 0.7391 (Simulation time: 00 hr 15 min 22 sec)
Heartbeat CPU 0 instructions: 80000006 cycles: 72824625 heartbeat IPC: 0.7402 cumulative IPC: 0.7393 (Simulation time: 00 hr 18 min 33 sec)
Heartbeat CPU 0 instructions: 90000001 cycles: 86309455 heartbeat IPC: 0.7416 cumulative IPC: 0.7397 (Simulation time: 00 hr 21 min 52 sec)
Heartbeat CPU 0 instructions: 100000001 cycles: 99820925 heartbeat IPC: 0.7401 cumulative IPC: 0.7398 (Simulation time: 00 hr 25 min 05 sec)
*** Reached end of trace: (0, "../traces/secret_traces/compute_fp/compute_fp_130.champsimtrace.xz")
Heartbeat CPU 0 instructions: 110000002 cycles: 111520087 heartbeat IPC: 0.8548 cumulative IPC: 0.7524 (Simulation time: 00 hr 28 min 15 sec)
Heartbeat CPU 0 instructions: 120000001 cycles: 130117774 heartbeat IPC: 0.5377 cumulative IPC: 0.7204 (Simulation time: 00 hr 33 min 02 sec)
Heartbeat CPU 0 instructions: 130000002 cycles: 151791017 heartbeat IPC: 0.4614 cumulative IPC: 0.6821 (Simulation time: 00 hr 39 min 21 sec)
Simulation finished CPU 0 instructions: 100000007 cycles: 146595567 cumulative IPC: 0.6821 (Simulation time: 00 hr 39 min 21 sec)
Simulation complete CPU 0 instructions: 100000007 cycles: 146595567 cumulative IPC: 0.6821 (Simulation time: 00 hr 39 min 21 sec)

ChampSim completed all CPUs

=== Simulation ===
CPU 0 runs ../traces/secret_traces/compute_fp/compute_fp_130.champsimtrace.xz
Region of Interest Statistics

CPU 0 cumulative IPC: 0.6821 instructions: 100000007 cycles: 146595567
CPU 0 Branch Prediction Accuracy: 99.34% MPKI: 0.1347 Average ROB Occupancy at Mispredict: 31.34
Branch type MPKI
BRANCH_DIRECT_JUMP: 0.00729
BRANCH_INDIRECT: 0.0661
BRANCH_CONDITIONAL: 0.0271
BRANCH_DIRECT_CALL: 0.0206
BRANCH_INDIRECT_CALL: 0.00232
BRANCH_RETURN: 0.0113

LLC TOTAL        ACCESS:    5704234 HIT:     626012 MISS:    5078222
LLC LOAD         ACCESS:    1430220 HIT:        848 MISS:    1429372
LLC RFO          ACCESS:     103648 HIT:       6160 MISS:      97488
LLC PREFETCH     ACCESS:    3553090 HIT:       3861 MISS:    3549229
LLC WRITE        ACCESS:     614938 HIT:     614854 MISS:         84
LLC TRANSLATION  ACCESS:       2338 HIT:        289 MISS:       2049
LLC PREFETCH REQUESTED:          0 ISSUED:          0 USEFUL:          0 USELESS:          0
LLC AVERAGE MISS LATENCY: 519.6 cycles
cpu0_DTLB TOTAL        ACCESS:   16417954 HIT:   14267872 MISS:    2150082
cpu0_DTLB LOAD         ACCESS:   16417954 HIT:   14267872 MISS:    2150082
cpu0_DTLB RFO          ACCESS:          0 HIT:          0 MISS:          0
cpu0_DTLB PREFETCH     ACCESS:          0 HIT:          0 MISS:          0
cpu0_DTLB WRITE        ACCESS:          0 HIT:          0 MISS:          0
cpu0_DTLB TRANSLATION  ACCESS:          0 HIT:          0 MISS:          0
cpu0_DTLB PREFETCH REQUESTED:          0 ISSUED:          0 USEFUL:          0 USELESS:          0
cpu0_DTLB AVERAGE MISS LATENCY: 7.146 cycles
cpu0_ITLB TOTAL        ACCESS:     117689 HIT:     116143 MISS:       1546
cpu0_ITLB LOAD         ACCESS:     117689 HIT:     116143 MISS:       1546
cpu0_ITLB RFO          ACCESS:          0 HIT:          0 MISS:          0
cpu0_ITLB PREFETCH     ACCESS:          0 HIT:          0 MISS:          0
cpu0_ITLB WRITE        ACCESS:          0 HIT:          0 MISS:          0
cpu0_ITLB TRANSLATION  ACCESS:          0 HIT:          0 MISS:          0
cpu0_ITLB PREFETCH REQUESTED:          0 ISSUED:          0 USEFUL:          0 USELESS:          0
cpu0_ITLB AVERAGE MISS LATENCY: 50.12 cycles
cpu0_L1D TOTAL        ACCESS:   24777935 HIT:   10407677 MISS:   14370258
cpu0_L1D LOAD         ACCESS:   18221664 HIT:    6259693 MISS:   11961971
cpu0_L1D RFO          ACCESS:          0 HIT:          0 MISS:          0
cpu0_L1D PREFETCH     ACCESS:    2342475 HIT:     424189 MISS:    1918286
cpu0_L1D WRITE        ACCESS:    4135553 HIT:    3678273 MISS:     457280
cpu0_L1D TRANSLATION  ACCESS:      78243 HIT:      45522 MISS:      32721
cpu0_L1D PREFETCH REQUESTED:  139962121 ISSUED:    2342475 USEFUL:     163651 USELESS:        241
cpu0_L1D AVERAGE MISS LATENCY: 86.89 cycles
cpu0_L1I TOTAL        ACCESS:     170472 HIT:     134170 MISS:      36302
cpu0_L1I LOAD         ACCESS:      59727 HIT:      48348 MISS:      11379
cpu0_L1I RFO          ACCESS:          0 HIT:          0 MISS:          0
cpu0_L1I PREFETCH     ACCESS:     110745 HIT:      85822 MISS:      24923
cpu0_L1I WRITE        ACCESS:          0 HIT:          0 MISS:          0
cpu0_L1I TRANSLATION  ACCESS:          0 HIT:          0 MISS:          0
cpu0_L1I PREFETCH REQUESTED:     165340 ISSUED:     110745 USEFUL:      13515 USELESS:       9182
cpu0_L1I AVERAGE MISS LATENCY: 96.69 cycles
cpu0_L2C TOTAL        ACCESS:   12810551 HIT:    2192169 MISS:   10618382
cpu0_L2C LOAD         ACCESS:    4958027 HIT:     758957 MISS:    4199070
cpu0_L2C RFO          ACCESS:     106721 HIT:       3055 MISS:     103666
cpu0_L2C PREFETCH     ACCESS:    7093709 HIT:     780402 MISS:    6313307
cpu0_L2C WRITE        ACCESS:     619396 HIT:     619395 MISS:          1
cpu0_L2C TRANSLATION  ACCESS:      32698 HIT:      30360 MISS:       2338
cpu0_L2C PREFETCH REQUESTED:    6326461 ISSUED:    5794591 USEFUL:    3099590 USELESS:      39418
cpu0_L2C AVERAGE MISS LATENCY: 200 cycles
cpu0_STLB TOTAL        ACCESS:    1330873 HIT:    1253016 MISS:      77857
cpu0_STLB LOAD         ACCESS:    1330873 HIT:    1253016 MISS:      77857
cpu0_STLB RFO          ACCESS:          0 HIT:          0 MISS:          0
cpu0_STLB PREFETCH     ACCESS:          0 HIT:          0 MISS:          0
cpu0_STLB WRITE        ACCESS:          0 HIT:          0 MISS:          0
cpu0_STLB TRANSLATION  ACCESS:          0 HIT:          0 MISS:          0
cpu0_STLB PREFETCH REQUESTED:          0 ISSUED:          0 USEFUL:          0 USELESS:          0
cpu0_STLB AVERAGE MISS LATENCY: 170.5 cycles

DRAM Statistics

Channel 0 RQ ROW_BUFFER_HIT:    1530883
  ROW_BUFFER_MISS:    1015200
 AVG DBUS CONGESTED CYCLE: 3.967
WQ ROW_BUFFER_HIT: Channel 0 
  ROW_BUFFER_MISS:      61377
  FULL:     243520

Channel 1 RQ ROW_BUFFER_HIT:    1535194
  ROW_BUFFER_MISS:     996823
 AVG DBUS CONGESTED CYCLE: 3.959
WQ ROW_BUFFER_HIT: Channel 1 
  ROW_BUFFER_MISS:      67778
  FULL:     236615
BERTI TO_L1: 17854558 TO_L2: 159332176 TO_L2_BC_MSHR: 44353234
BERTI AVG_LAT: 284.266 NUM_TRACK_LATENCY: 7164370 NUM_CANT_TRACK_LATENCY: 24
BERTI CROSS_PAGE 43918084 NO_CROSS_PAGE: 133268650
BERTI FOUND_BERTI: 62876999 NO_FOUND_BERTI: 27023913
BERTI AVERAGE_ISSUED: 2.27375
CPU 0 L1I Entangling prefetcher final stats
IP accesses: ea89 3aa240 1245 / 80701
IP misses: ea89 3aa240 1155 / 32353
IP hits: 0 0 0 / 0
IP late: 1526 54980 12 / 5814
IP wrong: ea8a 3aa280 22 / 9127
miss rate: 0.4009
coverage: 0
coverage_late: 0.179706
accuracy: 0
accuracy_late: 0.389131
discarded: 0
evicts entangled j table: 0
evicts entangled k table: 1564
max bb size: 65
formats: 428 0 1350 722 314 726 0 
hist_lookups: 1192 1246 999 884 795 630 482 387 363 287 177 115 91 44 15 0 21 4120 
hist_lookups_evict: 0.177246 %
hist_lookups_shortlat: 34.7739 %
bb_found_hist: 0 14390 6178 2866 1015 678 244 78 67 34 27 4 14 0 3 1 17 0 0 0 0 2 0 0 0 0 0 0 0 0 0 0 0 0 0 0 0 0 0 0 0 0 0 0 0 0 0 0 0 2 0 0 0 0 0 0 0 0 0 0 0 0 0 0 
bb_found_summary: 46597 25620 1.81878
entangled_found_hist: 0 8535 5215 8945 1843 517 71 0 
entangled_found_summary: 56183 25126 2.23606
bb_ent_found_hist: 0 19158 10246 5521 1925 1409 638 215 137 5 66 0 5 0 0 1 0 0 0 0 0 11 0 0 0 0 0 0 0 0 0 0 0 0 0 0 0 0 0 0 0 0 0 0 0 0 0 0 0 3 0 0 0 0 0 0 0 0 0 0 0 0 0 0 
bb_ent_found_summary: 78545 39340 1.99657
