WARNING: physical memory size is smaller than virtual memory size.

*** ChampSim Multicore Out-of-Order Simulator ***
Warmup Instructions: 30000000
Simulation Instructions: 100000000
Number of CPUs: 1
Page size: 4096

BTB:
Basic BTB sets: 1024 ways: 8
Indirect:
history lengths: 0 0 10 16 27 44 60 96 109 219 449 487 714 1313 2146 3881 
ITTAGE tables: 64768 bytes;Region table: 240 bytes;IUM: 384 bytes;Total Storage= 65392 bytes;
RAS:
RAS size: 64
Berti Prefetcher
CPU 0 Entangling prefetcher
Off-chip DRAM Size: 8 GiB Channels: 2 Width: 64-bit Data Race: 6400 MT/s
Heartbeat CPU 0 instructions: 10000006 cycles: 1717401 heartbeat IPC: 5.823 cumulative IPC: 5.823 (Simulation time: 00 hr 00 min 34 sec)
Heartbeat CPU 0 instructions: 20000000 cycles: 3384852 heartbeat IPC: 5.997 cumulative IPC: 5.909 (Simulation time: 00 hr 01 min 10 sec)
Heartbeat CPU 0 instructions: 30000004 cycles: 5052417 heartbeat IPC: 5.997 cumulative IPC: 5.938 (Simulation time: 00 hr 01 min 44 sec)
Warmup finished CPU 0 instructions: 30000004 cycles: 5052418 cumulative IPC: 5.938 (Simulation time: 00 hr 01 min 44 sec)
Warmup complete CPU 0 instructions: 30000004 cycles: 5052418 cumulative IPC: 5.938 (Simulation time: 00 hr 01 min 44 sec)
Heartbeat CPU 0 instructions: 40000011 cycles: 6723554 heartbeat IPC: 5.984 cumulative IPC: 5.984 (Simulation time: 00 hr 02 min 25 sec)
Heartbeat CPU 0 instructions: 50000011 cycles: 8426911 heartbeat IPC: 5.871 cumulative IPC: 5.927 (Simulation time: 00 hr 03 min 04 sec)
Heartbeat CPU 0 instructions: 60000009 cycles: 10096346 heartbeat IPC: 5.99 cumulative IPC: 5.948 (Simulation time: 00 hr 03 min 40 sec)
Heartbeat CPU 0 instructions: 70000000 cycles: 11797197 heartbeat IPC: 5.879 cumulative IPC: 5.931 (Simulation time: 00 hr 04 min 17 sec)
Heartbeat CPU 0 instructions: 80000001 cycles: 13467247 heartbeat IPC: 5.988 cumulative IPC: 5.942 (Simulation time: 00 hr 04 min 53 sec)
Heartbeat CPU 0 instructions: 90000005 cycles: 15190018 heartbeat IPC: 5.805 cumulative IPC: 5.919 (Simulation time: 00 hr 05 min 30 sec)
Heartbeat CPU 0 instructions: 100000000 cycles: 16859666 heartbeat IPC: 5.989 cumulative IPC: 5.929 (Simulation time: 00 hr 06 min 06 sec)
*** Reached end of trace: (0, "../traces/secret_traces/compute_fp/compute_fp_35.champsimtrace.xz")
Heartbeat CPU 0 instructions: 110000009 cycles: 19279141 heartbeat IPC: 4.133 cumulative IPC: 5.623 (Simulation time: 00 hr 06 min 49 sec)
Heartbeat CPU 0 instructions: 120000002 cycles: 20987442 heartbeat IPC: 5.854 cumulative IPC: 5.648 (Simulation time: 00 hr 07 min 29 sec)
Heartbeat CPU 0 instructions: 130000010 cycles: 22676816 heartbeat IPC: 5.919 cumulative IPC: 5.674 (Simulation time: 00 hr 08 min 05 sec)
Simulation finished CPU 0 instructions: 100000006 cycles: 17624399 cumulative IPC: 5.674 (Simulation time: 00 hr 08 min 05 sec)
Simulation complete CPU 0 instructions: 100000006 cycles: 17624399 cumulative IPC: 5.674 (Simulation time: 00 hr 08 min 05 sec)

ChampSim completed all CPUs

=== Simulation ===
CPU 0 runs ../traces/secret_traces/compute_fp/compute_fp_35.champsimtrace.xz
Region of Interest Statistics

CPU 0 cumulative IPC: 5.674 instructions: 100000006 cycles: 17624399
CPU 0 Branch Prediction Accuracy: 99.21% MPKI: 0.1781 Average ROB Occupancy at Mispredict: 46.4
Branch type MPKI
BRANCH_DIRECT_JUMP: 0.00743
BRANCH_INDIRECT: 0.0678
BRANCH_CONDITIONAL: 0.0691
BRANCH_DIRECT_CALL: 0.0202
BRANCH_INDIRECT_CALL: 0.00234
BRANCH_RETURN: 0.0112

LLC TOTAL        ACCESS:      92272 HIT:      66140 MISS:      26132
LLC LOAD         ACCESS:      13321 HIT:       7711 MISS:       5610
LLC RFO          ACCESS:      26280 HIT:      16982 MISS:       9298
LLC PREFETCH     ACCESS:      20617 HIT:       9759 MISS:      10858
LLC WRITE        ACCESS:      31724 HIT:      31641 MISS:         83
LLC TRANSLATION  ACCESS:        330 HIT:         47 MISS:        283
LLC PREFETCH REQUESTED:          0 ISSUED:          0 USEFUL:          0 USELESS:          0
LLC AVERAGE MISS LATENCY: 221.9 cycles
cpu0_DTLB TOTAL        ACCESS:   16115708 HIT:   16107576 MISS:       8132
cpu0_DTLB LOAD         ACCESS:   16115708 HIT:   16107576 MISS:       8132
cpu0_DTLB RFO          ACCESS:          0 HIT:          0 MISS:          0
cpu0_DTLB PREFETCH     ACCESS:          0 HIT:          0 MISS:          0
cpu0_DTLB WRITE        ACCESS:          0 HIT:          0 MISS:          0
cpu0_DTLB TRANSLATION  ACCESS:          0 HIT:          0 MISS:          0
cpu0_DTLB PREFETCH REQUESTED:          0 ISSUED:          0 USEFUL:          0 USELESS:          0
cpu0_DTLB AVERAGE MISS LATENCY: 10.91 cycles
cpu0_ITLB TOTAL        ACCESS:     212776 HIT:     211260 MISS:       1516
cpu0_ITLB LOAD         ACCESS:     212776 HIT:     211260 MISS:       1516
cpu0_ITLB RFO          ACCESS:          0 HIT:          0 MISS:          0
cpu0_ITLB PREFETCH     ACCESS:          0 HIT:          0 MISS:          0
cpu0_ITLB WRITE        ACCESS:          0 HIT:          0 MISS:          0
cpu0_ITLB TRANSLATION  ACCESS:          0 HIT:          0 MISS:          0
cpu0_ITLB PREFETCH REQUESTED:          0 ISSUED:          0 USEFUL:          0 USELESS:          0
cpu0_ITLB AVERAGE MISS LATENCY: 11.04 cycles
cpu0_L1D TOTAL        ACCESS:   31478640 HIT:   31278052 MISS:     200588
cpu0_L1D LOAD         ACCESS:   30134751 HIT:   30090415 MISS:      44336
cpu0_L1D RFO          ACCESS:          0 HIT:          0 MISS:          0
cpu0_L1D PREFETCH     ACCESS:     480363 HIT:     401106 MISS:      79257
cpu0_L1D WRITE        ACCESS:     863067 HIT:     786475 MISS:      76592
cpu0_L1D TRANSLATION  ACCESS:        459 HIT:         56 MISS:        403
cpu0_L1D PREFETCH REQUESTED:    1049921 ISSUED:     480363 USEFUL:       3070 USELESS:        777
cpu0_L1D AVERAGE MISS LATENCY: 26.81 cycles
cpu0_L1I TOTAL        ACCESS:     310448 HIT:     273841 MISS:      36607
cpu0_L1I LOAD         ACCESS:     145042 HIT:     132893 MISS:      12149
cpu0_L1I RFO          ACCESS:          0 HIT:          0 MISS:          0
cpu0_L1I PREFETCH     ACCESS:     165406 HIT:     140948 MISS:      24458
cpu0_L1I WRITE        ACCESS:          0 HIT:          0 MISS:          0
cpu0_L1I TRANSLATION  ACCESS:          0 HIT:          0 MISS:          0
cpu0_L1I PREFETCH REQUESTED:     316578 ISSUED:     165406 USEFUL:      13588 USELESS:       9232
cpu0_L1I AVERAGE MISS LATENCY: 25.01 cycles
cpu0_L2C TOTAL        ACCESS:     328048 HIT:     246306 MISS:      81742
cpu0_L2C LOAD         ACCESS:      35431 HIT:      20117 MISS:      15314
cpu0_L2C RFO          ACCESS:      31062 HIT:       4770 MISS:      26292
cpu0_L2C PREFETCH     ACCESS:     222175 HIT:     182369 MISS:      39806
cpu0_L2C WRITE        ACCESS:      38979 HIT:      38979 MISS:          0
cpu0_L2C TRANSLATION  ACCESS:        401 HIT:         71 MISS:        330
cpu0_L2C PREFETCH REQUESTED:     131082 ISSUED:     126524 USEFUL:       6205 USELESS:       4254
cpu0_L2C AVERAGE MISS LATENCY: 85.09 cycles
cpu0_STLB TOTAL        ACCESS:       4269 HIT:       3871 MISS:        398
cpu0_STLB LOAD         ACCESS:       4269 HIT:       3871 MISS:        398
cpu0_STLB RFO          ACCESS:          0 HIT:          0 MISS:          0
cpu0_STLB PREFETCH     ACCESS:          0 HIT:          0 MISS:          0
cpu0_STLB WRITE        ACCESS:          0 HIT:          0 MISS:          0
cpu0_STLB TRANSLATION  ACCESS:          0 HIT:          0 MISS:          0
cpu0_STLB PREFETCH REQUESTED:          0 ISSUED:          0 USEFUL:          0 USELESS:          0
cpu0_STLB AVERAGE MISS LATENCY: 242.5 cycles

DRAM Statistics

Channel 0 RQ ROW_BUFFER_HIT:       5630
  ROW_BUFFER_MISS:       7700
 AVG DBUS CONGESTED CYCLE: 3.915
WQ ROW_BUFFER_HIT: Channel 0 
  ROW_BUFFER_MISS:       1042
  FULL:       5271

Channel 1 RQ ROW_BUFFER_HIT:       5326
  ROW_BUFFER_MISS:       7354
 AVG DBUS CONGESTED CYCLE: 3.895
WQ ROW_BUFFER_HIT: Channel 1 
  ROW_BUFFER_MISS:       1043
  FULL:       4828
BERTI TO_L1: 254561 TO_L2: 1144237 TO_L2_BC_MSHR: 305140
BERTI AVG_LAT: 45.1719 NUM_TRACK_LATENCY: 57322 NUM_CANT_TRACK_LATENCY: 0
BERTI CROSS_PAGE 278996 NO_CROSS_PAGE: 1119802
BERTI FOUND_BERTI: 594953 NO_FOUND_BERTI: 38953477
BERTI AVERAGE_ISSUED: 2.88402
CPU 0 L1I Entangling prefetcher final stats
IP accesses: 3c1e f0780 5782 / 145554
IP misses: c6a 31a80 55 / 12661
IP hits: 0 0 0 / 0
IP late: 2fa6 be980 16 / 5990
IP wrong: 2172 85c80 21 / 9159
miss rate: 0.0869849
coverage: 0
coverage_late: 0.473107
accuracy: 0
accuracy_late: 0.395406
discarded: 0
evicts entangled j table: 0
evicts entangled k table: 1862
max bb size: 42
formats: 476 0 1508 782 348 702 0 
hist_lookups: 1178 1415 1251 1125 939 817 641 449 343 265 242 145 87 34 15 0 15 2863 
hist_lookups_evict: 0.126861 %
hist_lookups_shortlat: 24.2135 %
bb_found_hist: 0 24184 8272 3863 3986 1161 644 502 211 11 11 4 12 3 22 2 136 0 0 0 0 0 136 0 0 0 0 0 0 0 0 0 0 0 0 0 0 0 0 0 0 0 0 0 0 0 0 0 0 0 0 0 0 0 0 0 0 0 0 0 0 0 0 0 
bb_found_summary: 89074 43160 2.06381
entangled_found_hist: 0 12930 6914 15433 6216 486 53 0 
entangled_found_summary: 100669 42032 2.39506
bb_ent_found_hist: 0 24479 18603 9408 3672 2010 1499 873 657 5 20 0 0 11 2 0 142 0 0 0 0 0 297 0 0 0 0 0 0 0 0 0 0 0 0 0 0 0 0 0 0 0 2 0 0 0 0 0 0 0 0 0 0 0 0 0 0 0 0 0 0 0 0 0 
bb_ent_found_summary: 144314 61680 2.33973
