WARNING: physical memory size is smaller than virtual memory size.

*** ChampSim Multicore Out-of-Order Simulator ***
Warmup Instructions: 30000000
Simulation Instructions: 100000000
Number of CPUs: 1
Page size: 4096

BTB:
Basic BTB sets: 1024 ways: 8
Indirect:
history lengths: 0 0 10 16 27 44 60 96 109 219 449 487 714 1313 2146 3881 
ITTAGE tables: 64768 bytes;Region table: 240 bytes;IUM: 384 bytes;Total Storage= 65392 bytes;
RAS:
RAS size: 64
Berti Prefetcher
CPU 0 Entangling prefetcher
Off-chip DRAM Size: 8 GiB Channels: 2 Width: 64-bit Data Race: 6400 MT/s
Heartbeat CPU 0 instructions: 10000004 cycles: 1719827 heartbeat IPC: 5.815 cumulative IPC: 5.815 (Simulation time: 00 hr 00 min 38 sec)
Heartbeat CPU 0 instructions: 20000011 cycles: 3389506 heartbeat IPC: 5.989 cumulative IPC: 5.901 (Simulation time: 00 hr 01 min 16 sec)
Heartbeat CPU 0 instructions: 30000003 cycles: 5060244 heartbeat IPC: 5.985 cumulative IPC: 5.929 (Simulation time: 00 hr 01 min 54 sec)
Warmup finished CPU 0 instructions: 30000003 cycles: 5060245 cumulative IPC: 5.929 (Simulation time: 00 hr 01 min 54 sec)
Warmup complete CPU 0 instructions: 30000003 cycles: 5060245 cumulative IPC: 5.929 (Simulation time: 00 hr 01 min 54 sec)
Heartbeat CPU 0 instructions: 40000003 cycles: 6804831 heartbeat IPC: 5.732 cumulative IPC: 5.732 (Simulation time: 00 hr 02 min 37 sec)
Heartbeat CPU 0 instructions: 50000000 cycles: 8612161 heartbeat IPC: 5.533 cumulative IPC: 5.631 (Simulation time: 00 hr 03 min 23 sec)
Heartbeat CPU 0 instructions: 60000002 cycles: 10589268 heartbeat IPC: 5.058 cumulative IPC: 5.426 (Simulation time: 00 hr 04 min 15 sec)
Heartbeat CPU 0 instructions: 70000004 cycles: 12520366 heartbeat IPC: 5.178 cumulative IPC: 5.362 (Simulation time: 00 hr 05 min 06 sec)
Heartbeat CPU 0 instructions: 80000005 cycles: 14387845 heartbeat IPC: 5.355 cumulative IPC: 5.36 (Simulation time: 00 hr 05 min 56 sec)
Heartbeat CPU 0 instructions: 90000001 cycles: 16290851 heartbeat IPC: 5.255 cumulative IPC: 5.343 (Simulation time: 00 hr 06 min 42 sec)
Heartbeat CPU 0 instructions: 100000001 cycles: 18215904 heartbeat IPC: 5.195 cumulative IPC: 5.321 (Simulation time: 00 hr 07 min 27 sec)
*** Reached end of trace: (0, "../traces/secret_traces/compute_fp/compute_fp_39.champsimtrace.xz")
Heartbeat CPU 0 instructions: 110000003 cycles: 21057450 heartbeat IPC: 3.519 cumulative IPC: 5.001 (Simulation time: 00 hr 08 min 20 sec)
Heartbeat CPU 0 instructions: 120000009 cycles: 22823301 heartbeat IPC: 5.663 cumulative IPC: 5.067 (Simulation time: 00 hr 09 min 04 sec)
Heartbeat CPU 0 instructions: 130000002 cycles: 24708643 heartbeat IPC: 5.304 cumulative IPC: 5.089 (Simulation time: 00 hr 09 min 49 sec)
Simulation finished CPU 0 instructions: 100000000 cycles: 19648400 cumulative IPC: 5.089 (Simulation time: 00 hr 09 min 49 sec)
Simulation complete CPU 0 instructions: 100000000 cycles: 19648400 cumulative IPC: 5.089 (Simulation time: 00 hr 09 min 49 sec)

ChampSim completed all CPUs

=== Simulation ===
CPU 0 runs ../traces/secret_traces/compute_fp/compute_fp_39.champsimtrace.xz
Region of Interest Statistics

CPU 0 cumulative IPC: 5.089 instructions: 100000000 cycles: 19648400
CPU 0 Branch Prediction Accuracy: 99.28% MPKI: 1.215 Average ROB Occupancy at Mispredict: 47.03
Branch type MPKI
BRANCH_DIRECT_JUMP: 0.306
BRANCH_INDIRECT: 0.221
BRANCH_CONDITIONAL: 0.596
BRANCH_DIRECT_CALL: 0.0222
BRANCH_INDIRECT_CALL: 0.0572
BRANCH_RETURN: 0.0126

LLC TOTAL        ACCESS:      90770 HIT:      58359 MISS:      32411
LLC LOAD         ACCESS:      14306 HIT:       6403 MISS:       7903
LLC RFO          ACCESS:      27242 HIT:      13515 MISS:      13727
LLC PREFETCH     ACCESS:      19276 HIT:       8761 MISS:      10515
LLC WRITE        ACCESS:      29720 HIT:      29640 MISS:         80
LLC TRANSLATION  ACCESS:        226 HIT:         40 MISS:        186
LLC PREFETCH REQUESTED:          0 ISSUED:          0 USEFUL:          0 USELESS:          0
LLC AVERAGE MISS LATENCY: 232.5 cycles
cpu0_DTLB TOTAL        ACCESS:   16733687 HIT:   16524140 MISS:     209547
cpu0_DTLB LOAD         ACCESS:   16733687 HIT:   16524140 MISS:     209547
cpu0_DTLB RFO          ACCESS:          0 HIT:          0 MISS:          0
cpu0_DTLB PREFETCH     ACCESS:          0 HIT:          0 MISS:          0
cpu0_DTLB WRITE        ACCESS:          0 HIT:          0 MISS:          0
cpu0_DTLB TRANSLATION  ACCESS:          0 HIT:          0 MISS:          0
cpu0_DTLB PREFETCH REQUESTED:          0 ISSUED:          0 USEFUL:          0 USELESS:          0
cpu0_DTLB AVERAGE MISS LATENCY: 2.477 cycles
cpu0_ITLB TOTAL        ACCESS:    5385531 HIT:    5383752 MISS:       1779
cpu0_ITLB LOAD         ACCESS:    5385531 HIT:    5383752 MISS:       1779
cpu0_ITLB RFO          ACCESS:          0 HIT:          0 MISS:          0
cpu0_ITLB PREFETCH     ACCESS:          0 HIT:          0 MISS:          0
cpu0_ITLB WRITE        ACCESS:          0 HIT:          0 MISS:          0
cpu0_ITLB TRANSLATION  ACCESS:          0 HIT:          0 MISS:          0
cpu0_ITLB PREFETCH REQUESTED:          0 ISSUED:          0 USEFUL:          0 USELESS:          0
cpu0_ITLB AVERAGE MISS LATENCY: 9.642 cycles
cpu0_L1D TOTAL        ACCESS:   29167802 HIT:   27748441 MISS:    1419361
cpu0_L1D LOAD         ACCESS:   19086328 HIT:   18078904 MISS:    1007424
cpu0_L1D RFO          ACCESS:          0 HIT:          0 MISS:          0
cpu0_L1D PREFETCH     ACCESS:      67292 HIT:      53080 MISS:      14212
cpu0_L1D WRITE        ACCESS:   10013833 HIT:    9616400 MISS:     397433
cpu0_L1D TRANSLATION  ACCESS:        349 HIT:         57 MISS:        292
cpu0_L1D PREFETCH REQUESTED:     851242 ISSUED:      67292 USEFUL:       1665 USELESS:        180
cpu0_L1D AVERAGE MISS LATENCY: 8.2 cycles
cpu0_L1I TOTAL        ACCESS:    8276463 HIT:    7929370 MISS:     347093
cpu0_L1I LOAD         ACCESS:    2593423 HIT:    2424747 MISS:     168676
cpu0_L1I RFO          ACCESS:          0 HIT:          0 MISS:          0
cpu0_L1I PREFETCH     ACCESS:    5683040 HIT:    5504623 MISS:     178417
cpu0_L1I WRITE        ACCESS:          0 HIT:          0 MISS:          0
cpu0_L1I TRANSLATION  ACCESS:          0 HIT:          0 MISS:          0
cpu0_L1I PREFETCH REQUESTED:   16215446 ISSUED:    5683065 USEFUL:     117729 USELESS:      47535
cpu0_L1I AVERAGE MISS LATENCY: 10.9 cycles
cpu0_L2C TOTAL        ACCESS:    1914614 HIT:    1833922 MISS:      80692
cpu0_L2C LOAD         ACCESS:     616877 HIT:     600046 MISS:      16831
cpu0_L2C RFO          ACCESS:     143951 HIT:     116699 MISS:      27252
cpu0_L2C PREFETCH     ACCESS:     959770 HIT:     923387 MISS:      36383
cpu0_L2C WRITE        ACCESS:     193725 HIT:     193725 MISS:          0
cpu0_L2C TRANSLATION  ACCESS:        291 HIT:         65 MISS:        226
cpu0_L2C PREFETCH REQUESTED:     792574 ISSUED:     784073 USEFUL:       6134 USELESS:       4206
cpu0_L2C AVERAGE MISS LATENCY: 107.2 cycles
cpu0_STLB TOTAL        ACCESS:     102341 HIT:     102049 MISS:        292
cpu0_STLB LOAD         ACCESS:     102341 HIT:     102049 MISS:        292
cpu0_STLB RFO          ACCESS:          0 HIT:          0 MISS:          0
cpu0_STLB PREFETCH     ACCESS:          0 HIT:          0 MISS:          0
cpu0_STLB WRITE        ACCESS:          0 HIT:          0 MISS:          0
cpu0_STLB TRANSLATION  ACCESS:          0 HIT:          0 MISS:          0
cpu0_STLB PREFETCH REQUESTED:          0 ISSUED:          0 USEFUL:          0 USELESS:          0
cpu0_STLB AVERAGE MISS LATENCY: 214.6 cycles

DRAM Statistics

Channel 0 RQ ROW_BUFFER_HIT:       7250
  ROW_BUFFER_MISS:       9194
 AVG DBUS CONGESTED CYCLE: 3.919
WQ ROW_BUFFER_HIT: Channel 0 
  ROW_BUFFER_MISS:       1259
  FULL:       6498

Channel 1 RQ ROW_BUFFER_HIT:       6953
  ROW_BUFFER_MISS:       8920
 AVG DBUS CONGESTED CYCLE: 3.903
WQ ROW_BUFFER_HIT: Channel 1 
  ROW_BUFFER_MISS:       1210
  FULL:       6127
BERTI TO_L1: 125690 TO_L2: 874818 TO_L2_BC_MSHR: 411189
BERTI AVG_LAT: 13.1472 NUM_TRACK_LATENCY: 683414 NUM_CANT_TRACK_LATENCY: 0
BERTI CROSS_PAGE 145408 NO_CROSS_PAGE: 855100
BERTI FOUND_BERTI: 2772935 NO_FOUND_BERTI: 22743885
BERTI AVERAGE_ISSUED: 3.27256
CPU 0 L1I Entangling prefetcher final stats
IP accesses: 110e 44380 62824 / 2594619
IP misses: 8b6 22d80 2603 / 169872
IP hits: 0 0 0 / 0
IP late: b02 2c080 1175 / 71525
IP wrong: b36 2cd80 1691 / 46722
miss rate: 0.0654709
coverage: 0
coverage_late: 0.421053
accuracy: 0
accuracy_late: 0.604878
discarded: 0
evicts entangled j table: 0
evicts entangled k table: 7501
max bb size: 65
formats: 453 0 5388 3099 1331 1970 0 
hist_lookups: 6081 7990 7418 8995 7917 6327 3773 2893 2426 2025 1797 968 532 295 148 0 0 13832 
hist_lookups_evict: 0 %
hist_lookups_shortlat: 18.8404 %
bb_found_hist: 0 561676 306655 204615 120441 105047 40467 28452 52429 504 24867 2411 12 0 3 0 20 1719 0 1274 2162 2318 0 0 0 0 0 0 0 0 0 0 0 0 0 0 0 0 0 0 0 0 0 0 0 0 0 0 0 2 0 0 0 0 0 0 0 0 0 0 0 0 0 0 
bb_found_summary: 4082906 1455074 2.80598
entangled_found_hist: 0 221784 274538 723271 133461 47707 24632 0 
entangled_found_summary: 3860844 1425393 2.70862
bb_ent_found_hist: 0 1104527 733681 472598 149915 169086 208173 100532 67295 290 31413 6606 0 0 0 0 5 0 0 0 290 10702 0 0 0 0 0 0 0 0 0 0 0 0 0 0 0 0 0 0 0 0 0 0 0 0 0 0 0 2 0 0 0 0 0 0 0 0 0 0 0 0 0 0 
bb_ent_found_summary: 8546021 3055115 2.79729
