WARNING: physical memory size is smaller than virtual memory size.

*** ChampSim Multicore Out-of-Order Simulator ***
Warmup Instructions: 30000000
Simulation Instructions: 100000000
Number of CPUs: 1
Page size: 4096

BTB:
Basic BTB sets: 1024 ways: 8
Indirect:
history lengths: 0 0 10 16 27 44 60 96 109 219 449 487 714 1313 2146 3881 
ITTAGE tables: 64768 bytes;Region table: 240 bytes;IUM: 384 bytes;Total Storage= 65392 bytes;
RAS:
RAS size: 64
Berti Prefetcher
CPU 0 Entangling prefetcher
Off-chip DRAM Size: 8 GiB Channels: 2 Width: 64-bit Data Race: 6400 MT/s
Heartbeat CPU 0 instructions: 10000009 cycles: 1713313 heartbeat IPC: 5.837 cumulative IPC: 5.837 (Simulation time: 00 hr 00 min 41 sec)
Heartbeat CPU 0 instructions: 20000005 cycles: 3380041 heartbeat IPC: 6 cumulative IPC: 5.917 (Simulation time: 00 hr 01 min 17 sec)
Heartbeat CPU 0 instructions: 30000003 cycles: 5046708 heartbeat IPC: 6 cumulative IPC: 5.944 (Simulation time: 00 hr 01 min 54 sec)
Warmup finished CPU 0 instructions: 30000003 cycles: 5046709 cumulative IPC: 5.944 (Simulation time: 00 hr 01 min 54 sec)
Warmup complete CPU 0 instructions: 30000003 cycles: 5046709 cumulative IPC: 5.944 (Simulation time: 00 hr 01 min 54 sec)
Heartbeat CPU 0 instructions: 40000004 cycles: 6713702 heartbeat IPC: 5.999 cumulative IPC: 5.999 (Simulation time: 00 hr 02 min 35 sec)
Heartbeat CPU 0 instructions: 50000011 cycles: 8380554 heartbeat IPC: 5.999 cumulative IPC: 5.999 (Simulation time: 00 hr 03 min 17 sec)
Heartbeat CPU 0 instructions: 60000005 cycles: 10047351 heartbeat IPC: 6 cumulative IPC: 5.999 (Simulation time: 00 hr 04 min 04 sec)
Heartbeat CPU 0 instructions: 70000000 cycles: 11752091 heartbeat IPC: 5.866 cumulative IPC: 5.965 (Simulation time: 00 hr 04 min 49 sec)
Heartbeat CPU 0 instructions: 80000003 cycles: 13419071 heartbeat IPC: 5.999 cumulative IPC: 5.972 (Simulation time: 00 hr 05 min 31 sec)
Heartbeat CPU 0 instructions: 90000000 cycles: 15085939 heartbeat IPC: 5.999 cumulative IPC: 5.977 (Simulation time: 00 hr 06 min 15 sec)
Heartbeat CPU 0 instructions: 100000001 cycles: 16752797 heartbeat IPC: 5.999 cumulative IPC: 5.98 (Simulation time: 00 hr 07 min 01 sec)
*** Reached end of trace: (0, "../traces/secret_traces/compute_fp/compute_fp_19.champsimtrace.xz")
Heartbeat CPU 0 instructions: 110000006 cycles: 19548192 heartbeat IPC: 3.577 cumulative IPC: 5.517 (Simulation time: 00 hr 07 min 50 sec)
Heartbeat CPU 0 instructions: 120000001 cycles: 21219951 heartbeat IPC: 5.982 cumulative IPC: 5.565 (Simulation time: 00 hr 08 min 32 sec)
Heartbeat CPU 0 instructions: 130000011 cycles: 22886860 heartbeat IPC: 5.999 cumulative IPC: 5.605 (Simulation time: 00 hr 09 min 13 sec)
Simulation finished CPU 0 instructions: 100000008 cycles: 17840152 cumulative IPC: 5.605 (Simulation time: 00 hr 09 min 13 sec)
Simulation complete CPU 0 instructions: 100000008 cycles: 17840152 cumulative IPC: 5.605 (Simulation time: 00 hr 09 min 13 sec)

ChampSim completed all CPUs

=== Simulation ===
CPU 0 runs ../traces/secret_traces/compute_fp/compute_fp_19.champsimtrace.xz
Region of Interest Statistics

CPU 0 cumulative IPC: 5.605 instructions: 100000008 cycles: 17840152
CPU 0 Branch Prediction Accuracy: 99.75% MPKI: 0.4765 Average ROB Occupancy at Mispredict: 37.04
Branch type MPKI
BRANCH_DIRECT_JUMP: 0.0047
BRANCH_INDIRECT: 0.196
BRANCH_CONDITIONAL: 0.2
BRANCH_DIRECT_CALL: 0.00787
BRANCH_INDIRECT_CALL: 0.0618
BRANCH_RETURN: 0.00556

LLC TOTAL        ACCESS:      46495 HIT:      45118 MISS:       1377
LLC LOAD         ACCESS:       5056 HIT:       4806 MISS:        250
LLC RFO          ACCESS:       6554 HIT:       6484 MISS:         70
LLC PREFETCH     ACCESS:      24201 HIT:      23190 MISS:       1011
LLC WRITE        ACCESS:      10629 HIT:      10624 MISS:          5
LLC TRANSLATION  ACCESS:         55 HIT:         14 MISS:         41
LLC PREFETCH REQUESTED:          0 ISSUED:          0 USEFUL:          0 USELESS:          0
LLC AVERAGE MISS LATENCY: 139.5 cycles
cpu0_DTLB TOTAL        ACCESS:   16821486 HIT:   16800341 MISS:      21145
cpu0_DTLB LOAD         ACCESS:   16821486 HIT:   16800341 MISS:      21145
cpu0_DTLB RFO          ACCESS:          0 HIT:          0 MISS:          0
cpu0_DTLB PREFETCH     ACCESS:          0 HIT:          0 MISS:          0
cpu0_DTLB WRITE        ACCESS:          0 HIT:          0 MISS:          0
cpu0_DTLB TRANSLATION  ACCESS:          0 HIT:          0 MISS:          0
cpu0_DTLB PREFETCH REQUESTED:          0 ISSUED:          0 USEFUL:          0 USELESS:          0
cpu0_DTLB AVERAGE MISS LATENCY: 6.302 cycles
cpu0_ITLB TOTAL        ACCESS:     307943 HIT:     307287 MISS:        656
cpu0_ITLB LOAD         ACCESS:     307943 HIT:     307287 MISS:        656
cpu0_ITLB RFO          ACCESS:          0 HIT:          0 MISS:          0
cpu0_ITLB PREFETCH     ACCESS:          0 HIT:          0 MISS:          0
cpu0_ITLB WRITE        ACCESS:          0 HIT:          0 MISS:          0
cpu0_ITLB TRANSLATION  ACCESS:          0 HIT:          0 MISS:          0
cpu0_ITLB PREFETCH REQUESTED:          0 ISSUED:          0 USEFUL:          0 USELESS:          0
cpu0_ITLB AVERAGE MISS LATENCY: 8.959 cycles
cpu0_L1D TOTAL        ACCESS:   32288872 HIT:   31268196 MISS:    1020676
cpu0_L1D LOAD         ACCESS:   14343834 HIT:   14227126 MISS:     116708
cpu0_L1D RFO          ACCESS:          0 HIT:          0 MISS:          0
cpu0_L1D PREFETCH     ACCESS:   11818692 HIT:   11111780 MISS:     706912
cpu0_L1D WRITE        ACCESS:    6126284 HIT:    5929289 MISS:     196995
cpu0_L1D TRANSLATION  ACCESS:         62 HIT:          1 MISS:         61
cpu0_L1D PREFETCH REQUESTED:   64524962 ISSUED:   11818697 USEFUL:     540675 USELESS:       1676
cpu0_L1D AVERAGE MISS LATENCY: 7.607 cycles
cpu0_L1I TOTAL        ACCESS:     458426 HIT:     432675 MISS:      25751
cpu0_L1I LOAD         ACCESS:     131533 HIT:     124115 MISS:       7418
cpu0_L1I RFO          ACCESS:          0 HIT:          0 MISS:          0
cpu0_L1I PREFETCH     ACCESS:     326893 HIT:     308560 MISS:      18333
cpu0_L1I WRITE        ACCESS:          0 HIT:          0 MISS:          0
cpu0_L1I TRANSLATION  ACCESS:          0 HIT:          0 MISS:          0
cpu0_L1I PREFETCH REQUESTED:     533739 ISSUED:     326893 USEFUL:       9147 USELESS:       7892
cpu0_L1I AVERAGE MISS LATENCY: 13.84 cycles
cpu0_L2C TOTAL        ACCESS:    1896368 HIT:    1847662 MISS:      48706
cpu0_L2C LOAD         ACCESS:      75766 HIT:      70554 MISS:       5212
cpu0_L2C RFO          ACCESS:     146670 HIT:     140115 MISS:       6555
cpu0_L2C PREFETCH     ACCESS:    1515075 HIT:    1478191 MISS:      36884
cpu0_L2C WRITE        ACCESS:     158796 HIT:     158796 MISS:          0
cpu0_L2C TRANSLATION  ACCESS:         61 HIT:          6 MISS:         55
cpu0_L2C PREFETCH REQUESTED:     796655 ISSUED:     794186 USEFUL:      10914 USELESS:       2530
cpu0_L2C AVERAGE MISS LATENCY: 18.66 cycles
cpu0_STLB TOTAL        ACCESS:      17692 HIT:      17648 MISS:         44
cpu0_STLB LOAD         ACCESS:      17692 HIT:      17648 MISS:         44
cpu0_STLB RFO          ACCESS:          0 HIT:          0 MISS:          0
cpu0_STLB PREFETCH     ACCESS:          0 HIT:          0 MISS:          0
cpu0_STLB WRITE        ACCESS:          0 HIT:          0 MISS:          0
cpu0_STLB TRANSLATION  ACCESS:          0 HIT:          0 MISS:          0
cpu0_STLB PREFETCH REQUESTED:          0 ISSUED:          0 USEFUL:          0 USELESS:          0
cpu0_STLB AVERAGE MISS LATENCY: 329.5 cycles

DRAM Statistics

Channel 0 RQ ROW_BUFFER_HIT:        200
  ROW_BUFFER_MISS:        514
 AVG DBUS CONGESTED CYCLE: 3.589
WQ ROW_BUFFER_HIT: Channel 0 
  ROW_BUFFER_MISS:          7
  FULL:         66

Channel 1 RQ ROW_BUFFER_HIT:        181
  ROW_BUFFER_MISS:        477
 AVG DBUS CONGESTED CYCLE: 3.561
WQ ROW_BUFFER_HIT: Channel 1 
  ROW_BUFFER_MISS:          7
  FULL:         56
BERTI TO_L1: 72221804 TO_L2: 6853166 TO_L2_BC_MSHR: 2698
BERTI AVG_LAT: 45.0952 NUM_TRACK_LATENCY: 813257 NUM_CANT_TRACK_LATENCY: 0
BERTI CROSS_PAGE 10130215 NO_CROSS_PAGE: 68944755
BERTI FOUND_BERTI: 7210988 NO_FOUND_BERTI: 12457507
BERTI AVERAGE_ISSUED: 3.86147
CPU 0 L1I Entangling prefetcher final stats
IP accesses: e7e5 39f940 3812 / 131538
IP misses: 7fd3 1ff4c0 68 / 7423
IP hits: 0 0 0 / 0
IP late: 7fd3 1ff4c0 23 / 3475
IP wrong: 1595 56540 43 / 7810
miss rate: 0.0564324
coverage: 0
coverage_late: 0.46814
accuracy: 0
accuracy_late: 0.307931
discarded: 0
evicts entangled j table: 0
evicts entangled k table: 1005
max bb size: 18
formats: 14 0 1562 325 115 302 0 
hist_lookups: 1116 1003 662 622 534 424 318 195 137 98 64 53 18 13 7 0 0 757 
hist_lookups_evict: 0 %
hist_lookups_shortlat: 12.5727 %
bb_found_hist: 0 32936 18447 8738 4002 2750 2356 1761 584 437 69 34 184 30 0 10 0 98 1 0 0 0 0 0 0 0 0 0 0 0 0 0 0 0 0 0 0 0 0 0 0 0 0 0 0 0 0 0 0 0 0 0 0 0 0 0 0 0 0 0 0 0 0 0 
bb_found_summary: 166366 72437 2.2967
entangled_found_hist: 0 15510 12357 32857 1854 280 53 0 
entangled_found_summary: 147929 62911 2.35141
bb_ent_found_hist: 0 38674 20078 14009 5448 7159 2692 2396 1538 76 73 363 3 0 51 40 0 0 2 0 0 0 0 0 0 0 0 0 0 0 0 0 0 0 0 0 0 0 0 0 0 0 0 0 0 0 0 0 0 0 0 0 0 0 0 0 0 0 0 0 0 0 0 0 
bb_ent_found_summary: 230465 92602 2.48877
