WARNING: physical memory size is smaller than virtual memory size.

*** ChampSim Multicore Out-of-Order Simulator ***
Warmup Instructions: 30000000
Simulation Instructions: 100000000
Number of CPUs: 1
Page size: 4096

BTB:
Basic BTB sets: 1024 ways: 8
Indirect:
history lengths: 0 0 10 16 27 44 60 96 109 219 449 487 714 1313 2146 3881 
ITTAGE tables: 64768 bytes;Region table: 240 bytes;IUM: 384 bytes;Total Storage= 65392 bytes;
RAS:
RAS size: 64
Berti Prefetcher
CPU 0 Entangling prefetcher
Off-chip DRAM Size: 8 GiB Channels: 2 Width: 64-bit Data Race: 6400 MT/s
Heartbeat CPU 0 instructions: 10000006 cycles: 1718002 heartbeat IPC: 5.821 cumulative IPC: 5.821 (Simulation time: 00 hr 00 min 35 sec)
Heartbeat CPU 0 instructions: 20000005 cycles: 3385315 heartbeat IPC: 5.998 cumulative IPC: 5.908 (Simulation time: 00 hr 01 min 09 sec)
Heartbeat CPU 0 instructions: 30000001 cycles: 5052161 heartbeat IPC: 5.999 cumulative IPC: 5.938 (Simulation time: 00 hr 01 min 43 sec)
Warmup finished CPU 0 instructions: 30000001 cycles: 5052162 cumulative IPC: 5.938 (Simulation time: 00 hr 01 min 43 sec)
Warmup complete CPU 0 instructions: 30000001 cycles: 5052162 cumulative IPC: 5.938 (Simulation time: 00 hr 01 min 43 sec)
Heartbeat CPU 0 instructions: 40000001 cycles: 7067580 heartbeat IPC: 4.962 cumulative IPC: 4.962 (Simulation time: 00 hr 02 min 23 sec)
Heartbeat CPU 0 instructions: 50000001 cycles: 9031210 heartbeat IPC: 5.093 cumulative IPC: 5.026 (Simulation time: 00 hr 03 min 03 sec)
Heartbeat CPU 0 instructions: 60000007 cycles: 10779718 heartbeat IPC: 5.719 cumulative IPC: 5.238 (Simulation time: 00 hr 03 min 43 sec)
Heartbeat CPU 0 instructions: 70000005 cycles: 12491565 heartbeat IPC: 5.842 cumulative IPC: 5.377 (Simulation time: 00 hr 04 min 24 sec)
Heartbeat CPU 0 instructions: 80000003 cycles: 14190227 heartbeat IPC: 5.887 cumulative IPC: 5.472 (Simulation time: 00 hr 05 min 04 sec)
Heartbeat CPU 0 instructions: 90000002 cycles: 16170185 heartbeat IPC: 5.051 cumulative IPC: 5.397 (Simulation time: 00 hr 05 min 44 sec)
Heartbeat CPU 0 instructions: 100000003 cycles: 18167448 heartbeat IPC: 5.007 cumulative IPC: 5.337 (Simulation time: 00 hr 06 min 24 sec)
*** Reached end of trace: (0, "../traces/secret_traces/compute_fp/compute_fp_89.champsimtrace.xz")
Heartbeat CPU 0 instructions: 110000006 cycles: 21526252 heartbeat IPC: 2.977 cumulative IPC: 4.856 (Simulation time: 00 hr 07 min 20 sec)
Heartbeat CPU 0 instructions: 120000011 cycles: 23523008 heartbeat IPC: 5.008 cumulative IPC: 4.873 (Simulation time: 00 hr 08 min 05 sec)
Heartbeat CPU 0 instructions: 130000002 cycles: 25543357 heartbeat IPC: 4.95 cumulative IPC: 4.88 (Simulation time: 00 hr 08 min 51 sec)
Simulation finished CPU 0 instructions: 100000001 cycles: 20491196 cumulative IPC: 4.88 (Simulation time: 00 hr 08 min 51 sec)
Simulation complete CPU 0 instructions: 100000001 cycles: 20491196 cumulative IPC: 4.88 (Simulation time: 00 hr 08 min 51 sec)

ChampSim completed all CPUs

=== Simulation ===
CPU 0 runs ../traces/secret_traces/compute_fp/compute_fp_89.champsimtrace.xz
Region of Interest Statistics

CPU 0 cumulative IPC: 4.88 instructions: 100000001 cycles: 20491196
CPU 0 Branch Prediction Accuracy: 99.02% MPKI: 1.537 Average ROB Occupancy at Mispredict: 60.58
Branch type MPKI
BRANCH_DIRECT_JUMP: 0.00848
BRANCH_INDIRECT: 0.293
BRANCH_CONDITIONAL: 1.2
BRANCH_DIRECT_CALL: 0.0218
BRANCH_INDIRECT_CALL: 0.00265
BRANCH_RETURN: 0.0118

LLC TOTAL        ACCESS:     122937 HIT:      66364 MISS:      56573
LLC LOAD         ACCESS:      12723 HIT:       4234 MISS:       8489
LLC RFO          ACCESS:      36103 HIT:       9898 MISS:      26205
LLC PREFETCH     ACCESS:      31115 HIT:       9649 MISS:      21466
LLC WRITE        ACCESS:      42691 HIT:      42542 MISS:        149
LLC TRANSLATION  ACCESS:        305 HIT:         41 MISS:        264
LLC PREFETCH REQUESTED:          0 ISSUED:          0 USEFUL:          0 USELESS:          0
LLC AVERAGE MISS LATENCY: 502.2 cycles
cpu0_DTLB TOTAL        ACCESS:   13202141 HIT:   13192664 MISS:       9477
cpu0_DTLB LOAD         ACCESS:   13202141 HIT:   13192664 MISS:       9477
cpu0_DTLB RFO          ACCESS:          0 HIT:          0 MISS:          0
cpu0_DTLB PREFETCH     ACCESS:          0 HIT:          0 MISS:          0
cpu0_DTLB WRITE        ACCESS:          0 HIT:          0 MISS:          0
cpu0_DTLB TRANSLATION  ACCESS:          0 HIT:          0 MISS:          0
cpu0_DTLB PREFETCH REQUESTED:          0 ISSUED:          0 USEFUL:          0 USELESS:          0
cpu0_DTLB AVERAGE MISS LATENCY: 11.86 cycles
cpu0_ITLB TOTAL        ACCESS:    2250767 HIT:    2249189 MISS:       1578
cpu0_ITLB LOAD         ACCESS:    2250767 HIT:    2249189 MISS:       1578
cpu0_ITLB RFO          ACCESS:          0 HIT:          0 MISS:          0
cpu0_ITLB PREFETCH     ACCESS:          0 HIT:          0 MISS:          0
cpu0_ITLB WRITE        ACCESS:          0 HIT:          0 MISS:          0
cpu0_ITLB TRANSLATION  ACCESS:          0 HIT:          0 MISS:          0
cpu0_ITLB PREFETCH REQUESTED:          0 ISSUED:          0 USEFUL:          0 USELESS:          0
cpu0_ITLB AVERAGE MISS LATENCY: 18.6 cycles
cpu0_L1D TOTAL        ACCESS:   24894780 HIT:   24018503 MISS:     876277
cpu0_L1D LOAD         ACCESS:    8783442 HIT:    8740515 MISS:      42927
cpu0_L1D RFO          ACCESS:          0 HIT:          0 MISS:          0
cpu0_L1D PREFETCH     ACCESS:    7889701 HIT:    7212508 MISS:     677193
cpu0_L1D WRITE        ACCESS:    8221171 HIT:    8065383 MISS:     155788
cpu0_L1D TRANSLATION  ACCESS:        466 HIT:         97 MISS:        369
cpu0_L1D PREFETCH REQUESTED:   11822832 ISSUED:    7889701 USEFUL:     139411 USELESS:      12242
cpu0_L1D AVERAGE MISS LATENCY: 19.67 cycles
cpu0_L1I TOTAL        ACCESS:    3490887 HIT:    3454979 MISS:      35908
cpu0_L1I LOAD         ACCESS:     718126 HIT:     707403 MISS:      10723
cpu0_L1I RFO          ACCESS:          0 HIT:          0 MISS:          0
cpu0_L1I PREFETCH     ACCESS:    2772761 HIT:    2747576 MISS:      25185
cpu0_L1I WRITE        ACCESS:          0 HIT:          0 MISS:          0
cpu0_L1I TRANSLATION  ACCESS:          0 HIT:          0 MISS:          0
cpu0_L1I PREFETCH REQUESTED:    3095846 ISSUED:    2772761 USEFUL:      14157 USELESS:       9283
cpu0_L1I AVERAGE MISS LATENCY: 37.54 cycles
cpu0_L2C TOTAL        ACCESS:    1603335 HIT:    1480295 MISS:     123040
cpu0_L2C LOAD         ACCESS:      35283 HIT:      19223 MISS:      16060
cpu0_L2C RFO          ACCESS:      51237 HIT:      15123 MISS:      36114
cpu0_L2C PREFETCH     ACCESS:    1421538 HIT:    1350978 MISS:      70560
cpu0_L2C WRITE        ACCESS:      94911 HIT:      94910 MISS:          1
cpu0_L2C TRANSLATION  ACCESS:        366 HIT:         61 MISS:        305
cpu0_L2C PREFETCH REQUESTED:     734024 ISSUED:     725835 USEFUL:      14460 USELESS:       5646
cpu0_L2C AVERAGE MISS LATENCY: 240.6 cycles
cpu0_STLB TOTAL        ACCESS:       5879 HIT:       5482 MISS:        397
cpu0_STLB LOAD         ACCESS:       5879 HIT:       5482 MISS:        397
cpu0_STLB RFO          ACCESS:          0 HIT:          0 MISS:          0
cpu0_STLB PREFETCH     ACCESS:          0 HIT:          0 MISS:          0
cpu0_STLB WRITE        ACCESS:          0 HIT:          0 MISS:          0
cpu0_STLB TRANSLATION  ACCESS:          0 HIT:          0 MISS:          0
cpu0_STLB PREFETCH REQUESTED:          0 ISSUED:          0 USEFUL:          0 USELESS:          0
cpu0_STLB AVERAGE MISS LATENCY: 316.7 cycles

DRAM Statistics

Channel 0 RQ ROW_BUFFER_HIT:      13269
  ROW_BUFFER_MISS:      15211
 AVG DBUS CONGESTED CYCLE: 3.962
WQ ROW_BUFFER_HIT: Channel 0 
  ROW_BUFFER_MISS:       1628
  FULL:      15130

Channel 1 RQ ROW_BUFFER_HIT:      13177
  ROW_BUFFER_MISS:      14763
 AVG DBUS CONGESTED CYCLE: 3.948
WQ ROW_BUFFER_HIT: Channel 1 
  ROW_BUFFER_MISS:       1716
  FULL:      14579
BERTI TO_L1: 12402525 TO_L2: 3341481 TO_L2_BC_MSHR: 864630
BERTI AVG_LAT: 55.5291 NUM_TRACK_LATENCY: 243254 NUM_CANT_TRACK_LATENCY: 61
BERTI CROSS_PAGE 2186635 NO_CROSS_PAGE: 13557371
BERTI FOUND_BERTI: 2124979 NO_FOUND_BERTI: 10063328
BERTI AVERAGE_ISSUED: 9.60251
CPU 0 L1I Entangling prefetcher final stats
IP accesses: a3e7 28f9c0 58306 / 718353
IP misses: 54af 152bc0 48 / 10950
IP hits: 0 0 0 / 0
IP late: 54af 152bc0 12 / 5479
IP wrong: 2172 85c80 23 / 9228
miss rate: 0.0152433
coverage: 0
coverage_late: 0.500366
accuracy: 0
accuracy_late: 0.372544
discarded: 0
evicts entangled j table: 0
evicts entangled k table: 1652
max bb size: 45
formats: 399 0 1473 756 303 773 0 
hist_lookups: 1118 1311 1110 991 882 758 587 456 383 295 179 127 81 33 13 0 0 2462 
hist_lookups_evict: 0 %
hist_lookups_shortlat: 22.8259 %
bb_found_hist: 0 249565 62903 27877 53428 22160 20047 85 45 13 3585 32 13 0 3 2 18 0 0 0 0 3 0 0 0 0 0 0 0 0 0 0 0 0 0 0 0 0 0 0 0 0 0 0 0 1 0 0 0 0 0 0 0 0 0 0 0 0 0 0 0 0 0 0 
bb_found_summary: 941694 439780 2.14129
entangled_found_hist: 0 61025 110961 93404 27490 14677 26496 0 
entangled_found_summary: 905480 334053 2.71059
bb_ent_found_hist: 0 247550 153316 87502 20212 39428 26360 250 85 5 787 61 2 0 0 0 0 0 0 0 0 3 0 0 0 0 0 0 0 0 0 0 0 0 0 0 0 0 0 0 0 0 0 0 0 0 0 0 0 0 0 0 0 0 0 0 0 0 0 0 0 0 0 0 
bb_ent_found_summary: 1263939 575561 2.19602
