WARNING: physical memory size is smaller than virtual memory size.

*** ChampSim Multicore Out-of-Order Simulator ***
Warmup Instructions: 30000000
Simulation Instructions: 100000000
Number of CPUs: 1
Page size: 4096

BTB:
Basic BTB sets: 1024 ways: 8
Indirect:
history lengths: 0 0 10 16 27 44 60 96 109 219 449 487 714 1313 2146 3881 
ITTAGE tables: 64768 bytes;Region table: 240 bytes;IUM: 384 bytes;Total Storage= 65392 bytes;
RAS:
RAS size: 64
Berti Prefetcher
CPU 0 Entangling prefetcher
Off-chip DRAM Size: 8 GiB Channels: 2 Width: 64-bit Data Race: 6400 MT/s
Heartbeat CPU 0 instructions: 10000001 cycles: 1967796 heartbeat IPC: 5.082 cumulative IPC: 5.082 (Simulation time: 00 hr 00 min 58 sec)
Heartbeat CPU 0 instructions: 20000007 cycles: 3957925 heartbeat IPC: 5.025 cumulative IPC: 5.053 (Simulation time: 00 hr 01 min 51 sec)
Heartbeat CPU 0 instructions: 30000000 cycles: 5933883 heartbeat IPC: 5.061 cumulative IPC: 5.056 (Simulation time: 00 hr 02 min 44 sec)
Warmup finished CPU 0 instructions: 30000000 cycles: 5933884 cumulative IPC: 5.056 (Simulation time: 00 hr 02 min 44 sec)
Warmup complete CPU 0 instructions: 30000000 cycles: 5933884 cumulative IPC: 5.056 (Simulation time: 00 hr 02 min 44 sec)
Heartbeat CPU 0 instructions: 40000001 cycles: 9574156 heartbeat IPC: 2.747 cumulative IPC: 2.747 (Simulation time: 00 hr 04 min 04 sec)
Heartbeat CPU 0 instructions: 50000001 cycles: 13128632 heartbeat IPC: 2.813 cumulative IPC: 2.78 (Simulation time: 00 hr 05 min 12 sec)
Heartbeat CPU 0 instructions: 60000001 cycles: 16852922 heartbeat IPC: 2.685 cumulative IPC: 2.747 (Simulation time: 00 hr 06 min 18 sec)
Heartbeat CPU 0 instructions: 70000005 cycles: 21330320 heartbeat IPC: 2.233 cumulative IPC: 2.598 (Simulation time: 00 hr 07 min 37 sec)
Heartbeat CPU 0 instructions: 80000006 cycles: 25079123 heartbeat IPC: 2.668 cumulative IPC: 2.612 (Simulation time: 00 hr 08 min 48 sec)
Heartbeat CPU 0 instructions: 90000005 cycles: 28582708 heartbeat IPC: 2.854 cumulative IPC: 2.649 (Simulation time: 00 hr 10 min 06 sec)
Heartbeat CPU 0 instructions: 100000000 cycles: 31564405 heartbeat IPC: 3.354 cumulative IPC: 2.731 (Simulation time: 00 hr 11 min 13 sec)
*** Reached end of trace: (0, "../traces/secret_traces/compute_fp/compute_fp_100.champsimtrace.xz")
Heartbeat CPU 0 instructions: 110000000 cycles: 36475040 heartbeat IPC: 2.036 cumulative IPC: 2.619 (Simulation time: 00 hr 12 min 37 sec)
Heartbeat CPU 0 instructions: 120000001 cycles: 38753581 heartbeat IPC: 4.389 cumulative IPC: 2.742 (Simulation time: 00 hr 13 min 27 sec)
Heartbeat CPU 0 instructions: 130000010 cycles: 41432013 heartbeat IPC: 3.734 cumulative IPC: 2.817 (Simulation time: 00 hr 14 min 24 sec)
Simulation finished CPU 0 instructions: 100000010 cycles: 35498130 cumulative IPC: 2.817 (Simulation time: 00 hr 14 min 24 sec)
Simulation complete CPU 0 instructions: 100000010 cycles: 35498130 cumulative IPC: 2.817 (Simulation time: 00 hr 14 min 24 sec)

ChampSim completed all CPUs

=== Simulation ===
CPU 0 runs ../traces/secret_traces/compute_fp/compute_fp_100.champsimtrace.xz
Region of Interest Statistics

CPU 0 cumulative IPC: 2.817 instructions: 100000010 cycles: 35498130
CPU 0 Branch Prediction Accuracy: 98.99% MPKI: 1.267 Average ROB Occupancy at Mispredict: 110.6
Branch type MPKI
BRANCH_DIRECT_JUMP: 0.0126
BRANCH_INDIRECT: 0.628
BRANCH_CONDITIONAL: 0.585
BRANCH_DIRECT_CALL: 0.0242
BRANCH_INDIRECT_CALL: 0.00318
BRANCH_RETURN: 0.0136

LLC TOTAL        ACCESS:    2777278 HIT:    1867318 MISS:     909960
LLC LOAD         ACCESS:     306628 HIT:     142247 MISS:     164381
LLC RFO          ACCESS:     206446 HIT:     125501 MISS:      80945
LLC PREFETCH     ACCESS:    1988076 HIT:    1337554 MISS:     650522
LLC WRITE        ACCESS:     261921 HIT:     257009 MISS:       4912
LLC TRANSLATION  ACCESS:      14207 HIT:       5007 MISS:       9200
LLC PREFETCH REQUESTED:          0 ISSUED:          0 USEFUL:          0 USELESS:          0
LLC AVERAGE MISS LATENCY: 200.6 cycles
cpu0_DTLB TOTAL        ACCESS:   20018328 HIT:   19758692 MISS:     259636
cpu0_DTLB LOAD         ACCESS:   20018328 HIT:   19758692 MISS:     259636
cpu0_DTLB RFO          ACCESS:          0 HIT:          0 MISS:          0
cpu0_DTLB PREFETCH     ACCESS:          0 HIT:          0 MISS:          0
cpu0_DTLB WRITE        ACCESS:          0 HIT:          0 MISS:          0
cpu0_DTLB TRANSLATION  ACCESS:          0 HIT:          0 MISS:          0
cpu0_DTLB PREFETCH REQUESTED:          0 ISSUED:          0 USEFUL:          0 USELESS:          0
cpu0_DTLB AVERAGE MISS LATENCY: 12.71 cycles
cpu0_ITLB TOTAL        ACCESS:     240169 HIT:     238589 MISS:       1580
cpu0_ITLB LOAD         ACCESS:     240169 HIT:     238589 MISS:       1580
cpu0_ITLB RFO          ACCESS:          0 HIT:          0 MISS:          0
cpu0_ITLB PREFETCH     ACCESS:          0 HIT:          0 MISS:          0
cpu0_ITLB WRITE        ACCESS:          0 HIT:          0 MISS:          0
cpu0_ITLB TRANSLATION  ACCESS:          0 HIT:          0 MISS:          0
cpu0_ITLB PREFETCH REQUESTED:          0 ISSUED:          0 USEFUL:          0 USELESS:          0
cpu0_ITLB AVERAGE MISS LATENCY: 70.46 cycles
cpu0_L1D TOTAL        ACCESS:   40855221 HIT:   35116280 MISS:    5738941
cpu0_L1D LOAD         ACCESS:   18451509 HIT:   16333800 MISS:    2117709
cpu0_L1D RFO          ACCESS:          0 HIT:          0 MISS:          0
cpu0_L1D PREFETCH     ACCESS:   19220804 HIT:   16250920 MISS:    2969884
cpu0_L1D WRITE        ACCESS:    3154869 HIT:    2525908 MISS:     628961
cpu0_L1D TRANSLATION  ACCESS:      28039 HIT:       5652 MISS:      22387
cpu0_L1D PREFETCH REQUESTED:   98740783 ISSUED:   19220776 USEFUL:    1590235 USELESS:      25632
cpu0_L1D AVERAGE MISS LATENCY: 23.01 cycles
cpu0_L1I TOTAL        ACCESS:     353555 HIT:     309943 MISS:      43612
cpu0_L1I LOAD         ACCESS:     135524 HIT:     122899 MISS:      12625
cpu0_L1I RFO          ACCESS:          0 HIT:          0 MISS:          0
cpu0_L1I PREFETCH     ACCESS:     218031 HIT:     187044 MISS:      30987
cpu0_L1I WRITE        ACCESS:          0 HIT:          0 MISS:          0
cpu0_L1I TRANSLATION  ACCESS:          0 HIT:          0 MISS:          0
cpu0_L1I PREFETCH REQUESTED:     345318 ISSUED:     218031 USEFUL:      17853 USELESS:      10593
cpu0_L1I AVERAGE MISS LATENCY: 94.88 cycles
cpu0_L2C TOTAL        ACCESS:    8041786 HIT:    4291882 MISS:    3749904
cpu0_L2C LOAD         ACCESS:     858216 HIT:     490214 MISS:     368002
cpu0_L2C RFO          ACCESS:     257350 HIT:      50818 MISS:     206532
cpu0_L2C PREFETCH     ACCESS:    6611451 HIT:    3450292 MISS:    3161159
cpu0_L2C WRITE        ACCESS:     292471 HIT:     292467 MISS:          4
cpu0_L2C TRANSLATION  ACCESS:      22298 HIT:       8091 MISS:      14207
cpu0_L2C PREFETCH REQUESTED:    3779021 ISSUED:    3698704 USEFUL:     807051 USELESS:     345966
cpu0_L2C AVERAGE MISS LATENCY: 61.2 cycles
cpu0_STLB TOTAL        ACCESS:     117569 HIT:      89814 MISS:      27755
cpu0_STLB LOAD         ACCESS:     117569 HIT:      89814 MISS:      27755
cpu0_STLB RFO          ACCESS:          0 HIT:          0 MISS:          0
cpu0_STLB PREFETCH     ACCESS:          0 HIT:          0 MISS:          0
cpu0_STLB WRITE        ACCESS:          0 HIT:          0 MISS:          0
cpu0_STLB TRANSLATION  ACCESS:          0 HIT:          0 MISS:          0
cpu0_STLB PREFETCH REQUESTED:          0 ISSUED:          0 USEFUL:          0 USELESS:          0
cpu0_STLB AVERAGE MISS LATENCY: 123.8 cycles

DRAM Statistics

Channel 0 RQ ROW_BUFFER_HIT:     273177
  ROW_BUFFER_MISS:     182002
 AVG DBUS CONGESTED CYCLE: 3.885
WQ ROW_BUFFER_HIT: Channel 0 
  ROW_BUFFER_MISS:      14211
  FULL:      37513

Channel 1 RQ ROW_BUFFER_HIT:     271452
  ROW_BUFFER_MISS:     176190
 AVG DBUS CONGESTED CYCLE: 3.884
WQ ROW_BUFFER_HIT: Channel 1 
  ROW_BUFFER_MISS:      14316
  FULL:      36473
BERTI TO_L1: 104067400 TO_L2: 34030512 TO_L2_BC_MSHR: 2535175
BERTI AVG_LAT: 64.0595 NUM_TRACK_LATENCY: 3178369 NUM_CANT_TRACK_LATENCY: 0
BERTI CROSS_PAGE 30536675 NO_CROSS_PAGE: 107561237
BERTI FOUND_BERTI: 16978828 NO_FOUND_BERTI: 7486389
BERTI AVERAGE_ISSUED: 3.58177
CPU 0 L1I Entangling prefetcher final stats
IP accesses: 6d 1b40 2409 / 154559
IP misses: 398e e6380 528 / 31660
IP hits: 0 0 0 / 0
IP late: 215c 85700 16 / 6237
IP wrong: e8e9 3a3a40 26 / 10518
miss rate: 0.204841
coverage: 0
coverage_late: 0.197
accuracy: 0
accuracy_late: 0.372248
discarded: 0
evicts entangled j table: 0
evicts entangled k table: 1698
max bb size: 65
formats: 480 0 1474 826 397 838 0 
hist_lookups: 1458 1414 1000 958 876 741 599 468 336 252 201 144 97 46 32 0 6 3893 
hist_lookups_evict: 0.0479195 %
hist_lookups_shortlat: 31.0918 %
bb_found_hist: 0 26130 9354 5358 3057 2056 2468 99 160 166 22 33 12 54 5 5 17 0 50 0 0 0 0 0 0 0 0 0 0 0 0 0 0 0 0 0 0 0 0 0 0 0 0 0 0 0 0 0 0 0 0 0 0 0 0 0 0 0 0 0 0 0 0 0 
bb_found_summary: 104441 49046 2.12945
entangled_found_hist: 0 14652 12302 14273 2910 1658 135 0 
entangled_found_summary: 102815 45930 2.23852
bb_ent_found_hist: 0 35924 15133 7971 5199 5384 853 306 815 433 48 56 0 223 8 28 0 0 159 0 0 0 0 0 0 0 0 0 0 0 0 0 0 0 0 0 0 0 0 0 0 0 0 0 0 0 0 0 0 0 0 0 0 0 0 0 0 0 0 0 0 0 0 0 
bb_ent_found_summary: 162885 72540 2.24546
