WARNING: physical memory size is smaller than virtual memory size.

*** ChampSim Multicore Out-of-Order Simulator ***
Warmup Instructions: 30000000
Simulation Instructions: 100000000
Number of CPUs: 1
Page size: 4096

BTB:
Basic BTB sets: 1024 ways: 8
Indirect:
history lengths: 0 0 10 16 27 44 60 96 109 219 449 487 714 1313 2146 3881 
ITTAGE tables: 64768 bytes;Region table: 240 bytes;IUM: 384 bytes;Total Storage= 65392 bytes;
RAS:
RAS size: 64
Berti Prefetcher
CPU 0 Entangling prefetcher
Off-chip DRAM Size: 8 GiB Channels: 2 Width: 64-bit Data Race: 6400 MT/s
Heartbeat CPU 0 instructions: 10000003 cycles: 1717105 heartbeat IPC: 5.824 cumulative IPC: 5.824 (Simulation time: 00 hr 00 min 37 sec)
Heartbeat CPU 0 instructions: 20000011 cycles: 3388585 heartbeat IPC: 5.983 cumulative IPC: 5.902 (Simulation time: 00 hr 01 min 13 sec)
Heartbeat CPU 0 instructions: 30000000 cycles: 5060517 heartbeat IPC: 5.981 cumulative IPC: 5.928 (Simulation time: 00 hr 01 min 50 sec)
Warmup finished CPU 0 instructions: 30000000 cycles: 5060518 cumulative IPC: 5.928 (Simulation time: 00 hr 01 min 50 sec)
Warmup complete CPU 0 instructions: 30000000 cycles: 5060518 cumulative IPC: 5.928 (Simulation time: 00 hr 01 min 50 sec)
Heartbeat CPU 0 instructions: 40000008 cycles: 6824209 heartbeat IPC: 5.67 cumulative IPC: 5.67 (Simulation time: 00 hr 02 min 32 sec)
Heartbeat CPU 0 instructions: 50000000 cycles: 8553799 heartbeat IPC: 5.782 cumulative IPC: 5.725 (Simulation time: 00 hr 03 min 14 sec)
Heartbeat CPU 0 instructions: 60000009 cycles: 10302230 heartbeat IPC: 5.719 cumulative IPC: 5.723 (Simulation time: 00 hr 03 min 55 sec)
Heartbeat CPU 0 instructions: 70000009 cycles: 12028256 heartbeat IPC: 5.794 cumulative IPC: 5.741 (Simulation time: 00 hr 04 min 37 sec)
Heartbeat CPU 0 instructions: 80000006 cycles: 13752672 heartbeat IPC: 5.799 cumulative IPC: 5.752 (Simulation time: 00 hr 05 min 17 sec)
Heartbeat CPU 0 instructions: 90000002 cycles: 15490942 heartbeat IPC: 5.753 cumulative IPC: 5.752 (Simulation time: 00 hr 05 min 58 sec)
Heartbeat CPU 0 instructions: 100000002 cycles: 17262023 heartbeat IPC: 5.646 cumulative IPC: 5.737 (Simulation time: 00 hr 06 min 40 sec)
*** Reached end of trace: (0, "../traces/secret_traces/compute_fp/compute_fp_109.champsimtrace.xz")
Heartbeat CPU 0 instructions: 110000008 cycles: 19715069 heartbeat IPC: 4.077 cumulative IPC: 5.459 (Simulation time: 00 hr 07 min 29 sec)
Heartbeat CPU 0 instructions: 120000010 cycles: 21492671 heartbeat IPC: 5.626 cumulative IPC: 5.477 (Simulation time: 00 hr 08 min 11 sec)
Heartbeat CPU 0 instructions: 130000002 cycles: 23217913 heartbeat IPC: 5.796 cumulative IPC: 5.507 (Simulation time: 00 hr 08 min 53 sec)
Simulation finished CPU 0 instructions: 100000002 cycles: 18157396 cumulative IPC: 5.507 (Simulation time: 00 hr 08 min 53 sec)
Simulation complete CPU 0 instructions: 100000002 cycles: 18157396 cumulative IPC: 5.507 (Simulation time: 00 hr 08 min 53 sec)

ChampSim completed all CPUs

=== Simulation ===
CPU 0 runs ../traces/secret_traces/compute_fp/compute_fp_109.champsimtrace.xz
Region of Interest Statistics

CPU 0 cumulative IPC: 5.507 instructions: 100000002 cycles: 18157396
CPU 0 Branch Prediction Accuracy: 99.57% MPKI: 0.4627 Average ROB Occupancy at Mispredict: 59.38
Branch type MPKI
BRANCH_DIRECT_JUMP: 0.00837
BRANCH_INDIRECT: 0.0947
BRANCH_CONDITIONAL: 0.324
BRANCH_DIRECT_CALL: 0.0212
BRANCH_INDIRECT_CALL: 0.00254
BRANCH_RETURN: 0.0116

LLC TOTAL        ACCESS:      86877 HIT:      67860 MISS:      19017
LLC LOAD         ACCESS:      12586 HIT:       8523 MISS:       4063
LLC RFO          ACCESS:      25995 HIT:      18568 MISS:       7427
LLC PREFETCH     ACCESS:      18050 HIT:      10718 MISS:       7332
LLC WRITE        ACCESS:      30052 HIT:      29992 MISS:         60
LLC TRANSLATION  ACCESS:        194 HIT:         59 MISS:        135
LLC PREFETCH REQUESTED:          0 ISSUED:          0 USEFUL:          0 USELESS:          0
LLC AVERAGE MISS LATENCY: 217.7 cycles
cpu0_DTLB TOTAL        ACCESS:   15005217 HIT:   14850937 MISS:     154280
cpu0_DTLB LOAD         ACCESS:   15005217 HIT:   14850937 MISS:     154280
cpu0_DTLB RFO          ACCESS:          0 HIT:          0 MISS:          0
cpu0_DTLB PREFETCH     ACCESS:          0 HIT:          0 MISS:          0
cpu0_DTLB WRITE        ACCESS:          0 HIT:          0 MISS:          0
cpu0_DTLB TRANSLATION  ACCESS:          0 HIT:          0 MISS:          0
cpu0_DTLB PREFETCH REQUESTED:          0 ISSUED:          0 USEFUL:          0 USELESS:          0
cpu0_DTLB AVERAGE MISS LATENCY: 4.366 cycles
cpu0_ITLB TOTAL        ACCESS:    9578515 HIT:    9576996 MISS:       1519
cpu0_ITLB LOAD         ACCESS:    9578515 HIT:    9576996 MISS:       1519
cpu0_ITLB RFO          ACCESS:          0 HIT:          0 MISS:          0
cpu0_ITLB PREFETCH     ACCESS:          0 HIT:          0 MISS:          0
cpu0_ITLB WRITE        ACCESS:          0 HIT:          0 MISS:          0
cpu0_ITLB TRANSLATION  ACCESS:          0 HIT:          0 MISS:          0
cpu0_ITLB PREFETCH REQUESTED:          0 ISSUED:          0 USEFUL:          0 USELESS:          0
cpu0_ITLB AVERAGE MISS LATENCY: 9.788 cycles
cpu0_L1D TOTAL        ACCESS:   24025196 HIT:   23685523 MISS:     339673
cpu0_L1D LOAD         ACCESS:   14709829 HIT:   14551164 MISS:     158665
cpu0_L1D RFO          ACCESS:          0 HIT:          0 MISS:          0
cpu0_L1D PREFETCH     ACCESS:     211809 HIT:     137578 MISS:      74231
cpu0_L1D WRITE        ACCESS:    9103297 HIT:    8996757 MISS:     106540
cpu0_L1D TRANSLATION  ACCESS:        261 HIT:         24 MISS:        237
cpu0_L1D PREFETCH REQUESTED:     768144 ISSUED:     211809 USEFUL:       2458 USELESS:        408
cpu0_L1D AVERAGE MISS LATENCY: 15.04 cycles
cpu0_L1I TOTAL        ACCESS:   14615151 HIT:   14422459 MISS:     192692
cpu0_L1I LOAD         ACCESS:    6088693 HIT:    6007844 MISS:      80849
cpu0_L1I RFO          ACCESS:          0 HIT:          0 MISS:          0
cpu0_L1I PREFETCH     ACCESS:    8526458 HIT:    8414615 MISS:     111843
cpu0_L1I WRITE        ACCESS:          0 HIT:          0 MISS:          0
cpu0_L1I TRANSLATION  ACCESS:          0 HIT:          0 MISS:          0
cpu0_L1I PREFETCH REQUESTED:   42553050 ISSUED:    8526426 USEFUL:      63028 USELESS:      41977
cpu0_L1I AVERAGE MISS LATENCY: 11.07 cycles
cpu0_L2C TOTAL        ACCESS:     747346 HIT:     674732 MISS:      72614
cpu0_L2C LOAD         ACCESS:     149281 HIT:     135147 MISS:      14134
cpu0_L2C RFO          ACCESS:      49467 HIT:      23463 MISS:      26004
cpu0_L2C PREFETCH     ACCESS:     488676 HIT:     456394 MISS:      32282
cpu0_L2C WRITE        ACCESS:      59686 HIT:      59686 MISS:          0
cpu0_L2C TRANSLATION  ACCESS:        236 HIT:         42 MISS:        194
cpu0_L2C PREFETCH REQUESTED:     321627 ISSUED:     316428 USEFUL:       5338 USELESS:       3579
cpu0_L2C AVERAGE MISS LATENCY: 72.2 cycles
cpu0_STLB TOTAL        ACCESS:     100927 HIT:     100719 MISS:        208
cpu0_STLB LOAD         ACCESS:     100927 HIT:     100719 MISS:        208
cpu0_STLB RFO          ACCESS:          0 HIT:          0 MISS:          0
cpu0_STLB PREFETCH     ACCESS:          0 HIT:          0 MISS:          0
cpu0_STLB WRITE        ACCESS:          0 HIT:          0 MISS:          0
cpu0_STLB TRANSLATION  ACCESS:          0 HIT:          0 MISS:          0
cpu0_STLB PREFETCH REQUESTED:          0 ISSUED:          0 USEFUL:          0 USELESS:          0
cpu0_STLB AVERAGE MISS LATENCY: 208.8 cycles

DRAM Statistics

Channel 0 RQ ROW_BUFFER_HIT:       4161
  ROW_BUFFER_MISS:       5595
 AVG DBUS CONGESTED CYCLE: 3.905
WQ ROW_BUFFER_HIT: Channel 0 
  ROW_BUFFER_MISS:        743
  FULL:       3955

Channel 1 RQ ROW_BUFFER_HIT:       3892
  ROW_BUFFER_MISS:       5280
 AVG DBUS CONGESTED CYCLE: 3.889
WQ ROW_BUFFER_HIT: Channel 1 
  ROW_BUFFER_MISS:        786
  FULL:       3496
BERTI TO_L1: 200348 TO_L2: 793538 TO_L2_BC_MSHR: 228632
BERTI AVG_LAT: 20.0002 NUM_TRACK_LATENCY: 158377 NUM_CANT_TRACK_LATENCY: 0
BERTI CROSS_PAGE 127336 NO_CROSS_PAGE: 866550
BERTI FOUND_BERTI: 1343585 NO_FOUND_BERTI: 18512373
BERTI AVERAGE_ISSUED: 2.81722
CPU 0 L1I Entangling prefetcher final stats
IP accesses: b712 2dc480 203347 / 6089733
IP misses: 8a11 228440 4340 / 81889
IP hits: 0 0 0 / 0
IP late: c411 310440 985 / 29548
IP wrong: 9111 244440 1220 / 41512
miss rate: 0.0134471
coverage: 0
coverage_late: 0.36083
accuracy: 0
accuracy_late: 0.415818
discarded: 0
evicts entangled j table: 0
evicts entangled k table: 2851
max bb size: 65
formats: 474 0 2673 811 606 1196 0 
hist_lookups: 3738 5434 3895 2568 1924 1303 1072 763 528 369 239 137 77 46 19 0 0 2474 
hist_lookups_evict: 0 %
hist_lookups_shortlat: 10.0627 %
bb_found_hist: 0 999405 583392 259703 123080 216987 100385 54339 39467 73754 58818 25201 20690 12657 23993 19167 17 22635 2481 11332 11 0 10536 10446 2162 4817 0 9045 1331 0 29 0 120 0 0 0 12 0 1453 0 0 0 0 0 0 0 37 0 5551 0 0 0 0 0 0 0 0 0 0 0 0 0 0 0 
bb_found_summary: 10285982 2693053 3.81946
entangled_found_hist: 0 428027 435195 966444 88907 117235 20561 0 
entangled_found_summary: 5262918 2056369 2.55933
bb_ent_found_hist: 0 1200572 549430 305825 370571 390774 370243 345049 140691 155672 28659 44955 84269 25984 119718 41729 0 13860 5123 24187 2007 0 0 157451 0 44620 0 71335 5826 0 215 0 223 0 0 0 104 0 3825 0 0 0 0 0 0 0 101 0 23579 0 0 0 0 0 0 0 0 0 0 0 0 0 0 0 
bb_ent_found_summary: 27201231 4526597 6.00921
