WARNING: physical memory size is smaller than virtual memory size.

*** ChampSim Multicore Out-of-Order Simulator ***
Warmup Instructions: 30000000
Simulation Instructions: 100000000
Number of CPUs: 1
Page size: 4096

BTB:
Basic BTB sets: 1024 ways: 8
Indirect:
history lengths: 0 0 10 16 27 44 60 96 109 219 449 487 714 1313 2146 3881 
ITTAGE tables: 64768 bytes;Region table: 240 bytes;IUM: 384 bytes;Total Storage= 65392 bytes;
RAS:
RAS size: 64
Berti Prefetcher
CPU 0 Entangling prefetcher
Off-chip DRAM Size: 8 GiB Channels: 2 Width: 64-bit Data Race: 6400 MT/s
Heartbeat CPU 0 instructions: 10000000 cycles: 1729004 heartbeat IPC: 5.784 cumulative IPC: 5.784 (Simulation time: 00 hr 00 min 48 sec)
Heartbeat CPU 0 instructions: 20000002 cycles: 3396422 heartbeat IPC: 5.997 cumulative IPC: 5.889 (Simulation time: 00 hr 01 min 32 sec)
Heartbeat CPU 0 instructions: 30000003 cycles: 5063426 heartbeat IPC: 5.999 cumulative IPC: 5.925 (Simulation time: 00 hr 02 min 05 sec)
Warmup finished CPU 0 instructions: 30000003 cycles: 5063427 cumulative IPC: 5.925 (Simulation time: 00 hr 02 min 05 sec)
Warmup complete CPU 0 instructions: 30000003 cycles: 5063427 cumulative IPC: 5.925 (Simulation time: 00 hr 02 min 05 sec)
Heartbeat CPU 0 instructions: 40000010 cycles: 7335089 heartbeat IPC: 4.402 cumulative IPC: 4.402 (Simulation time: 00 hr 02 min 55 sec)
Heartbeat CPU 0 instructions: 50000010 cycles: 14412649 heartbeat IPC: 1.413 cumulative IPC: 2.139 (Simulation time: 00 hr 05 min 01 sec)
Heartbeat CPU 0 instructions: 60000001 cycles: 18657916 heartbeat IPC: 2.356 cumulative IPC: 2.207 (Simulation time: 00 hr 06 min 35 sec)
Heartbeat CPU 0 instructions: 70000008 cycles: 20894683 heartbeat IPC: 4.471 cumulative IPC: 2.527 (Simulation time: 00 hr 07 min 45 sec)
Heartbeat CPU 0 instructions: 80000000 cycles: 23124207 heartbeat IPC: 4.485 cumulative IPC: 2.768 (Simulation time: 00 hr 08 min 38 sec)
Heartbeat CPU 0 instructions: 90000009 cycles: 25430348 heartbeat IPC: 4.336 cumulative IPC: 2.946 (Simulation time: 00 hr 09 min 38 sec)
Heartbeat CPU 0 instructions: 100000005 cycles: 32686734 heartbeat IPC: 1.378 cumulative IPC: 2.534 (Simulation time: 00 hr 11 min 42 sec)
*** Reached end of trace: (0, "../traces/secret_traces/compute_fp/compute_fp_47.champsimtrace.xz")
Heartbeat CPU 0 instructions: 110000000 cycles: 38351298 heartbeat IPC: 1.765 cumulative IPC: 2.403 (Simulation time: 00 hr 13 min 21 sec)
Heartbeat CPU 0 instructions: 120000011 cycles: 40573260 heartbeat IPC: 4.501 cumulative IPC: 2.535 (Simulation time: 00 hr 14 min 20 sec)
Heartbeat CPU 0 instructions: 130000005 cycles: 42638799 heartbeat IPC: 4.841 cumulative IPC: 2.661 (Simulation time: 00 hr 15 min 03 sec)
Simulation finished CPU 0 instructions: 100000002 cycles: 37575373 cumulative IPC: 2.661 (Simulation time: 00 hr 15 min 03 sec)
Simulation complete CPU 0 instructions: 100000002 cycles: 37575373 cumulative IPC: 2.661 (Simulation time: 00 hr 15 min 03 sec)

ChampSim completed all CPUs

=== Simulation ===
CPU 0 runs ../traces/secret_traces/compute_fp/compute_fp_47.champsimtrace.xz
Region of Interest Statistics

CPU 0 cumulative IPC: 2.661 instructions: 100000002 cycles: 37575373
CPU 0 Branch Prediction Accuracy: 99.75% MPKI: 0.1382 Average ROB Occupancy at Mispredict: 33.51
Branch type MPKI
BRANCH_DIRECT_JUMP: 0.00755
BRANCH_INDIRECT: 0.067
BRANCH_CONDITIONAL: 0.0296
BRANCH_DIRECT_CALL: 0.0205
BRANCH_INDIRECT_CALL: 0.00226
BRANCH_RETURN: 0.0113

LLC TOTAL        ACCESS:    1893906 HIT:     627148 MISS:    1266758
LLC LOAD         ACCESS:     151805 HIT:      12321 MISS:     139484
LLC RFO          ACCESS:     301587 HIT:      39790 MISS:     261797
LLC PREFETCH     ACCESS:     868279 HIT:       7160 MISS:     861119
LLC WRITE        ACCESS:     569927 HIT:     567696 MISS:       2231
LLC TRANSLATION  ACCESS:       2308 HIT:        181 MISS:       2127
LLC PREFETCH REQUESTED:          0 ISSUED:          0 USEFUL:          0 USELESS:          0
LLC AVERAGE MISS LATENCY: 370.9 cycles
cpu0_DTLB TOTAL        ACCESS:   16908328 HIT:   16832822 MISS:      75506
cpu0_DTLB LOAD         ACCESS:   16908328 HIT:   16832822 MISS:      75506
cpu0_DTLB RFO          ACCESS:          0 HIT:          0 MISS:          0
cpu0_DTLB PREFETCH     ACCESS:          0 HIT:          0 MISS:          0
cpu0_DTLB WRITE        ACCESS:          0 HIT:          0 MISS:          0
cpu0_DTLB TRANSLATION  ACCESS:          0 HIT:          0 MISS:          0
cpu0_DTLB PREFETCH REQUESTED:          0 ISSUED:          0 USEFUL:          0 USELESS:          0
cpu0_DTLB AVERAGE MISS LATENCY: 24.73 cycles
cpu0_ITLB TOTAL        ACCESS:     121166 HIT:     119563 MISS:       1603
cpu0_ITLB LOAD         ACCESS:     121166 HIT:     119563 MISS:       1603
cpu0_ITLB RFO          ACCESS:          0 HIT:          0 MISS:          0
cpu0_ITLB PREFETCH     ACCESS:          0 HIT:          0 MISS:          0
cpu0_ITLB WRITE        ACCESS:          0 HIT:          0 MISS:          0
cpu0_ITLB TRANSLATION  ACCESS:          0 HIT:          0 MISS:          0
cpu0_ITLB PREFETCH REQUESTED:          0 ISSUED:          0 USEFUL:          0 USELESS:          0
cpu0_ITLB AVERAGE MISS LATENCY: 63.86 cycles
cpu0_L1D TOTAL        ACCESS:   34916435 HIT:   29061748 MISS:    5854687
cpu0_L1D LOAD         ACCESS:   16324975 HIT:   13919470 MISS:    2405505
cpu0_L1D RFO          ACCESS:          0 HIT:          0 MISS:          0
cpu0_L1D PREFETCH     ACCESS:   13204409 HIT:   11040819 MISS:    2163590
cpu0_L1D WRITE        ACCESS:    5374491 HIT:    4094567 MISS:    1279924
cpu0_L1D TRANSLATION  ACCESS:      12560 HIT:       6892 MISS:       5668
cpu0_L1D PREFETCH REQUESTED:  182059881 ISSUED:   13204411 USEFUL:     776919 USELESS:      32188
cpu0_L1D AVERAGE MISS LATENCY: 54.57 cycles
cpu0_L1I TOTAL        ACCESS:     175591 HIT:     138691 MISS:      36900
cpu0_L1I LOAD         ACCESS:      62970 HIT:      51295 MISS:      11675
cpu0_L1I RFO          ACCESS:          0 HIT:          0 MISS:          0
cpu0_L1I PREFETCH     ACCESS:     112621 HIT:      87396 MISS:      25225
cpu0_L1I WRITE        ACCESS:          0 HIT:          0 MISS:          0
cpu0_L1I TRANSLATION  ACCESS:          0 HIT:          0 MISS:          0
cpu0_L1I PREFETCH REQUESTED:     164765 ISSUED:     112621 USEFUL:      14100 USELESS:       8822
cpu0_L1I AVERAGE MISS LATENCY: 127.5 cycles
cpu0_L2C TOTAL        ACCESS:    6360090 HIT:    3113907 MISS:    3246183
cpu0_L2C LOAD         ACCESS:     792585 HIT:     420918 MISS:     371667
cpu0_L2C RFO          ACCESS:     376580 HIT:      74957 MISS:     301623
cpu0_L2C PREFETCH     ACCESS:    4424478 HIT:    1853952 MISS:    2570526
cpu0_L2C WRITE        ACCESS:     760806 HIT:     760747 MISS:         59
cpu0_L2C TRANSLATION  ACCESS:       5641 HIT:       3333 MISS:       2308
cpu0_L2C PREFETCH REQUESTED:    2682449 ISSUED:    2563898 USEFUL:     291872 USELESS:     180522
cpu0_L2C AVERAGE MISS LATENCY: 141.2 cycles
cpu0_STLB TOTAL        ACCESS:      24176 HIT:      11862 MISS:      12314
cpu0_STLB LOAD         ACCESS:      24176 HIT:      11862 MISS:      12314
cpu0_STLB RFO          ACCESS:          0 HIT:          0 MISS:          0
cpu0_STLB PREFETCH     ACCESS:          0 HIT:          0 MISS:          0
cpu0_STLB WRITE        ACCESS:          0 HIT:          0 MISS:          0
cpu0_STLB TRANSLATION  ACCESS:          0 HIT:          0 MISS:          0
cpu0_STLB PREFETCH REQUESTED:          0 ISSUED:          0 USEFUL:          0 USELESS:          0
cpu0_STLB AVERAGE MISS LATENCY: 184.2 cycles

DRAM Statistics

Channel 0 RQ ROW_BUFFER_HIT:     185058
  ROW_BUFFER_MISS:     448372
 AVG DBUS CONGESTED CYCLE: 3.951
WQ ROW_BUFFER_HIT: Channel 0 
  ROW_BUFFER_MISS:      52311
  FULL:     207722

Channel 1 RQ ROW_BUFFER_HIT:     183585
  ROW_BUFFER_MISS:     447497
 AVG DBUS CONGESTED CYCLE: 3.949
WQ ROW_BUFFER_HIT: Channel 1 
  ROW_BUFFER_MISS:      53408
  FULL:     206104
BERTI TO_L1: 154050000 TO_L2: 88028107 TO_L2_BC_MSHR: 39682466
BERTI AVG_LAT: 188.905 NUM_TRACK_LATENCY: 2054718 NUM_CANT_TRACK_LATENCY: 16
BERTI CROSS_PAGE 31072943 NO_CROSS_PAGE: 211005164
BERTI FOUND_BERTI: 26436912 NO_FOUND_BERTI: 1051115
BERTI AVERAGE_ISSUED: 3.23587
CPU 0 L1I Entangling prefetcher final stats
IP accesses: 4244 109100 973 / 92083
IP misses: 4244 109100 961 / 40788
IP hits: 0 0 0 / 0
IP late: 2609 98240 20 / 6037
IP wrong: dac9 36b240 36 / 8749
miss rate: 0.442949
coverage: 0
coverage_late: 0.14801
accuracy: 0
accuracy_late: 0.408292
discarded: 0
evicts entangled j table: 0
evicts entangled k table: 1598
max bb size: 65
formats: 466 0 1339 726 313 709 0 
hist_lookups: 1164 1215 949 857 736 663 551 433 358 275 204 131 87 45 25 0 24 4159 
hist_lookups_evict: 0.202089 %
hist_lookups_shortlat: 35.0203 %
bb_found_hist: 0 14937 6272 3010 1060 720 235 76 60 14 11 6 12 0 3 1 17 4 0 0 2 0 0 0 0 0 0 0 0 0 0 0 0 0 0 0 0 0 0 0 0 0 0 0 0 0 0 0 0 0 0 0 0 0 0 0 0 0 0 0 0 0 0 0 
bb_found_summary: 47656 26440 1.80243
entangled_found_hist: 0 8006 5217 9583 1805 391 61 0 
entangled_found_summary: 56730 25063 2.2635
bb_ent_found_hist: 0 18777 9709 5405 2135 1395 808 205 112 9 17 4 0 0 0 1 0 6 0 0 0 0 0 0 0 0 0 0 0 0 0 0 0 0 0 0 0 0 0 0 0 0 0 0 0 0 0 0 0 0 0 0 0 0 0 0 0 0 0 0 0 0 0 0 
bb_ent_found_summary: 77516 38583 2.00908
