WARNING: physical memory size is smaller than virtual memory size.

*** ChampSim Multicore Out-of-Order Simulator ***
Warmup Instructions: 30000000
Simulation Instructions: 100000000
Number of CPUs: 1
Page size: 4096

BTB:
Basic BTB sets: 1024 ways: 8
Indirect:
history lengths: 0 0 10 16 27 44 60 96 109 219 449 487 714 1313 2146 3881 
ITTAGE tables: 64768 bytes;Region table: 240 bytes;IUM: 384 bytes;Total Storage= 65392 bytes;
RAS:
RAS size: 64
Berti Prefetcher
CPU 0 Entangling prefetcher
Off-chip DRAM Size: 8 GiB Channels: 2 Width: 64-bit Data Race: 6400 MT/s
Heartbeat CPU 0 instructions: 10000001 cycles: 1726943 heartbeat IPC: 5.791 cumulative IPC: 5.791 (Simulation time: 00 hr 00 min 39 sec)
Heartbeat CPU 0 instructions: 20000000 cycles: 3411556 heartbeat IPC: 5.936 cumulative IPC: 5.862 (Simulation time: 00 hr 01 min 18 sec)
Heartbeat CPU 0 instructions: 30000004 cycles: 5078399 heartbeat IPC: 5.999 cumulative IPC: 5.907 (Simulation time: 00 hr 01 min 50 sec)
Warmup finished CPU 0 instructions: 30000004 cycles: 5078400 cumulative IPC: 5.907 (Simulation time: 00 hr 01 min 50 sec)
Warmup complete CPU 0 instructions: 30000004 cycles: 5078400 cumulative IPC: 5.907 (Simulation time: 00 hr 01 min 50 sec)
Heartbeat CPU 0 instructions: 40000003 cycles: 6760378 heartbeat IPC: 5.945 cumulative IPC: 5.945 (Simulation time: 00 hr 02 min 26 sec)
Heartbeat CPU 0 instructions: 50000005 cycles: 8442321 heartbeat IPC: 5.946 cumulative IPC: 5.945 (Simulation time: 00 hr 03 min 03 sec)
Heartbeat CPU 0 instructions: 60000006 cycles: 10122346 heartbeat IPC: 5.952 cumulative IPC: 5.948 (Simulation time: 00 hr 03 min 40 sec)
Heartbeat CPU 0 instructions: 70000006 cycles: 11802408 heartbeat IPC: 5.952 cumulative IPC: 5.949 (Simulation time: 00 hr 04 min 17 sec)
Heartbeat CPU 0 instructions: 80000008 cycles: 13483549 heartbeat IPC: 5.948 cumulative IPC: 5.949 (Simulation time: 00 hr 04 min 53 sec)
Heartbeat CPU 0 instructions: 90000000 cycles: 15167051 heartbeat IPC: 5.94 cumulative IPC: 5.947 (Simulation time: 00 hr 05 min 30 sec)
Heartbeat CPU 0 instructions: 100000011 cycles: 16857512 heartbeat IPC: 5.916 cumulative IPC: 5.943 (Simulation time: 00 hr 06 min 09 sec)
*** Reached end of trace: (0, "../traces/secret_traces/compute_fp/compute_fp_46.champsimtrace.xz")
Heartbeat CPU 0 instructions: 110000003 cycles: 20433420 heartbeat IPC: 2.796 cumulative IPC: 5.21 (Simulation time: 00 hr 07 min 16 sec)
Heartbeat CPU 0 instructions: 120000011 cycles: 22580479 heartbeat IPC: 4.658 cumulative IPC: 5.142 (Simulation time: 00 hr 08 min 08 sec)
Heartbeat CPU 0 instructions: 130000001 cycles: 24308732 heartbeat IPC: 5.786 cumulative IPC: 5.2 (Simulation time: 00 hr 08 min 47 sec)
Simulation finished CPU 0 instructions: 100000003 cycles: 19230342 cumulative IPC: 5.2 (Simulation time: 00 hr 08 min 47 sec)
Simulation complete CPU 0 instructions: 100000003 cycles: 19230342 cumulative IPC: 5.2 (Simulation time: 00 hr 08 min 47 sec)

ChampSim completed all CPUs

=== Simulation ===
CPU 0 runs ../traces/secret_traces/compute_fp/compute_fp_46.champsimtrace.xz
Region of Interest Statistics

CPU 0 cumulative IPC: 5.2 instructions: 100000003 cycles: 19230342
CPU 0 Branch Prediction Accuracy: 96.3% MPKI: 0.5109 Average ROB Occupancy at Mispredict: 45.99
Branch type MPKI
BRANCH_DIRECT_JUMP: 0.00803
BRANCH_INDIRECT: 0.075
BRANCH_CONDITIONAL: 0.393
BRANCH_DIRECT_CALL: 0.021
BRANCH_INDIRECT_CALL: 0.00252
BRANCH_RETURN: 0.0117

LLC TOTAL        ACCESS:     295187 HIT:     144959 MISS:     150228
LLC LOAD         ACCESS:      27387 HIT:       9424 MISS:      17963
LLC RFO          ACCESS:      57284 HIT:      11197 MISS:      46087
LLC PREFETCH     ACCESS:     127612 HIT:      44711 MISS:      82901
LLC WRITE        ACCESS:      82031 HIT:      79515 MISS:       2516
LLC TRANSLATION  ACCESS:        873 HIT:        112 MISS:        761
LLC PREFETCH REQUESTED:          0 ISSUED:          0 USEFUL:          0 USELESS:          0
LLC AVERAGE MISS LATENCY: 255.4 cycles
cpu0_DTLB TOTAL        ACCESS:   13946304 HIT:   13898786 MISS:      47518
cpu0_DTLB LOAD         ACCESS:   13946304 HIT:   13898786 MISS:      47518
cpu0_DTLB RFO          ACCESS:          0 HIT:          0 MISS:          0
cpu0_DTLB PREFETCH     ACCESS:          0 HIT:          0 MISS:          0
cpu0_DTLB WRITE        ACCESS:          0 HIT:          0 MISS:          0
cpu0_DTLB TRANSLATION  ACCESS:          0 HIT:          0 MISS:          0
cpu0_DTLB PREFETCH REQUESTED:          0 ISSUED:          0 USEFUL:          0 USELESS:          0
cpu0_DTLB AVERAGE MISS LATENCY: 7.219 cycles
cpu0_ITLB TOTAL        ACCESS:     168279 HIT:     166568 MISS:       1711
cpu0_ITLB LOAD         ACCESS:     168279 HIT:     166568 MISS:       1711
cpu0_ITLB RFO          ACCESS:          0 HIT:          0 MISS:          0
cpu0_ITLB PREFETCH     ACCESS:          0 HIT:          0 MISS:          0
cpu0_ITLB WRITE        ACCESS:          0 HIT:          0 MISS:          0
cpu0_ITLB TRANSLATION  ACCESS:          0 HIT:          0 MISS:          0
cpu0_ITLB PREFETCH REQUESTED:          0 ISSUED:          0 USEFUL:          0 USELESS:          0
cpu0_ITLB AVERAGE MISS LATENCY: 42.98 cycles
cpu0_L1D TOTAL        ACCESS:   25011580 HIT:   22239525 MISS:    2772055
cpu0_L1D LOAD         ACCESS:   13350561 HIT:   11339444 MISS:    2011117
cpu0_L1D RFO          ACCESS:          0 HIT:          0 MISS:          0
cpu0_L1D PREFETCH     ACCESS:    2989018 HIT:    2617963 MISS:     371055
cpu0_L1D WRITE        ACCESS:    8669178 HIT:    8280784 MISS:     388394
cpu0_L1D TRANSLATION  ACCESS:       2823 HIT:       1334 MISS:       1489
cpu0_L1D PREFETCH REQUESTED:   12649414 ISSUED:    2989018 USEFUL:     108402 USELESS:       1532
cpu0_L1D AVERAGE MISS LATENCY: 11.04 cycles
cpu0_L1I TOTAL        ACCESS:     243906 HIT:     208209 MISS:      35697
cpu0_L1I LOAD         ACCESS:      83474 HIT:      72836 MISS:      10638
cpu0_L1I RFO          ACCESS:          0 HIT:          0 MISS:          0
cpu0_L1I PREFETCH     ACCESS:     160432 HIT:     135373 MISS:      25059
cpu0_L1I WRITE        ACCESS:          0 HIT:          0 MISS:          0
cpu0_L1I TRANSLATION  ACCESS:          0 HIT:          0 MISS:          0
cpu0_L1I PREFETCH REQUESTED:     221013 ISSUED:     160432 USEFUL:      13680 USELESS:       9516
cpu0_L1I AVERAGE MISS LATENCY: 62.78 cycles
cpu0_L2C TOTAL        ACCESS:    2699668 HIT:    2320951 MISS:     378717
cpu0_L2C LOAD         ACCESS:     749624 HIT:     712087 MISS:      37537
cpu0_L2C RFO          ACCESS:      66004 HIT:       8701 MISS:      57303
cpu0_L2C PREFETCH     ACCESS:    1469572 HIT:    1186575 MISS:     282997
cpu0_L2C WRITE        ACCESS:     413016 HIT:     413009 MISS:          7
cpu0_L2C TRANSLATION  ACCESS:       1452 HIT:        579 MISS:        873
cpu0_L2C PREFETCH REQUESTED:    1122796 ISSUED:    1096550 USEFUL:      73769 USELESS:      11691
cpu0_L2C AVERAGE MISS LATENCY: 110.3 cycles
cpu0_STLB TOTAL        ACCESS:      24564 HIT:      21859 MISS:       2705
cpu0_STLB LOAD         ACCESS:      24564 HIT:      21859 MISS:       2705
cpu0_STLB RFO          ACCESS:          0 HIT:          0 MISS:          0
cpu0_STLB PREFETCH     ACCESS:          0 HIT:          0 MISS:          0
cpu0_STLB WRITE        ACCESS:          0 HIT:          0 MISS:          0
cpu0_STLB TRANSLATION  ACCESS:          0 HIT:          0 MISS:          0
cpu0_STLB PREFETCH REQUESTED:          0 ISSUED:          0 USEFUL:          0 USELESS:          0
cpu0_STLB AVERAGE MISS LATENCY: 126.7 cycles

DRAM Statistics

Channel 0 RQ ROW_BUFFER_HIT:      36922
  ROW_BUFFER_MISS:      37144
 AVG DBUS CONGESTED CYCLE: 3.927
WQ ROW_BUFFER_HIT: Channel 0 
  ROW_BUFFER_MISS:       3500
  FULL:      28036

Channel 1 RQ ROW_BUFFER_HIT:      37098
  ROW_BUFFER_MISS:      36517
 AVG DBUS CONGESTED CYCLE: 3.92
WQ ROW_BUFFER_HIT: Channel 1 
  ROW_BUFFER_MISS:       3633
  FULL:      27536
BERTI TO_L1: 18241151 TO_L2: 7287125 TO_L2_BC_MSHR: 2483354
BERTI AVG_LAT: 40.0825 NUM_TRACK_LATENCY: 1103651 NUM_CANT_TRACK_LATENCY: 1
BERTI CROSS_PAGE 4424389 NO_CROSS_PAGE: 21103887
BERTI FOUND_BERTI: 8339307 NO_FOUND_BERTI: 10043735
BERTI AVERAGE_ISSUED: 4.48042
CPU 0 L1I Entangling prefetcher final stats
IP accesses: 6594 196500 1633 / 91190
IP misses: 399c e6700 449 / 18354
IP hits: 0 0 0 / 0
IP late: 684f 1a13c0 14 / 5539
IP wrong: e8e9 3a3a40 22 / 9456
miss rate: 0.201273
coverage: 0
coverage_late: 0.301788
accuracy: 0
accuracy_late: 0.36939
discarded: 0
evicts entangled j table: 0
evicts entangled k table: 1645
max bb size: 65
formats: 452 0 1315 748 313 707 0 
hist_lookups: 1065 1250 1043 938 843 736 532 453 345 263 180 118 62 34 25 0 9 3053 
hist_lookups_evict: 0.0821993 %
hist_lookups_shortlat: 27.8839 %
bb_found_hist: 0 18439 11797 4904 1504 653 531 70 63 25 34 25 13 1 8 2 17 19 0 1 2 0 0 18 0 0 1 0 0 0 0 0 0 0 0 0 0 0 0 0 0 0 0 0 0 0 0 0 0 2 0 0 0 0 0 0 0 0 0 0 0 0 0 0 
bb_found_summary: 72549 38129 1.90273
entangled_found_hist: 0 11066 8096 10376 1869 377 38 0 
entangled_found_summary: 67975 31822 2.13611
bb_ent_found_hist: 0 22251 11492 6104 2441 1420 1974 179 88 9 39 16 2 1 10 1 0 28 0 2 5 0 0 26 0 0 3 0 0 0 0 0 0 0 0 0 0 0 0 0 0 0 0 0 0 0 0 0 0 3 0 0 0 0 0 0 0 0 0 0 0 0 0 0 
bb_ent_found_summary: 96488 46094 2.09329
