WARNING: physical memory size is smaller than virtual memory size.

*** ChampSim Multicore Out-of-Order Simulator ***
Warmup Instructions: 30000000
Simulation Instructions: 100000000
Number of CPUs: 1
Page size: 4096

BTB:
Basic BTB sets: 1024 ways: 8
Indirect:
history lengths: 0 0 10 16 27 44 60 96 109 219 449 487 714 1313 2146 3881 
ITTAGE tables: 64768 bytes;Region table: 240 bytes;IUM: 384 bytes;Total Storage= 65392 bytes;
RAS:
RAS size: 64
Berti Prefetcher
CPU 0 Entangling prefetcher
Off-chip DRAM Size: 8 GiB Channels: 2 Width: 64-bit Data Race: 6400 MT/s
Heartbeat CPU 0 instructions: 10000002 cycles: 1716668 heartbeat IPC: 5.825 cumulative IPC: 5.825 (Simulation time: 00 hr 00 min 32 sec)
Heartbeat CPU 0 instructions: 20000001 cycles: 3384303 heartbeat IPC: 5.997 cumulative IPC: 5.91 (Simulation time: 00 hr 01 min 04 sec)
Heartbeat CPU 0 instructions: 30000005 cycles: 5051644 heartbeat IPC: 5.998 cumulative IPC: 5.939 (Simulation time: 00 hr 01 min 36 sec)
Warmup finished CPU 0 instructions: 30000005 cycles: 5051645 cumulative IPC: 5.939 (Simulation time: 00 hr 01 min 36 sec)
Warmup complete CPU 0 instructions: 30000005 cycles: 5051645 cumulative IPC: 5.939 (Simulation time: 00 hr 01 min 36 sec)
Heartbeat CPU 0 instructions: 40000004 cycles: 7056642 heartbeat IPC: 4.988 cumulative IPC: 4.988 (Simulation time: 00 hr 02 min 16 sec)
Heartbeat CPU 0 instructions: 50000003 cycles: 9002385 heartbeat IPC: 5.139 cumulative IPC: 5.062 (Simulation time: 00 hr 02 min 56 sec)
Heartbeat CPU 0 instructions: 60000000 cycles: 11009325 heartbeat IPC: 4.983 cumulative IPC: 5.036 (Simulation time: 00 hr 03 min 39 sec)
Heartbeat CPU 0 instructions: 70000011 cycles: 12966920 heartbeat IPC: 5.108 cumulative IPC: 5.054 (Simulation time: 00 hr 04 min 17 sec)
Heartbeat CPU 0 instructions: 80000001 cycles: 14930398 heartbeat IPC: 5.093 cumulative IPC: 5.061 (Simulation time: 00 hr 05 min 00 sec)
Heartbeat CPU 0 instructions: 90000009 cycles: 16928949 heartbeat IPC: 5.004 cumulative IPC: 5.052 (Simulation time: 00 hr 05 min 42 sec)
Heartbeat CPU 0 instructions: 100000008 cycles: 18854517 heartbeat IPC: 5.193 cumulative IPC: 5.071 (Simulation time: 00 hr 06 min 20 sec)
*** Reached end of trace: (0, "../traces/secret_traces/compute_fp/compute_fp_70.champsimtrace.xz")
Heartbeat CPU 0 instructions: 110000002 cycles: 21847046 heartbeat IPC: 3.342 cumulative IPC: 4.763 (Simulation time: 00 hr 07 min 08 sec)
Heartbeat CPU 0 instructions: 120000001 cycles: 23852386 heartbeat IPC: 4.987 cumulative IPC: 4.787 (Simulation time: 00 hr 07 min 50 sec)
Heartbeat CPU 0 instructions: 130000008 cycles: 25793643 heartbeat IPC: 5.151 cumulative IPC: 4.821 (Simulation time: 00 hr 08 min 32 sec)
Simulation finished CPU 0 instructions: 100000003 cycles: 20741999 cumulative IPC: 4.821 (Simulation time: 00 hr 08 min 32 sec)
Simulation complete CPU 0 instructions: 100000003 cycles: 20741999 cumulative IPC: 4.821 (Simulation time: 00 hr 08 min 32 sec)

ChampSim completed all CPUs

=== Simulation ===
CPU 0 runs ../traces/secret_traces/compute_fp/compute_fp_70.champsimtrace.xz
Region of Interest Statistics

CPU 0 cumulative IPC: 4.821 instructions: 100000003 cycles: 20741999
CPU 0 Branch Prediction Accuracy: 97.07% MPKI: 1.889 Average ROB Occupancy at Mispredict: 30.85
Branch type MPKI
BRANCH_DIRECT_JUMP: 0.00715
BRANCH_INDIRECT: 0.0676
BRANCH_CONDITIONAL: 1.78
BRANCH_DIRECT_CALL: 0.0197
BRANCH_INDIRECT_CALL: 0.00237
BRANCH_RETURN: 0.0109

LLC TOTAL        ACCESS:     110410 HIT:      53484 MISS:      56926
LLC LOAD         ACCESS:      19451 HIT:       3137 MISS:      16314
LLC RFO          ACCESS:      26266 HIT:       9538 MISS:      16728
LLC PREFETCH     ACCESS:      29999 HIT:       6626 MISS:      23373
LLC WRITE        ACCESS:      34268 HIT:      34125 MISS:        143
LLC TRANSLATION  ACCESS:        426 HIT:         58 MISS:        368
LLC PREFETCH REQUESTED:          0 ISSUED:          0 USEFUL:          0 USELESS:          0
LLC AVERAGE MISS LATENCY: 212.5 cycles
cpu0_DTLB TOTAL        ACCESS:   15455521 HIT:   15443615 MISS:      11906
cpu0_DTLB LOAD         ACCESS:   15455521 HIT:   15443615 MISS:      11906
cpu0_DTLB RFO          ACCESS:          0 HIT:          0 MISS:          0
cpu0_DTLB PREFETCH     ACCESS:          0 HIT:          0 MISS:          0
cpu0_DTLB WRITE        ACCESS:          0 HIT:          0 MISS:          0
cpu0_DTLB TRANSLATION  ACCESS:          0 HIT:          0 MISS:          0
cpu0_DTLB PREFETCH REQUESTED:          0 ISSUED:          0 USEFUL:          0 USELESS:          0
cpu0_DTLB AVERAGE MISS LATENCY: 12.22 cycles
cpu0_ITLB TOTAL        ACCESS:     117357 HIT:     116008 MISS:       1349
cpu0_ITLB LOAD         ACCESS:     117357 HIT:     116008 MISS:       1349
cpu0_ITLB RFO          ACCESS:          0 HIT:          0 MISS:          0
cpu0_ITLB PREFETCH     ACCESS:          0 HIT:          0 MISS:          0
cpu0_ITLB WRITE        ACCESS:          0 HIT:          0 MISS:          0
cpu0_ITLB TRANSLATION  ACCESS:          0 HIT:          0 MISS:          0
cpu0_ITLB PREFETCH REQUESTED:          0 ISSUED:          0 USEFUL:          0 USELESS:          0
cpu0_ITLB AVERAGE MISS LATENCY: 20.23 cycles
cpu0_L1D TOTAL        ACCESS:   22883197 HIT:   21635698 MISS:    1247499
cpu0_L1D LOAD         ACCESS:   15353807 HIT:   14618016 MISS:     735791
cpu0_L1D RFO          ACCESS:          0 HIT:          0 MISS:          0
cpu0_L1D PREFETCH     ACCESS:    1520262 HIT:    1142127 MISS:     378135
cpu0_L1D WRITE        ACCESS:    6008299 HIT:    5875331 MISS:     132968
cpu0_L1D TRANSLATION  ACCESS:        829 HIT:        224 MISS:        605
cpu0_L1D PREFETCH REQUESTED:    3364526 ISSUED:    1520262 USEFUL:      18753 USELESS:       8724
cpu0_L1D AVERAGE MISS LATENCY: 9.92 cycles
cpu0_L1I TOTAL        ACCESS:     170663 HIT:     136755 MISS:      33908
cpu0_L1I LOAD         ACCESS:      59510 HIT:      49092 MISS:      10418
cpu0_L1I RFO          ACCESS:          0 HIT:          0 MISS:          0
cpu0_L1I PREFETCH     ACCESS:     111153 HIT:      87663 MISS:      23490
cpu0_L1I WRITE        ACCESS:          0 HIT:          0 MISS:          0
cpu0_L1I TRANSLATION  ACCESS:          0 HIT:          0 MISS:          0
cpu0_L1I PREFETCH REQUESTED:     175313 ISSUED:     111153 USEFUL:      13020 USELESS:       8821
cpu0_L1I AVERAGE MISS LATENCY: 34.69 cycles
cpu0_L2C TOTAL        ACCESS:    1525956 HIT:    1413091 MISS:     112865
cpu0_L2C LOAD         ACCESS:     331520 HIT:     307309 MISS:      24211
cpu0_L2C RFO          ACCESS:      41343 HIT:      15062 MISS:      26281
cpu0_L2C PREFETCH     ACCESS:    1023027 HIT:     961081 MISS:      61946
cpu0_L2C WRITE        ACCESS:     129502 HIT:     129501 MISS:          1
cpu0_L2C TRANSLATION  ACCESS:        564 HIT:        138 MISS:        426
cpu0_L2C PREFETCH REQUESTED:     700257 ISSUED:     654646 USEFUL:      12726 USELESS:       5276
cpu0_L2C AVERAGE MISS LATENCY: 118.7 cycles
cpu0_STLB TOTAL        ACCESS:       5993 HIT:       5232 MISS:        761
cpu0_STLB LOAD         ACCESS:       5993 HIT:       5232 MISS:        761
cpu0_STLB RFO          ACCESS:          0 HIT:          0 MISS:          0
cpu0_STLB PREFETCH     ACCESS:          0 HIT:          0 MISS:          0
cpu0_STLB WRITE        ACCESS:          0 HIT:          0 MISS:          0
cpu0_STLB TRANSLATION  ACCESS:          0 HIT:          0 MISS:          0
cpu0_STLB PREFETCH REQUESTED:          0 ISSUED:          0 USEFUL:          0 USELESS:          0
cpu0_STLB AVERAGE MISS LATENCY: 203.8 cycles

DRAM Statistics

Channel 0 RQ ROW_BUFFER_HIT:      14540
  ROW_BUFFER_MISS:      14087
 AVG DBUS CONGESTED CYCLE: 3.915
WQ ROW_BUFFER_HIT: Channel 0 
  ROW_BUFFER_MISS:       1428
  FULL:      11341

Channel 1 RQ ROW_BUFFER_HIT:      14428
  ROW_BUFFER_MISS:      13712
 AVG DBUS CONGESTED CYCLE: 3.904
WQ ROW_BUFFER_HIT: Channel 1 
  ROW_BUFFER_MISS:       1449
  FULL:      10908
BERTI TO_L1: 959028 TO_L2: 3742562 TO_L2_BC_MSHR: 655140
BERTI AVG_LAT: 21.2939 NUM_TRACK_LATENCY: 475851 NUM_CANT_TRACK_LATENCY: 0
BERTI CROSS_PAGE 1084093 NO_CROSS_PAGE: 3617497
BERTI FOUND_BERTI: 8146710 NO_FOUND_BERTI: 12042727
BERTI AVERAGE_ISSUED: 2.86291
CPU 0 L1I Entangling prefetcher final stats
IP accesses: 5aeb 16bac0 244 / 60822
IP misses: 5e56 179580 92 / 11730
IP hits: 0 0 0 / 0
IP late: 216f 85bc0 12 / 5285
IP wrong: 2172 85c80 23 / 8767
miss rate: 0.192858
coverage: 0
coverage_late: 0.450555
accuracy: 0
accuracy_late: 0.376104
discarded: 0
evicts entangled j table: 0
evicts entangled k table: 1624
max bb size: 45
formats: 419 0 1373 707 312 681 0 
hist_lookups: 1085 1242 988 943 849 717 630 449 354 286 189 113 69 40 7 0 0 2566 
hist_lookups_evict: 0 %
hist_lookups_shortlat: 24.3755 %
bb_found_hist: 0 14502 6124 2698 1102 830 311 94 25 27 11 45 12 0 3 2 17 20 0 0 0 0 0 0 0 0 0 0 0 0 0 0 0 0 0 0 0 0 10 0 0 0 0 0 0 1 0 0 0 0 0 0 0 0 0 0 0 0 0 0 0 0 0 0 
bb_found_summary: 48227 25834 1.86681
entangled_found_hist: 0 8511 4960 9903 2023 379 104 0 
entangled_found_summary: 58751 25880 2.27014
bb_ent_found_hist: 0 20240 10035 5032 2520 1288 796 260 161 5 13 222 0 0 0 3 0 2 0 0 0 0 0 0 0 0 0 0 0 0 0 0 0 0 0 0 0 0 29 0 0 0 0 0 0 2 0 0 0 0 0 0 0 0 0 0 0 0 0 0 0 0 0 0 
bb_ent_found_summary: 83698 40608 2.06113
