WARNING: physical memory size is smaller than virtual memory size.

*** ChampSim Multicore Out-of-Order Simulator ***
Warmup Instructions: 30000000
Simulation Instructions: 100000000
Number of CPUs: 1
Page size: 4096

BTB:
Basic BTB sets: 1024 ways: 8
Indirect:
history lengths: 0 0 10 16 27 44 60 96 109 219 449 487 714 1313 2146 3881 
ITTAGE tables: 64768 bytes;Region table: 240 bytes;IUM: 384 bytes;Total Storage= 65392 bytes;
RAS:
RAS size: 64
Berti Prefetcher
CPU 0 Entangling prefetcher
Off-chip DRAM Size: 8 GiB Channels: 2 Width: 64-bit Data Race: 6400 MT/s
Heartbeat CPU 0 instructions: 10000009 cycles: 1716793 heartbeat IPC: 5.825 cumulative IPC: 5.825 (Simulation time: 00 hr 00 min 40 sec)
Heartbeat CPU 0 instructions: 20000004 cycles: 3950432 heartbeat IPC: 4.477 cumulative IPC: 5.063 (Simulation time: 00 hr 01 min 31 sec)
Heartbeat CPU 0 instructions: 30000000 cycles: 5617631 heartbeat IPC: 5.998 cumulative IPC: 5.34 (Simulation time: 00 hr 02 min 17 sec)
Warmup finished CPU 0 instructions: 30000000 cycles: 5617632 cumulative IPC: 5.34 (Simulation time: 00 hr 02 min 17 sec)
Warmup complete CPU 0 instructions: 30000000 cycles: 5617632 cumulative IPC: 5.34 (Simulation time: 00 hr 02 min 17 sec)
Heartbeat CPU 0 instructions: 40000002 cycles: 16072413 heartbeat IPC: 0.9565 cumulative IPC: 0.9565 (Simulation time: 00 hr 04 min 56 sec)
Heartbeat CPU 0 instructions: 50000001 cycles: 26022830 heartbeat IPC: 1.005 cumulative IPC: 0.9801 (Simulation time: 00 hr 07 min 26 sec)
Heartbeat CPU 0 instructions: 60000011 cycles: 36109609 heartbeat IPC: 0.9914 cumulative IPC: 0.9839 (Simulation time: 00 hr 10 min 00 sec)
Heartbeat CPU 0 instructions: 70000002 cycles: 47360160 heartbeat IPC: 0.8888 cumulative IPC: 0.9583 (Simulation time: 00 hr 13 min 02 sec)
Heartbeat CPU 0 instructions: 80000011 cycles: 72669379 heartbeat IPC: 0.3951 cumulative IPC: 0.7457 (Simulation time: 00 hr 20 min 23 sec)
Heartbeat CPU 0 instructions: 90000004 cycles: 85034291 heartbeat IPC: 0.8087 cumulative IPC: 0.7555 (Simulation time: 00 hr 23 min 31 sec)
Heartbeat CPU 0 instructions: 100000004 cycles: 97525751 heartbeat IPC: 0.8005 cumulative IPC: 0.7616 (Simulation time: 00 hr 26 min 31 sec)
*** Reached end of trace: (0, "../traces/secret_traces/compute_fp/compute_fp_71.champsimtrace.xz")
Heartbeat CPU 0 instructions: 110000000 cycles: 110345597 heartbeat IPC: 0.78 cumulative IPC: 0.7639 (Simulation time: 00 hr 29 min 37 sec)
Heartbeat CPU 0 instructions: 120000002 cycles: 130299069 heartbeat IPC: 0.5012 cumulative IPC: 0.7218 (Simulation time: 00 hr 34 min 14 sec)
Heartbeat CPU 0 instructions: 130000004 cycles: 155975866 heartbeat IPC: 0.3895 cumulative IPC: 0.6651 (Simulation time: 00 hr 41 min 16 sec)
Simulation finished CPU 0 instructions: 100000004 cycles: 150358235 cumulative IPC: 0.6651 (Simulation time: 00 hr 41 min 16 sec)
Simulation complete CPU 0 instructions: 100000004 cycles: 150358235 cumulative IPC: 0.6651 (Simulation time: 00 hr 41 min 16 sec)

ChampSim completed all CPUs

=== Simulation ===
CPU 0 runs ../traces/secret_traces/compute_fp/compute_fp_71.champsimtrace.xz
Region of Interest Statistics

CPU 0 cumulative IPC: 0.6651 instructions: 100000004 cycles: 150358235
CPU 0 Branch Prediction Accuracy: 99.81% MPKI: 0.1423 Average ROB Occupancy at Mispredict: 45.08
Branch type MPKI
BRANCH_DIRECT_JUMP: 0.00749
BRANCH_INDIRECT: 0.0671
BRANCH_CONDITIONAL: 0.033
BRANCH_DIRECT_CALL: 0.0213
BRANCH_INDIRECT_CALL: 0.00219
BRANCH_RETURN: 0.0112

LLC TOTAL        ACCESS:    5631980 HIT:    1465056 MISS:    4166924
LLC LOAD         ACCESS:     659990 HIT:      12434 MISS:     647556
LLC RFO          ACCESS:    1120267 HIT:      58203 MISS:    1062064
LLC PREFETCH     ACCESS:    2538048 HIT:      89418 MISS:    2448630
LLC WRITE        ACCESS:    1305528 HIT:    1303871 MISS:       1657
LLC TRANSLATION  ACCESS:       8147 HIT:       1130 MISS:       7017
LLC PREFETCH REQUESTED:          0 ISSUED:          0 USEFUL:          0 USELESS:          0
LLC AVERAGE MISS LATENCY: 692.1 cycles
cpu0_DTLB TOTAL        ACCESS:   17014966 HIT:   16449501 MISS:     565465
cpu0_DTLB LOAD         ACCESS:   17014966 HIT:   16449501 MISS:     565465
cpu0_DTLB RFO          ACCESS:          0 HIT:          0 MISS:          0
cpu0_DTLB PREFETCH     ACCESS:          0 HIT:          0 MISS:          0
cpu0_DTLB WRITE        ACCESS:          0 HIT:          0 MISS:          0
cpu0_DTLB TRANSLATION  ACCESS:          0 HIT:          0 MISS:          0
cpu0_DTLB PREFETCH REQUESTED:          0 ISSUED:          0 USEFUL:          0 USELESS:          0
cpu0_DTLB AVERAGE MISS LATENCY: 25.83 cycles
cpu0_ITLB TOTAL        ACCESS:    2724544 HIT:    2723031 MISS:       1513
cpu0_ITLB LOAD         ACCESS:    2724544 HIT:    2723031 MISS:       1513
cpu0_ITLB RFO          ACCESS:          0 HIT:          0 MISS:          0
cpu0_ITLB PREFETCH     ACCESS:          0 HIT:          0 MISS:          0
cpu0_ITLB WRITE        ACCESS:          0 HIT:          0 MISS:          0
cpu0_ITLB TRANSLATION  ACCESS:          0 HIT:          0 MISS:          0
cpu0_ITLB PREFETCH REQUESTED:          0 ISSUED:          0 USEFUL:          0 USELESS:          0
cpu0_ITLB AVERAGE MISS LATENCY: 62.73 cycles
cpu0_L1D TOTAL        ACCESS:   29777018 HIT:   15680959 MISS:   14096059
cpu0_L1D LOAD         ACCESS:   14493273 HIT:    7967360 MISS:    6525913
cpu0_L1D RFO          ACCESS:          0 HIT:          0 MISS:          0
cpu0_L1D PREFETCH     ACCESS:    3131910 HIT:    1487678 MISS:    1644232
cpu0_L1D WRITE        ACCESS:   12085014 HIT:    6211378 MISS:    5873636
cpu0_L1D TRANSLATION  ACCESS:      66821 HIT:      14543 MISS:      52278
cpu0_L1D PREFETCH REQUESTED:  308398181 ISSUED:    3131910 USEFUL:     257691 USELESS:       8394
cpu0_L1D AVERAGE MISS LATENCY: 126.4 cycles
cpu0_L1I TOTAL        ACCESS:    3987122 HIT:    3948775 MISS:      38347
cpu0_L1I LOAD         ACCESS:    2159925 HIT:    2147764 MISS:      12161
cpu0_L1I RFO          ACCESS:          0 HIT:          0 MISS:          0
cpu0_L1I PREFETCH     ACCESS:    1827197 HIT:    1801011 MISS:      26186
cpu0_L1I WRITE        ACCESS:          0 HIT:          0 MISS:          0
cpu0_L1I TRANSLATION  ACCESS:          0 HIT:          0 MISS:          0
cpu0_L1I PREFETCH REQUESTED:    6305883 ISSUED:    1827197 USEFUL:      14420 USELESS:       9484
cpu0_L1I AVERAGE MISS LATENCY: 133.2 cycles
cpu0_L2C TOTAL        ACCESS:   12260620 HIT:    4334398 MISS:    7926222
cpu0_L2C LOAD         ACCESS:    3431525 HIT:     996603 MISS:    2434922
cpu0_L2C RFO          ACCESS:    1362345 HIT:     241073 MISS:    1121272
cpu0_L2C PREFETCH     ACCESS:    5715948 HIT:    1354269 MISS:    4361679
cpu0_L2C WRITE        ACCESS:    1698591 HIT:    1698526 MISS:         65
cpu0_L2C TRANSLATION  ACCESS:      52211 HIT:      43927 MISS:       8284
cpu0_L2C PREFETCH REQUESTED:    4664006 ISSUED:    4574058 USEFUL:    2069689 USELESS:      87525
cpu0_L2C AVERAGE MISS LATENCY: 301.3 cycles
cpu0_STLB TOTAL        ACCESS:     268085 HIT:     201663 MISS:      66422
cpu0_STLB LOAD         ACCESS:     268085 HIT:     201663 MISS:      66422
cpu0_STLB RFO          ACCESS:          0 HIT:          0 MISS:          0
cpu0_STLB PREFETCH     ACCESS:          0 HIT:          0 MISS:          0
cpu0_STLB WRITE        ACCESS:          0 HIT:          0 MISS:          0
cpu0_STLB TRANSLATION  ACCESS:          0 HIT:          0 MISS:          0
cpu0_STLB PREFETCH REQUESTED:          0 ISSUED:          0 USEFUL:          0 USELESS:          0
cpu0_STLB AVERAGE MISS LATENCY: 285.4 cycles

DRAM Statistics

Channel 0 RQ ROW_BUFFER_HIT:     474700
  ROW_BUFFER_MISS:    1612505
 AVG DBUS CONGESTED CYCLE: 3.97
WQ ROW_BUFFER_HIT: Channel 0 
  ROW_BUFFER_MISS:      89863
  FULL:     541678

Channel 1 RQ ROW_BUFFER_HIT:     469508
  ROW_BUFFER_MISS:    1606919
 AVG DBUS CONGESTED CYCLE: 3.968
WQ ROW_BUFFER_HIT: Channel 1 
  ROW_BUFFER_MISS:      91291
  FULL:     539071
BERTI TO_L1: 24906845 TO_L2: 307378136 TO_L2_BC_MSHR: 214637979
BERTI AVG_LAT: 376.279 NUM_TRACK_LATENCY: 4904504 NUM_CANT_TRACK_LATENCY: 6646
BERTI CROSS_PAGE 38025629 NO_CROSS_PAGE: 294259352
BERTI FOUND_BERTI: 74318055 NO_FOUND_BERTI: 16877310
BERTI AVERAGE_ISSUED: 2.40609
CPU 0 L1I Entangling prefetcher final stats
IP accesses: 629 18a40 64531 / 2188532
IP misses: 46d9 11b640 714 / 40768
IP hits: 0 0 0 / 0
IP late: 4232 108c80 17 / 6077
IP wrong: e8e9 3a3a40 24 / 9434
miss rate: 0.0186281
coverage: 0
coverage_late: 0.149063
accuracy: 0
accuracy_late: 0.391787
discarded: 0
evicts entangled j table: 0
evicts entangled k table: 1620
max bb size: 99
formats: 481 0 1334 751 348 695 0 
hist_lookups: 1115 1252 998 888 775 701 557 455 366 285 207 118 83 53 28 0 18 3866 
hist_lookups_evict: 0.152997 %
hist_lookups_shortlat: 32.8602 %
bb_found_hist: 0 70389 49467 34021 3436 32048 4820 5709 23 187 15137 3351 31 43529 14 29068 43318 1475 701 2 0 1486 0 1 1053 1660 11 1606 0 0 0 0 0 0 0 0 1 0 45011 1441 1 0 0 0 0 0 0 0 0 2 0 0 0 0 0 0 0 0 0 0 0 0 0 0 
bb_found_summary: 4346075 388999 11.1725
entangled_found_hist: 0 89786 22661 58433 11609 503 38 0 
entangled_found_summary: 359586 183030 1.96463
bb_ent_found_hist: 0 42579 11974 22236 3507 7174 13755 6791 138 1119 57995 50050 51 1164 4 0 10 1625 1 0 0 0 0 0 3205 1660 11 0 0 0 0 0 0 0 0 0 1 0 25 0 1 0 0 0 0 0 0 0 0 2 0 0 0 0 0 0 0 0 0 0 0 0 0 0 
bb_ent_found_summary: 1618308 225078 7.18999
