WARNING: physical memory size is smaller than virtual memory size.

*** ChampSim Multicore Out-of-Order Simulator ***
Warmup Instructions: 30000000
Simulation Instructions: 100000000
Number of CPUs: 1
Page size: 4096

BTB:
Basic BTB sets: 1024 ways: 8
Indirect:
history lengths: 0 0 10 16 27 44 60 96 109 219 449 487 714 1313 2146 3881 
ITTAGE tables: 64768 bytes;Region table: 240 bytes;IUM: 384 bytes;Total Storage= 65392 bytes;
RAS:
RAS size: 64
Berti Prefetcher
CPU 0 Entangling prefetcher
Off-chip DRAM Size: 8 GiB Channels: 2 Width: 64-bit Data Race: 6400 MT/s
Heartbeat CPU 0 instructions: 10000007 cycles: 1901034 heartbeat IPC: 5.26 cumulative IPC: 5.26 (Simulation time: 00 hr 00 min 46 sec)
Heartbeat CPU 0 instructions: 20000003 cycles: 3806609 heartbeat IPC: 5.248 cumulative IPC: 5.254 (Simulation time: 00 hr 01 min 30 sec)
Heartbeat CPU 0 instructions: 30000006 cycles: 5714551 heartbeat IPC: 5.241 cumulative IPC: 5.25 (Simulation time: 00 hr 02 min 13 sec)
Warmup finished CPU 0 instructions: 30000006 cycles: 5714552 cumulative IPC: 5.25 (Simulation time: 00 hr 02 min 13 sec)
Warmup complete CPU 0 instructions: 30000006 cycles: 5714552 cumulative IPC: 5.25 (Simulation time: 00 hr 02 min 13 sec)
Heartbeat CPU 0 instructions: 40000008 cycles: 10501402 heartbeat IPC: 2.089 cumulative IPC: 2.089 (Simulation time: 00 hr 03 min 29 sec)
Heartbeat CPU 0 instructions: 50000001 cycles: 16326504 heartbeat IPC: 1.717 cumulative IPC: 1.885 (Simulation time: 00 hr 04 min 56 sec)
Heartbeat CPU 0 instructions: 60000010 cycles: 21891807 heartbeat IPC: 1.797 cumulative IPC: 1.854 (Simulation time: 00 hr 06 min 15 sec)
Heartbeat CPU 0 instructions: 70000000 cycles: 29126058 heartbeat IPC: 1.382 cumulative IPC: 1.709 (Simulation time: 00 hr 07 min 53 sec)
Heartbeat CPU 0 instructions: 80000010 cycles: 35761153 heartbeat IPC: 1.507 cumulative IPC: 1.664 (Simulation time: 00 hr 09 min 23 sec)
Heartbeat CPU 0 instructions: 90000000 cycles: 41065880 heartbeat IPC: 1.885 cumulative IPC: 1.697 (Simulation time: 00 hr 10 min 42 sec)
Heartbeat CPU 0 instructions: 100000003 cycles: 44800182 heartbeat IPC: 2.678 cumulative IPC: 1.791 (Simulation time: 00 hr 11 min 47 sec)
*** Reached end of trace: (0, "../traces/secret_traces/compute_fp/compute_fp_54.champsimtrace.xz")
Heartbeat CPU 0 instructions: 110000001 cycles: 50986931 heartbeat IPC: 1.616 cumulative IPC: 1.767 (Simulation time: 00 hr 13 min 29 sec)
Heartbeat CPU 0 instructions: 120000004 cycles: 55522086 heartbeat IPC: 2.205 cumulative IPC: 1.807 (Simulation time: 00 hr 15 min 00 sec)
Heartbeat CPU 0 instructions: 130000003 cycles: 60045072 heartbeat IPC: 2.211 cumulative IPC: 1.841 (Simulation time: 00 hr 16 min 23 sec)
Simulation finished CPU 0 instructions: 100000010 cycles: 54330523 cumulative IPC: 1.841 (Simulation time: 00 hr 16 min 23 sec)
Simulation complete CPU 0 instructions: 100000010 cycles: 54330523 cumulative IPC: 1.841 (Simulation time: 00 hr 16 min 23 sec)

ChampSim completed all CPUs

=== Simulation ===
CPU 0 runs ../traces/secret_traces/compute_fp/compute_fp_54.champsimtrace.xz
Region of Interest Statistics

CPU 0 cumulative IPC: 1.841 instructions: 100000010 cycles: 54330523
CPU 0 Branch Prediction Accuracy: 98.23% MPKI: 2.199 Average ROB Occupancy at Mispredict: 96.09
Branch type MPKI
BRANCH_DIRECT_JUMP: 0.011
BRANCH_INDIRECT: 1.18
BRANCH_CONDITIONAL: 0.973
BRANCH_DIRECT_CALL: 0.022
BRANCH_INDIRECT_CALL: 0.00292
BRANCH_RETURN: 0.0121

LLC TOTAL        ACCESS:    2915904 HIT:     891597 MISS:    2024307
LLC LOAD         ACCESS:     476199 HIT:      83650 MISS:     392549
LLC RFO          ACCESS:     178032 HIT:      52501 MISS:     125531
LLC PREFETCH     ACCESS:    1990415 HIT:     520237 MISS:    1470178
LLC WRITE        ACCESS:     249275 HIT:     230861 MISS:      18414
LLC TRANSLATION  ACCESS:      21983 HIT:       4348 MISS:      17635
LLC PREFETCH REQUESTED:          0 ISSUED:          0 USEFUL:          0 USELESS:          0
LLC AVERAGE MISS LATENCY: 250.8 cycles
cpu0_DTLB TOTAL        ACCESS:   20469961 HIT:   20092166 MISS:     377795
cpu0_DTLB LOAD         ACCESS:   20469961 HIT:   20092166 MISS:     377795
cpu0_DTLB RFO          ACCESS:          0 HIT:          0 MISS:          0
cpu0_DTLB PREFETCH     ACCESS:          0 HIT:          0 MISS:          0
cpu0_DTLB WRITE        ACCESS:          0 HIT:          0 MISS:          0
cpu0_DTLB TRANSLATION  ACCESS:          0 HIT:          0 MISS:          0
cpu0_DTLB PREFETCH REQUESTED:          0 ISSUED:          0 USEFUL:          0 USELESS:          0
cpu0_DTLB AVERAGE MISS LATENCY: 15.97 cycles
cpu0_ITLB TOTAL        ACCESS:     210965 HIT:     209415 MISS:       1550
cpu0_ITLB LOAD         ACCESS:     210965 HIT:     209415 MISS:       1550
cpu0_ITLB RFO          ACCESS:          0 HIT:          0 MISS:          0
cpu0_ITLB PREFETCH     ACCESS:          0 HIT:          0 MISS:          0
cpu0_ITLB WRITE        ACCESS:          0 HIT:          0 MISS:          0
cpu0_ITLB TRANSLATION  ACCESS:          0 HIT:          0 MISS:          0
cpu0_ITLB PREFETCH REQUESTED:          0 ISSUED:          0 USEFUL:          0 USELESS:          0
cpu0_ITLB AVERAGE MISS LATENCY: 53.25 cycles
cpu0_L1D TOTAL        ACCESS:   40340539 HIT:   32172546 MISS:    8167993
cpu0_L1D LOAD         ACCESS:   18856753 HIT:   15246823 MISS:    3609930
cpu0_L1D RFO          ACCESS:          0 HIT:          0 MISS:          0
cpu0_L1D PREFETCH     ACCESS:   17959696 HIT:   14031290 MISS:    3928406
cpu0_L1D WRITE        ACCESS:    3462037 HIT:    2877116 MISS:     584921
cpu0_L1D TRANSLATION  ACCESS:      62053 HIT:      17317 MISS:      44736
cpu0_L1D PREFETCH REQUESTED:   77633418 ISSUED:   17959731 USEFUL:    1292635 USELESS:      30837
cpu0_L1D AVERAGE MISS LATENCY: 31.64 cycles
cpu0_L1I TOTAL        ACCESS:     310708 HIT:     269946 MISS:      40762
cpu0_L1I LOAD         ACCESS:     118816 HIT:     107242 MISS:      11574
cpu0_L1I RFO          ACCESS:          0 HIT:          0 MISS:          0
cpu0_L1I PREFETCH     ACCESS:     191892 HIT:     162704 MISS:      29188
cpu0_L1I WRITE        ACCESS:          0 HIT:          0 MISS:          0
cpu0_L1I TRANSLATION  ACCESS:          0 HIT:          0 MISS:          0
cpu0_L1I PREFETCH REQUESTED:     299758 ISSUED:     191892 USEFUL:      16762 USELESS:       9865
cpu0_L1I AVERAGE MISS LATENCY: 107.9 cycles
cpu0_L2C TOTAL        ACCESS:   10431576 HIT:    4955530 MISS:    5476046
cpu0_L2C LOAD         ACCESS:    1346069 HIT:     729783 MISS:     616286
cpu0_L2C RFO          ACCESS:     230371 HIT:      52286 MISS:     178085
cpu0_L2C PREFETCH     ACCESS:    8519051 HIT:    3859665 MISS:    4659386
cpu0_L2C WRITE        ACCESS:     291767 HIT:     291461 MISS:        306
cpu0_L2C TRANSLATION  ACCESS:      44318 HIT:      22335 MISS:      21983
cpu0_L2C PREFETCH REQUESTED:    5065316 ISSUED:    4826950 USEFUL:     721761 USELESS:     452823
cpu0_L2C AVERAGE MISS LATENCY: 99.7 cycles
cpu0_STLB TOTAL        ACCESS:     148761 HIT:      87002 MISS:      61759
cpu0_STLB LOAD         ACCESS:     148761 HIT:      87002 MISS:      61759
cpu0_STLB RFO          ACCESS:          0 HIT:          0 MISS:          0
cpu0_STLB PREFETCH     ACCESS:          0 HIT:          0 MISS:          0
cpu0_STLB WRITE        ACCESS:          0 HIT:          0 MISS:          0
cpu0_STLB TRANSLATION  ACCESS:          0 HIT:          0 MISS:          0
cpu0_STLB PREFETCH REQUESTED:          0 ISSUED:          0 USEFUL:          0 USELESS:          0
cpu0_STLB AVERAGE MISS LATENCY: 109.7 cycles

DRAM Statistics

Channel 0 RQ ROW_BUFFER_HIT:     647404
  ROW_BUFFER_MISS:     355758
 AVG DBUS CONGESTED CYCLE: 3.926
WQ ROW_BUFFER_HIT: Channel 0 
  ROW_BUFFER_MISS:      24656
  FULL:      73190

Channel 1 RQ ROW_BUFFER_HIT:     646207
  ROW_BUFFER_MISS:     352026
 AVG DBUS CONGESTED CYCLE: 3.923
WQ ROW_BUFFER_HIT: Channel 1 
  ROW_BUFFER_MISS:      24899
  FULL:      72340
BERTI TO_L1: 75197291 TO_L2: 33624629 TO_L2_BC_MSHR: 7232052
BERTI AVG_LAT: 99.1727 NUM_TRACK_LATENCY: 3447454 NUM_CANT_TRACK_LATENCY: 1
BERTI CROSS_PAGE 23405882 NO_CROSS_PAGE: 85416038
BERTI FOUND_BERTI: 16377697 NO_FOUND_BERTI: 8927286
BERTI AVERAGE_ISSUED: 3.59213
CPU 0 L1I Entangling prefetcher final stats
IP accesses: 6d 1b40 2333 / 149463
IP misses: 44f5 113d40 789 / 42221
IP hits: 0 0 0 / 0
IP late: 47eb 11fac0 14 / 6006
IP wrong: eabe 3aaf80 24 / 9798
miss rate: 0.282485
coverage: 0
coverage_late: 0.142252
accuracy: 0
accuracy_late: 0.380031
discarded: 0
evicts entangled j table: 0
evicts entangled k table: 1635
max bb size: 65
formats: 405 0 1359 714 344 737 0 
hist_lookups: 1202 1291 959 865 773 700 533 404 355 286 188 122 76 49 27 0 21 3883 
hist_lookups_evict: 0.178968 %
hist_lookups_shortlat: 33.0919 %
bb_found_hist: 0 23533 8143 4474 2559 1399 2434 87 134 488 68 31 12 50 38 4 17 0 46 0 0 0 0 0 0 0 0 0 0 0 0 0 0 0 0 0 0 0 0 0 0 0 0 0 0 0 0 0 0 0 0 0 0 0 0 0 0 0 0 0 0 0 0 0 
bb_found_summary: 94656 43517 2.17515
entangled_found_hist: 0 12954 11315 11472 3135 903 180 0 
entangled_found_summary: 88135 39959 2.20564
bb_ent_found_hist: 0 30714 13466 6839 4324 4477 483 240 460 359 60 62 0 169 0 18 0 0 244 0 0 0 0 0 0 0 0 0 0 0 0 0 0 0 0 0 0 0 0 0 0 0 0 0 0 0 0 0 0 0 0 0 0 0 0 0 0 0 0 0 0 0 0 0 
bb_ent_found_summary: 137474 61915 2.22037
