WARNING: physical memory size is smaller than virtual memory size.

*** ChampSim Multicore Out-of-Order Simulator ***
Warmup Instructions: 30000000
Simulation Instructions: 100000000
Number of CPUs: 1
Page size: 4096

BTB:
Basic BTB sets: 1024 ways: 8
Indirect:
history lengths: 0 0 10 16 27 44 60 96 109 219 449 487 714 1313 2146 3881 
ITTAGE tables: 64768 bytes;Region table: 240 bytes;IUM: 384 bytes;Total Storage= 65392 bytes;
RAS:
RAS size: 64
Berti Prefetcher
CPU 0 Entangling prefetcher
Off-chip DRAM Size: 8 GiB Channels: 2 Width: 64-bit Data Race: 6400 MT/s
Heartbeat CPU 0 instructions: 10000009 cycles: 1811620 heartbeat IPC: 5.52 cumulative IPC: 5.52 (Simulation time: 00 hr 00 min 37 sec)
Heartbeat CPU 0 instructions: 20000004 cycles: 3581782 heartbeat IPC: 5.649 cumulative IPC: 5.584 (Simulation time: 00 hr 01 min 14 sec)
Heartbeat CPU 0 instructions: 30000005 cycles: 5350607 heartbeat IPC: 5.653 cumulative IPC: 5.607 (Simulation time: 00 hr 01 min 56 sec)
Warmup finished CPU 0 instructions: 30000005 cycles: 5350608 cumulative IPC: 5.607 (Simulation time: 00 hr 01 min 56 sec)
Warmup complete CPU 0 instructions: 30000005 cycles: 5350608 cumulative IPC: 5.607 (Simulation time: 00 hr 01 min 56 sec)
Heartbeat CPU 0 instructions: 40000009 cycles: 7302026 heartbeat IPC: 5.124 cumulative IPC: 5.124 (Simulation time: 00 hr 02 min 45 sec)
Heartbeat CPU 0 instructions: 50000006 cycles: 9245593 heartbeat IPC: 5.145 cumulative IPC: 5.135 (Simulation time: 00 hr 03 min 36 sec)
Heartbeat CPU 0 instructions: 60000011 cycles: 11176742 heartbeat IPC: 5.178 cumulative IPC: 5.149 (Simulation time: 00 hr 04 min 25 sec)
Heartbeat CPU 0 instructions: 70000007 cycles: 13117308 heartbeat IPC: 5.153 cumulative IPC: 5.15 (Simulation time: 00 hr 05 min 11 sec)
Heartbeat CPU 0 instructions: 80000005 cycles: 15060573 heartbeat IPC: 5.146 cumulative IPC: 5.149 (Simulation time: 00 hr 05 min 56 sec)
Heartbeat CPU 0 instructions: 90000010 cycles: 16990561 heartbeat IPC: 5.181 cumulative IPC: 5.155 (Simulation time: 00 hr 06 min 44 sec)
Heartbeat CPU 0 instructions: 100000003 cycles: 18926140 heartbeat IPC: 5.166 cumulative IPC: 5.156 (Simulation time: 00 hr 07 min 31 sec)
*** Reached end of trace: (0, "../traces/secret_traces/compute_fp/compute_fp_36.champsimtrace.xz")
Heartbeat CPU 0 instructions: 110000000 cycles: 22185209 heartbeat IPC: 3.068 cumulative IPC: 4.752 (Simulation time: 00 hr 08 min 29 sec)
Heartbeat CPU 0 instructions: 120000002 cycles: 24147254 heartbeat IPC: 5.097 cumulative IPC: 4.788 (Simulation time: 00 hr 09 min 21 sec)
Heartbeat CPU 0 instructions: 130000006 cycles: 26177184 heartbeat IPC: 4.926 cumulative IPC: 4.802 (Simulation time: 00 hr 10 min 13 sec)
Simulation finished CPU 0 instructions: 100000001 cycles: 20826577 cumulative IPC: 4.802 (Simulation time: 00 hr 10 min 13 sec)
Simulation complete CPU 0 instructions: 100000001 cycles: 20826577 cumulative IPC: 4.802 (Simulation time: 00 hr 10 min 13 sec)

ChampSim completed all CPUs

=== Simulation ===
CPU 0 runs ../traces/secret_traces/compute_fp/compute_fp_36.champsimtrace.xz
Region of Interest Statistics

CPU 0 cumulative IPC: 4.802 instructions: 100000001 cycles: 20826577
CPU 0 Branch Prediction Accuracy: 99.88% MPKI: 0.1773 Average ROB Occupancy at Mispredict: 51.41
Branch type MPKI
BRANCH_DIRECT_JUMP: 0.00753
BRANCH_INDIRECT: 0.0666
BRANCH_CONDITIONAL: 0.0671
BRANCH_DIRECT_CALL: 0.0225
BRANCH_INDIRECT_CALL: 0.0022
BRANCH_RETURN: 0.0113

LLC TOTAL        ACCESS:     233025 HIT:      87307 MISS:     145718
LLC LOAD         ACCESS:      29888 HIT:       1194 MISS:      28694
LLC RFO          ACCESS:      27991 HIT:       7189 MISS:      20802
LLC PREFETCH     ACCESS:      98391 HIT:       3736 MISS:      94655
LLC WRITE        ACCESS:      75484 HIT:      75023 MISS:        461
LLC TRANSLATION  ACCESS:       1271 HIT:        165 MISS:       1106
LLC PREFETCH REQUESTED:          0 ISSUED:          0 USEFUL:          0 USELESS:          0
LLC AVERAGE MISS LATENCY: 431.5 cycles
cpu0_DTLB TOTAL        ACCESS:   15330832 HIT:   15034101 MISS:     296731
cpu0_DTLB LOAD         ACCESS:   15330832 HIT:   15034101 MISS:     296731
cpu0_DTLB RFO          ACCESS:          0 HIT:          0 MISS:          0
cpu0_DTLB PREFETCH     ACCESS:          0 HIT:          0 MISS:          0
cpu0_DTLB WRITE        ACCESS:          0 HIT:          0 MISS:          0
cpu0_DTLB TRANSLATION  ACCESS:          0 HIT:          0 MISS:          0
cpu0_DTLB PREFETCH REQUESTED:          0 ISSUED:          0 USEFUL:          0 USELESS:          0
cpu0_DTLB AVERAGE MISS LATENCY: 6.741 cycles
cpu0_ITLB TOTAL        ACCESS:    4867993 HIT:    4866478 MISS:       1515
cpu0_ITLB LOAD         ACCESS:    4867993 HIT:    4866478 MISS:       1515
cpu0_ITLB RFO          ACCESS:          0 HIT:          0 MISS:          0
cpu0_ITLB PREFETCH     ACCESS:          0 HIT:          0 MISS:          0
cpu0_ITLB WRITE        ACCESS:          0 HIT:          0 MISS:          0
cpu0_ITLB TRANSLATION  ACCESS:          0 HIT:          0 MISS:          0
cpu0_ITLB PREFETCH REQUESTED:          0 ISSUED:          0 USEFUL:          0 USELESS:          0
cpu0_ITLB AVERAGE MISS LATENCY: 50.97 cycles
cpu0_L1D TOTAL        ACCESS:   27516947 HIT:   25890112 MISS:    1626835
cpu0_L1D LOAD         ACCESS:   14414685 HIT:   13479152 MISS:     935533
cpu0_L1D RFO          ACCESS:          0 HIT:          0 MISS:          0
cpu0_L1D PREFETCH     ACCESS:     114177 HIT:      76294 MISS:      37883
cpu0_L1D WRITE        ACCESS:   12984991 HIT:   12334086 MISS:     650905
cpu0_L1D TRANSLATION  ACCESS:       3094 HIT:        580 MISS:       2514
cpu0_L1D PREFETCH REQUESTED:    1527570 ISSUED:     114177 USEFUL:       1091 USELESS:        547
cpu0_L1D AVERAGE MISS LATENCY: 23.1 cycles
cpu0_L1I TOTAL        ACCESS:    6912626 HIT:    6874343 MISS:      38283
cpu0_L1I LOAD         ACCESS:    3804136 HIT:    3791265 MISS:      12871
cpu0_L1I RFO          ACCESS:          0 HIT:          0 MISS:          0
cpu0_L1I PREFETCH     ACCESS:    3108490 HIT:    3083078 MISS:      25412
cpu0_L1I WRITE        ACCESS:          0 HIT:          0 MISS:          0
cpu0_L1I TRANSLATION  ACCESS:          0 HIT:          0 MISS:          0
cpu0_L1I PREFETCH REQUESTED:    9055877 ISSUED:    3108490 USEFUL:      14462 USELESS:       9052
cpu0_L1I AVERAGE MISS LATENCY: 49.02 cycles
cpu0_L2C TOTAL        ACCESS:    2675872 HIT:    2499083 MISS:     176789
cpu0_L2C LOAD         ACCESS:     896138 HIT:     862954 MISS:      33184
cpu0_L2C RFO          ACCESS:     285160 HIT:     257151 MISS:      28009
cpu0_L2C PREFETCH     ACCESS:     885894 HIT:     771571 MISS:     114323
cpu0_L2C WRITE        ACCESS:     606189 HIT:     606187 MISS:          2
cpu0_L2C TRANSLATION  ACCESS:       2491 HIT:       1220 MISS:       1271
cpu0_L2C PREFETCH REQUESTED:     956056 ISSUED:     825996 USEFUL:      84489 USELESS:       6127
cpu0_L2C AVERAGE MISS LATENCY: 373 cycles
cpu0_STLB TOTAL        ACCESS:     185840 HIT:     182915 MISS:       2925
cpu0_STLB LOAD         ACCESS:     185840 HIT:     182915 MISS:       2925
cpu0_STLB RFO          ACCESS:          0 HIT:          0 MISS:          0
cpu0_STLB PREFETCH     ACCESS:          0 HIT:          0 MISS:          0
cpu0_STLB WRITE        ACCESS:          0 HIT:          0 MISS:          0
cpu0_STLB TRANSLATION  ACCESS:          0 HIT:          0 MISS:          0
cpu0_STLB PREFETCH REQUESTED:          0 ISSUED:          0 USEFUL:          0 USELESS:          0
cpu0_STLB AVERAGE MISS LATENCY: 485.4 cycles

DRAM Statistics

Channel 0 RQ ROW_BUFFER_HIT:      37879
  ROW_BUFFER_MISS:      34945
 AVG DBUS CONGESTED CYCLE: 3.956
WQ ROW_BUFFER_HIT: Channel 0 
  ROW_BUFFER_MISS:       3921
  FULL:      32522

Channel 1 RQ ROW_BUFFER_HIT:      37883
  ROW_BUFFER_MISS:      34550
 AVG DBUS CONGESTED CYCLE: 3.952
WQ ROW_BUFFER_HIT: Channel 1 
  ROW_BUFFER_MISS:       4110
  FULL:      32077
BERTI TO_L1: 147485 TO_L2: 1556966 TO_L2_BC_MSHR: 663151
BERTI AVG_LAT: 27.0321 NUM_TRACK_LATENCY: 1189345 NUM_CANT_TRACK_LATENCY: 25
BERTI CROSS_PAGE 198457 NO_CROSS_PAGE: 1505994
BERTI FOUND_BERTI: 1675902 NO_FOUND_BERTI: 18722219
BERTI AVERAGE_ISSUED: 2.37778
CPU 0 L1I Entangling prefetcher final stats
IP accesses: cc08 330200 143864 / 3805531
IP misses: 5e57 1795c0 115 / 14266
IP hits: 0 0 0 / 0
IP late: 4232 108c80 17 / 6328
IP wrong: 5aef 16bbc0 25 / 8997
miss rate: 0.00374876
coverage: 0
coverage_late: 0.443573
accuracy: 0
accuracy_late: 0.412921
discarded: 0
evicts entangled j table: 0
evicts entangled k table: 1868
max bb size: 65
formats: 439 0 1570 774 338 739 0 
hist_lookups: 1112 1298 1212 1119 1004 828 670 457 402 321 233 149 108 41 18 0 0 2965 
hist_lookups_evict: 0 %
hist_lookups_shortlat: 24.8388 %
bb_found_hist: 0 362856 183368 157319 16290 21666 19005 8849 5270 14 22009 15128 7033 5698 3964 0 949 0 0 0 6012 0 0 0 0 0 1010 0 0 0 0 3511 0 0 0 0 0 0 0 0 0 0 0 0 0 0 0 0 0 2 0 0 0 0 0 0 0 0 0 0 0 0 0 0 
bb_found_summary: 2464385 839953 2.93396
entangled_found_hist: 0 232829 172356 132773 82213 405 33714 0 
entangled_found_summary: 1509021 654290 2.30635
bb_ent_found_hist: 0 542811 207956 287905 46232 20647 40712 3702 3826 5 75872 44149 10987 78589 7 0 2655 0 0 0 5763 0 0 0 0 0 1010 0 0 0 0 3512 0 0 0 0 0 0 0 0 0 0 0 0 0 0 0 0 0 2 0 0 0 0 0 0 0 0 0 0 0 0 0 0 
bb_ent_found_summary: 5102368 1376342 3.7072
