WARNING: physical memory size is smaller than virtual memory size.

*** ChampSim Multicore Out-of-Order Simulator ***
Warmup Instructions: 30000000
Simulation Instructions: 100000000
Number of CPUs: 1
Page size: 4096

BTB:
Basic BTB sets: 1024 ways: 8
Indirect:
history lengths: 0 0 10 16 27 44 60 96 109 219 449 487 714 1313 2146 3881 
ITTAGE tables: 64768 bytes;Region table: 240 bytes;IUM: 384 bytes;Total Storage= 65392 bytes;
RAS:
RAS size: 64
Berti Prefetcher
CPU 0 Entangling prefetcher
Off-chip DRAM Size: 8 GiB Channels: 2 Width: 64-bit Data Race: 6400 MT/s
Heartbeat CPU 0 instructions: 10000008 cycles: 1716564 heartbeat IPC: 5.826 cumulative IPC: 5.826 (Simulation time: 00 hr 00 min 41 sec)
Heartbeat CPU 0 instructions: 20000002 cycles: 3383954 heartbeat IPC: 5.997 cumulative IPC: 5.91 (Simulation time: 00 hr 01 min 21 sec)
Heartbeat CPU 0 instructions: 30000003 cycles: 5050821 heartbeat IPC: 5.999 cumulative IPC: 5.94 (Simulation time: 00 hr 02 min 00 sec)
Warmup finished CPU 0 instructions: 30000003 cycles: 5050822 cumulative IPC: 5.94 (Simulation time: 00 hr 02 min 00 sec)
Warmup complete CPU 0 instructions: 30000003 cycles: 5050822 cumulative IPC: 5.94 (Simulation time: 00 hr 02 min 00 sec)
Heartbeat CPU 0 instructions: 40000004 cycles: 6761046 heartbeat IPC: 5.847 cumulative IPC: 5.847 (Simulation time: 00 hr 02 min 46 sec)
Heartbeat CPU 0 instructions: 50000005 cycles: 8477957 heartbeat IPC: 5.824 cumulative IPC: 5.836 (Simulation time: 00 hr 03 min 27 sec)
Heartbeat CPU 0 instructions: 60000000 cycles: 10211973 heartbeat IPC: 5.767 cumulative IPC: 5.813 (Simulation time: 00 hr 04 min 08 sec)
Heartbeat CPU 0 instructions: 70000000 cycles: 11967332 heartbeat IPC: 5.697 cumulative IPC: 5.783 (Simulation time: 00 hr 04 min 49 sec)
Heartbeat CPU 0 instructions: 80000004 cycles: 13720000 heartbeat IPC: 5.706 cumulative IPC: 5.768 (Simulation time: 00 hr 05 min 31 sec)
Heartbeat CPU 0 instructions: 90000000 cycles: 15449873 heartbeat IPC: 5.781 cumulative IPC: 5.77 (Simulation time: 00 hr 06 min 12 sec)
Heartbeat CPU 0 instructions: 100000003 cycles: 17171457 heartbeat IPC: 5.809 cumulative IPC: 5.775 (Simulation time: 00 hr 06 min 55 sec)
*** Reached end of trace: (0, "../traces/secret_traces/compute_fp/compute_fp_85.champsimtrace.xz")
Heartbeat CPU 0 instructions: 110000006 cycles: 19615467 heartbeat IPC: 4.092 cumulative IPC: 5.493 (Simulation time: 00 hr 07 min 47 sec)
Heartbeat CPU 0 instructions: 120000004 cycles: 21333824 heartbeat IPC: 5.82 cumulative IPC: 5.527 (Simulation time: 00 hr 08 min 29 sec)
Heartbeat CPU 0 instructions: 130000001 cycles: 23011887 heartbeat IPC: 5.959 cumulative IPC: 5.568 (Simulation time: 00 hr 09 min 11 sec)
Simulation finished CPU 0 instructions: 100000010 cycles: 17961067 cumulative IPC: 5.568 (Simulation time: 00 hr 09 min 11 sec)
Simulation complete CPU 0 instructions: 100000010 cycles: 17961067 cumulative IPC: 5.568 (Simulation time: 00 hr 09 min 11 sec)

ChampSim completed all CPUs

=== Simulation ===
CPU 0 runs ../traces/secret_traces/compute_fp/compute_fp_85.champsimtrace.xz
Region of Interest Statistics

CPU 0 cumulative IPC: 5.568 instructions: 100000010 cycles: 17961067
CPU 0 Branch Prediction Accuracy: 99.44% MPKI: 0.3255 Average ROB Occupancy at Mispredict: 71.65
Branch type MPKI
BRANCH_DIRECT_JUMP: 0.00797
BRANCH_INDIRECT: 0.0747
BRANCH_CONDITIONAL: 0.208
BRANCH_DIRECT_CALL: 0.0209
BRANCH_INDIRECT_CALL: 0.00237
BRANCH_RETURN: 0.0115

LLC TOTAL        ACCESS:      88929 HIT:      65906 MISS:      23023
LLC LOAD         ACCESS:      12555 HIT:       7970 MISS:       4585
LLC RFO          ACCESS:      26599 HIT:      17449 MISS:       9150
LLC PREFETCH     ACCESS:      19153 HIT:      10131 MISS:       9022
LLC WRITE        ACCESS:      30414 HIT:      30310 MISS:        104
LLC TRANSLATION  ACCESS:        208 HIT:         46 MISS:        162
LLC PREFETCH REQUESTED:          0 ISSUED:          0 USEFUL:          0 USELESS:          0
LLC AVERAGE MISS LATENCY: 221.6 cycles
cpu0_DTLB TOTAL        ACCESS:   16409407 HIT:   16362788 MISS:      46619
cpu0_DTLB LOAD         ACCESS:   16409407 HIT:   16362788 MISS:      46619
cpu0_DTLB RFO          ACCESS:          0 HIT:          0 MISS:          0
cpu0_DTLB PREFETCH     ACCESS:          0 HIT:          0 MISS:          0
cpu0_DTLB WRITE        ACCESS:          0 HIT:          0 MISS:          0
cpu0_DTLB TRANSLATION  ACCESS:          0 HIT:          0 MISS:          0
cpu0_DTLB PREFETCH REQUESTED:          0 ISSUED:          0 USEFUL:          0 USELESS:          0
cpu0_DTLB AVERAGE MISS LATENCY: 4.919 cycles
cpu0_ITLB TOTAL        ACCESS:    2283511 HIT:    2281981 MISS:       1530
cpu0_ITLB LOAD         ACCESS:    2283511 HIT:    2281981 MISS:       1530
cpu0_ITLB RFO          ACCESS:          0 HIT:          0 MISS:          0
cpu0_ITLB PREFETCH     ACCESS:          0 HIT:          0 MISS:          0
cpu0_ITLB WRITE        ACCESS:          0 HIT:          0 MISS:          0
cpu0_ITLB TRANSLATION  ACCESS:          0 HIT:          0 MISS:          0
cpu0_ITLB PREFETCH REQUESTED:          0 ISSUED:          0 USEFUL:          0 USELESS:          0
cpu0_ITLB AVERAGE MISS LATENCY: 10.63 cycles
cpu0_L1D TOTAL        ACCESS:   22487885 HIT:   22154241 MISS:     333644
cpu0_L1D LOAD         ACCESS:   17192105 HIT:   17043748 MISS:     148357
cpu0_L1D RFO          ACCESS:          0 HIT:          0 MISS:          0
cpu0_L1D PREFETCH     ACCESS:     121887 HIT:      83638 MISS:      38249
cpu0_L1D WRITE        ACCESS:    5173615 HIT:    5026833 MISS:     146782
cpu0_L1D TRANSLATION  ACCESS:        278 HIT:         22 MISS:        256
cpu0_L1D PREFETCH REQUESTED:    1562247 ISSUED:     121887 USEFUL:       2393 USELESS:        784
cpu0_L1D AVERAGE MISS LATENCY: 18.06 cycles
cpu0_L1I TOTAL        ACCESS:    3548636 HIT:    3480247 MISS:      68389
cpu0_L1I LOAD         ACCESS:    1287802 HIT:    1265823 MISS:      21979
cpu0_L1I RFO          ACCESS:          0 HIT:          0 MISS:          0
cpu0_L1I PREFETCH     ACCESS:    2260834 HIT:    2214424 MISS:      46410
cpu0_L1I WRITE        ACCESS:          0 HIT:          0 MISS:          0
cpu0_L1I TRANSLATION  ACCESS:          0 HIT:          0 MISS:          0
cpu0_L1I PREFETCH REQUESTED:    8541621 ISSUED:    2260834 USEFUL:      25847 USELESS:      17369
cpu0_L1I AVERAGE MISS LATENCY: 19.09 cycles
cpu0_L2C TOTAL        ACCESS:     567061 HIT:     490889 MISS:      76172
cpu0_L2C LOAD         ACCESS:     115147 HIT:     100523 MISS:      14624
cpu0_L2C RFO          ACCESS:      73770 HIT:      47161 MISS:      26609
cpu0_L2C PREFETCH     ACCESS:     258400 HIT:     223669 MISS:      34731
cpu0_L2C WRITE        ACCESS:     119490 HIT:     119490 MISS:          0
cpu0_L2C TRANSLATION  ACCESS:        254 HIT:         46 MISS:        208
cpu0_L2C PREFETCH REQUESTED:     189675 ISSUED:     183872 USEFUL:       6538 USELESS:       3681
cpu0_L2C AVERAGE MISS LATENCY: 81.5 cycles
cpu0_STLB TOTAL        ACCESS:      31263 HIT:      31038 MISS:        225
cpu0_STLB LOAD         ACCESS:      31263 HIT:      31038 MISS:        225
cpu0_STLB RFO          ACCESS:          0 HIT:          0 MISS:          0
cpu0_STLB PREFETCH     ACCESS:          0 HIT:          0 MISS:          0
cpu0_STLB WRITE        ACCESS:          0 HIT:          0 MISS:          0
cpu0_STLB TRANSLATION  ACCESS:          0 HIT:          0 MISS:          0
cpu0_STLB PREFETCH REQUESTED:          0 ISSUED:          0 USEFUL:          0 USELESS:          0
cpu0_STLB AVERAGE MISS LATENCY: 231.1 cycles

DRAM Statistics

Channel 0 RQ ROW_BUFFER_HIT:       4931
  ROW_BUFFER_MISS:       6809
 AVG DBUS CONGESTED CYCLE: 3.905
WQ ROW_BUFFER_HIT: Channel 0 
  ROW_BUFFER_MISS:        931
  FULL:       4618

Channel 1 RQ ROW_BUFFER_HIT:       4804
  ROW_BUFFER_MISS:       6351
 AVG DBUS CONGESTED CYCLE: 3.9
WQ ROW_BUFFER_HIT: Channel 1 
  ROW_BUFFER_MISS:        940
  FULL:       4240
BERTI TO_L1: 295013 TO_L2: 1505316 TO_L2_BC_MSHR: 283037
BERTI AVG_LAT: 24.4851 NUM_TRACK_LATENCY: 147567 NUM_CANT_TRACK_LATENCY: 70
BERTI CROSS_PAGE 803653 NO_CROSS_PAGE: 996676
BERTI FOUND_BERTI: 3812927 NO_FOUND_BERTI: 20623571
BERTI AVERAGE_ISSUED: 2.56982
CPU 0 L1I Entangling prefetcher final stats
IP accesses: b712 2dc480 39248 / 1289833
IP misses: b751 2dd440 569 / 24010
IP hits: 0 0 0 / 0
IP late: 69d1 1a7440 94 / 9590
IP wrong: 9109 244240 169 / 17203
miss rate: 0.0186149
coverage: 0
coverage_late: 0.399417
accuracy: 0
accuracy_late: 0.35793
discarded: 0
evicts entangled j table: 0
evicts entangled k table: 2063
max bb size: 65
formats: 443 0 1736 727 433 929 0 
hist_lookups: 1736 1872 1537 1364 1184 954 762 568 425 329 230 137 70 40 27 0 0 2997 
hist_lookups_evict: 0 %
hist_lookups_shortlat: 21.0582 %
bb_found_hist: 0 226467 86607 78390 35653 46537 21481 5733 859 9245 29916 18490 6056 8084 5659 9204 2056 741 154 3482 0 0 4 631 191 598 0 887 0 0 300 0 770 0 0 0 430 0 6844 0 0 0 0 0 4 0 492 0 1582 0 0 0 0 0 0 0 0 0 0 0 0 0 0 0 
bb_found_summary: 2747285 607547 4.52193
entangled_found_hist: 0 101801 57940 131169 38925 16029 1746 0 
entangled_found_summary: 857509 347610 2.46688
bb_ent_found_hist: 0 227952 65410 64953 102346 43334 87509 5822 11796 5 16 0 19620 15416 902 12306 4669 9595 3238 30886 0 0 55 3349 3657 598 0 2642 0 0 278 0 3283 0 0 0 3085 0 17975 0 0 0 0 0 2 0 2033 0 8000 0 0 0 0 0 0 0 0 0 0 0 0 0 0 0 
bb_ent_found_summary: 4993470 750732 6.65147
