WARNING: physical memory size is smaller than virtual memory size.

*** ChampSim Multicore Out-of-Order Simulator ***
Warmup Instructions: 30000000
Simulation Instructions: 100000000
Number of CPUs: 1
Page size: 4096

BTB:
Basic BTB sets: 1024 ways: 8
Indirect:
history lengths: 0 0 10 16 27 44 60 96 109 219 449 487 714 1313 2146 3881 
ITTAGE tables: 64768 bytes;Region table: 240 bytes;IUM: 384 bytes;Total Storage= 65392 bytes;
RAS:
RAS size: 64
Berti Prefetcher
CPU 0 Entangling prefetcher
Off-chip DRAM Size: 8 GiB Channels: 2 Width: 64-bit Data Race: 6400 MT/s
Heartbeat CPU 0 instructions: 10000000 cycles: 1716283 heartbeat IPC: 5.827 cumulative IPC: 5.827 (Simulation time: 00 hr 00 min 50 sec)
Heartbeat CPU 0 instructions: 20000001 cycles: 3383986 heartbeat IPC: 5.996 cumulative IPC: 5.91 (Simulation time: 00 hr 01 min 41 sec)
Heartbeat CPU 0 instructions: 30000000 cycles: 5051111 heartbeat IPC: 5.998 cumulative IPC: 5.939 (Simulation time: 00 hr 02 min 31 sec)
Warmup finished CPU 0 instructions: 30000000 cycles: 5051112 cumulative IPC: 5.939 (Simulation time: 00 hr 02 min 31 sec)
Warmup complete CPU 0 instructions: 30000000 cycles: 5051112 cumulative IPC: 5.939 (Simulation time: 00 hr 02 min 31 sec)
Heartbeat CPU 0 instructions: 40000001 cycles: 23250601 heartbeat IPC: 0.5495 cumulative IPC: 0.5495 (Simulation time: 00 hr 06 min 59 sec)
Heartbeat CPU 0 instructions: 50000009 cycles: 41220488 heartbeat IPC: 0.5565 cumulative IPC: 0.553 (Simulation time: 00 hr 11 min 58 sec)
Heartbeat CPU 0 instructions: 60000000 cycles: 59158382 heartbeat IPC: 0.5575 cumulative IPC: 0.5545 (Simulation time: 00 hr 16 min 22 sec)
Heartbeat CPU 0 instructions: 70000000 cycles: 76793676 heartbeat IPC: 0.567 cumulative IPC: 0.5575 (Simulation time: 00 hr 20 min 46 sec)
Heartbeat CPU 0 instructions: 80000001 cycles: 94496886 heartbeat IPC: 0.5649 cumulative IPC: 0.559 (Simulation time: 00 hr 24 min 33 sec)
Heartbeat CPU 0 instructions: 90000007 cycles: 112201744 heartbeat IPC: 0.5648 cumulative IPC: 0.56 (Simulation time: 00 hr 28 min 19 sec)
Heartbeat CPU 0 instructions: 100000006 cycles: 131132759 heartbeat IPC: 0.5282 cumulative IPC: 0.5552 (Simulation time: 00 hr 32 min 28 sec)
*** Reached end of trace: (0, "../traces/secret_traces/compute_fp/compute_fp_134.champsimtrace.xz")
Heartbeat CPU 0 instructions: 110000000 cycles: 149286427 heartbeat IPC: 0.5509 cumulative IPC: 0.5546 (Simulation time: 00 hr 37 min 02 sec)
Heartbeat CPU 0 instructions: 120000000 cycles: 167446296 heartbeat IPC: 0.5507 cumulative IPC: 0.5542 (Simulation time: 00 hr 41 min 34 sec)
Heartbeat CPU 0 instructions: 130000002 cycles: 185408822 heartbeat IPC: 0.5567 cumulative IPC: 0.5545 (Simulation time: 00 hr 46 min 06 sec)
Simulation finished CPU 0 instructions: 100000002 cycles: 180357711 cumulative IPC: 0.5545 (Simulation time: 00 hr 46 min 06 sec)
Simulation complete CPU 0 instructions: 100000002 cycles: 180357711 cumulative IPC: 0.5545 (Simulation time: 00 hr 46 min 06 sec)

ChampSim completed all CPUs

=== Simulation ===
CPU 0 runs ../traces/secret_traces/compute_fp/compute_fp_134.champsimtrace.xz
Region of Interest Statistics

CPU 0 cumulative IPC: 0.5545 instructions: 100000002 cycles: 180357711
CPU 0 Branch Prediction Accuracy: 99.52% MPKI: 0.1352 Average ROB Occupancy at Mispredict: 31.42
Branch type MPKI
BRANCH_DIRECT_JUMP: 0.00726
BRANCH_INDIRECT: 0.0667
BRANCH_CONDITIONAL: 0.0269
BRANCH_DIRECT_CALL: 0.0207
BRANCH_INDIRECT_CALL: 0.00238
BRANCH_RETURN: 0.0113

LLC TOTAL        ACCESS:    7410093 HIT:    2560277 MISS:    4849816
LLC LOAD         ACCESS:     530965 HIT:       5365 MISS:     525600
LLC RFO          ACCESS:      29232 HIT:       6536 MISS:      22696
LLC PREFETCH     ACCESS:    4802877 HIT:     516329 MISS:    4286548
LLC WRITE        ACCESS:    2028718 HIT:    2028553 MISS:        165
LLC TRANSLATION  ACCESS:      18301 HIT:       3494 MISS:      14807
LLC PREFETCH REQUESTED:          0 ISSUED:          0 USEFUL:          0 USELESS:          0
LLC AVERAGE MISS LATENCY: 815.5 cycles
cpu0_DTLB TOTAL        ACCESS:   23766870 HIT:   23259504 MISS:     507366
cpu0_DTLB LOAD         ACCESS:   23766870 HIT:   23259504 MISS:     507366
cpu0_DTLB RFO          ACCESS:          0 HIT:          0 MISS:          0
cpu0_DTLB PREFETCH     ACCESS:          0 HIT:          0 MISS:          0
cpu0_DTLB WRITE        ACCESS:          0 HIT:          0 MISS:          0
cpu0_DTLB TRANSLATION  ACCESS:          0 HIT:          0 MISS:          0
cpu0_DTLB PREFETCH REQUESTED:          0 ISSUED:          0 USEFUL:          0 USELESS:          0
cpu0_DTLB AVERAGE MISS LATENCY: 50.16 cycles
cpu0_ITLB TOTAL        ACCESS:     119100 HIT:     117492 MISS:       1608
cpu0_ITLB LOAD         ACCESS:     119100 HIT:     117492 MISS:       1608
cpu0_ITLB RFO          ACCESS:          0 HIT:          0 MISS:          0
cpu0_ITLB PREFETCH     ACCESS:          0 HIT:          0 MISS:          0
cpu0_ITLB WRITE        ACCESS:          0 HIT:          0 MISS:          0
cpu0_ITLB TRANSLATION  ACCESS:          0 HIT:          0 MISS:          0
cpu0_ITLB PREFETCH REQUESTED:          0 ISSUED:          0 USEFUL:          0 USELESS:          0
cpu0_ITLB AVERAGE MISS LATENCY: 64.08 cycles
cpu0_L1D TOTAL        ACCESS:   38807811 HIT:   25852169 MISS:   12955642
cpu0_L1D LOAD         ACCESS:   18786337 HIT:   12399301 MISS:    6387036
cpu0_L1D RFO          ACCESS:          0 HIT:          0 MISS:          0
cpu0_L1D PREFETCH     ACCESS:    9425750 HIT:    3344953 MISS:    6080797
cpu0_L1D WRITE        ACCESS:   10415749 HIT:   10090488 MISS:     325261
cpu0_L1D TRANSLATION  ACCESS:     179975 HIT:      17427 MISS:     162548
cpu0_L1D PREFETCH REQUESTED:  188063716 ISSUED:    9425750 USEFUL:    1578305 USELESS:     175698
cpu0_L1D AVERAGE MISS LATENCY: 126.5 cycles
cpu0_L1I TOTAL        ACCESS:     172688 HIT:     135491 MISS:      37197
cpu0_L1I LOAD         ACCESS:      60326 HIT:      48858 MISS:      11468
cpu0_L1I RFO          ACCESS:          0 HIT:          0 MISS:          0
cpu0_L1I PREFETCH     ACCESS:     112362 HIT:      86633 MISS:      25729
cpu0_L1I WRITE        ACCESS:          0 HIT:          0 MISS:          0
cpu0_L1I TRANSLATION  ACCESS:          0 HIT:          0 MISS:          0
cpu0_L1I PREFETCH REQUESTED:     169450 ISSUED:     112362 USEFUL:      13799 USELESS:       9712
cpu0_L1I AVERAGE MISS LATENCY: 130.4 cycles
cpu0_L2C TOTAL        ACCESS:   19563904 HIT:    7357738 MISS:   12206166
cpu0_L2C LOAD         ACCESS:    3337066 HIT:    1264899 MISS:    2072167
cpu0_L2C RFO          ACCESS:     115255 HIT:      59884 MISS:      55371
cpu0_L2C PREFETCH     ACCESS:   13916943 HIT:    3856672 MISS:   10060271
cpu0_L2C WRITE        ACCESS:    2032117 HIT:    2032061 MISS:         56
cpu0_L2C TRANSLATION  ACCESS:     162523 HIT:     144222 MISS:      18301
cpu0_L2C PREFETCH REQUESTED:    9895536 ISSUED:    8627449 USEFUL:    2356171 USELESS:     618870
cpu0_L2C AVERAGE MISS LATENCY: 291.3 cycles
cpu0_STLB TOTAL        ACCESS:     265431 HIT:      86118 MISS:     179313
cpu0_STLB LOAD         ACCESS:     265431 HIT:      86118 MISS:     179313
cpu0_STLB RFO          ACCESS:          0 HIT:          0 MISS:          0
cpu0_STLB PREFETCH     ACCESS:          0 HIT:          0 MISS:          0
cpu0_STLB WRITE        ACCESS:          0 HIT:          0 MISS:          0
cpu0_STLB TRANSLATION  ACCESS:          0 HIT:          0 MISS:          0
cpu0_STLB PREFETCH REQUESTED:          0 ISSUED:          0 USEFUL:          0 USELESS:          0
cpu0_STLB AVERAGE MISS LATENCY: 181.1 cycles

DRAM Statistics

Channel 0 RQ ROW_BUFFER_HIT:    1162785
  ROW_BUFFER_MISS:    1273834
 AVG DBUS CONGESTED CYCLE: 3.96
WQ ROW_BUFFER_HIT: Channel 0 
  ROW_BUFFER_MISS:      94540
  FULL:     918624

Channel 1 RQ ROW_BUFFER_HIT:    1158491
  ROW_BUFFER_MISS:    1254520
 AVG DBUS CONGESTED CYCLE: 3.957
WQ ROW_BUFFER_HIT: Channel 1 
  ROW_BUFFER_MISS:     101876
  FULL:     910833
BERTI TO_L1: 74860146 TO_L2: 169875800 TO_L2_BC_MSHR: 127036421
BERTI AVG_LAT: 385.399 NUM_TRACK_LATENCY: 6780652 NUM_CANT_TRACK_LATENCY: 789
BERTI CROSS_PAGE 26089228 NO_CROSS_PAGE: 218646718
BERTI FOUND_BERTI: 42572141 NO_FOUND_BERTI: 7550781
BERTI AVERAGE_ISSUED: 3.83229
CPU 0 L1I Entangling prefetcher final stats
IP accesses: 8c4 23100 1162 / 83457
IP misses: 8c4 23100 1148 / 34599
IP hits: 0 0 0 / 0
IP late: 4232 108c80 17 / 5846
IP wrong: 2172 85c80 23 / 9653
miss rate: 0.414573
coverage: 0
coverage_late: 0.168965
accuracy: 0
accuracy_late: 0.377186
discarded: 0
evicts entangled j table: 0
evicts entangled k table: 1632
max bb size: 65
formats: 463 0 1341 727 319 745 0 
hist_lookups: 1206 1280 1001 905 785 641 506 413 328 266 219 138 110 60 25 0 21 3812 
hist_lookups_evict: 0.179243 %
hist_lookups_shortlat: 32.5368 %
bb_found_hist: 0 14761 6234 2826 1072 679 234 62 29 15 11 7 12 0 6 0 23 5 0 0 0 0 1 0 0 0 0 0 0 0 0 0 0 0 0 0 0 0 0 0 0 0 0 0 0 0 0 0 0 2 0 0 0 0 0 0 0 0 0 0 0 0 0 0 
bb_found_summary: 46583 25979 1.79311
entangled_found_hist: 0 7827 5400 9939 1835 570 57 0 
entangled_found_summary: 58976 25628 2.30124
bb_ent_found_hist: 0 20556 10275 5764 2300 1340 737 167 122 5 18 3 0 0 1 0 0 6 0 0 0 0 5 0 0 0 0 0 0 0 0 0 0 0 0 0 0 0 0 0 0 0 0 0 0 0 0 0 0 3 0 0 0 0 0 0 0 0 0 0 0 0 0 0 
bb_ent_found_summary: 81496 41302 1.97318
