WARNING: physical memory size is smaller than virtual memory size.

*** ChampSim Multicore Out-of-Order Simulator ***
Warmup Instructions: 30000000
Simulation Instructions: 100000000
Number of CPUs: 1
Page size: 4096

BTB:
Basic BTB sets: 1024 ways: 8
Indirect:
history lengths: 0 0 10 16 27 44 60 96 109 219 449 487 714 1313 2146 3881 
ITTAGE tables: 64768 bytes;Region table: 240 bytes;IUM: 384 bytes;Total Storage= 65392 bytes;
RAS:
RAS size: 64
Berti Prefetcher
CPU 0 Entangling prefetcher
Off-chip DRAM Size: 8 GiB Channels: 2 Width: 64-bit Data Race: 6400 MT/s
Heartbeat CPU 0 instructions: 10000009 cycles: 1846512 heartbeat IPC: 5.416 cumulative IPC: 5.416 (Simulation time: 00 hr 00 min 55 sec)
Heartbeat CPU 0 instructions: 20000005 cycles: 3543380 heartbeat IPC: 5.893 cumulative IPC: 5.644 (Simulation time: 00 hr 01 min 43 sec)
Heartbeat CPU 0 instructions: 30000004 cycles: 5263009 heartbeat IPC: 5.815 cumulative IPC: 5.7 (Simulation time: 00 hr 02 min 33 sec)
Warmup finished CPU 0 instructions: 30000004 cycles: 5263010 cumulative IPC: 5.7 (Simulation time: 00 hr 02 min 33 sec)
Warmup complete CPU 0 instructions: 30000004 cycles: 5263010 cumulative IPC: 5.7 (Simulation time: 00 hr 02 min 33 sec)
Heartbeat CPU 0 instructions: 40000011 cycles: 16338804 heartbeat IPC: 0.9029 cumulative IPC: 0.9029 (Simulation time: 00 hr 05 min 26 sec)
Heartbeat CPU 0 instructions: 50000002 cycles: 19526105 heartbeat IPC: 3.137 cumulative IPC: 1.402 (Simulation time: 00 hr 07 min 06 sec)
Heartbeat CPU 0 instructions: 60000009 cycles: 33842959 heartbeat IPC: 0.6985 cumulative IPC: 1.05 (Simulation time: 00 hr 11 min 00 sec)
Heartbeat CPU 0 instructions: 70000006 cycles: 53047651 heartbeat IPC: 0.5207 cumulative IPC: 0.8371 (Simulation time: 00 hr 16 min 27 sec)
Heartbeat CPU 0 instructions: 80000003 cycles: 72721132 heartbeat IPC: 0.5083 cumulative IPC: 0.7412 (Simulation time: 00 hr 22 min 02 sec)
Heartbeat CPU 0 instructions: 90000005 cycles: 92361562 heartbeat IPC: 0.5092 cumulative IPC: 0.6889 (Simulation time: 00 hr 26 min 50 sec)
Heartbeat CPU 0 instructions: 100000011 cycles: 111979077 heartbeat IPC: 0.5097 cumulative IPC: 0.6559 (Simulation time: 00 hr 32 min 05 sec)
*** Reached end of trace: (0, "../traces/secret_traces/compute_fp/compute_fp_51.champsimtrace.xz")
Heartbeat CPU 0 instructions: 110000011 cycles: 126386511 heartbeat IPC: 0.6941 cumulative IPC: 0.6605 (Simulation time: 00 hr 35 min 32 sec)
Heartbeat CPU 0 instructions: 120000005 cycles: 132265749 heartbeat IPC: 1.701 cumulative IPC: 0.7086 (Simulation time: 00 hr 37 min 24 sec)
Heartbeat CPU 0 instructions: 130000006 cycles: 139259631 heartbeat IPC: 1.43 cumulative IPC: 0.7463 (Simulation time: 00 hr 39 min 39 sec)
Simulation finished CPU 0 instructions: 100000002 cycles: 133996622 cumulative IPC: 0.7463 (Simulation time: 00 hr 39 min 39 sec)
Simulation complete CPU 0 instructions: 100000002 cycles: 133996622 cumulative IPC: 0.7463 (Simulation time: 00 hr 39 min 39 sec)

ChampSim completed all CPUs

=== Simulation ===
CPU 0 runs ../traces/secret_traces/compute_fp/compute_fp_51.champsimtrace.xz
Region of Interest Statistics

CPU 0 cumulative IPC: 0.7463 instructions: 100000002 cycles: 133996622
CPU 0 Branch Prediction Accuracy: 99.35% MPKI: 0.1358 Average ROB Occupancy at Mispredict: 31.07
Branch type MPKI
BRANCH_DIRECT_JUMP: 0.00732
BRANCH_INDIRECT: 0.0667
BRANCH_CONDITIONAL: 0.0271
BRANCH_DIRECT_CALL: 0.0208
BRANCH_INDIRECT_CALL: 0.00245
BRANCH_RETURN: 0.0114

LLC TOTAL        ACCESS:    6064578 HIT:    1570375 MISS:    4494203
LLC LOAD         ACCESS:     711207 HIT:      17041 MISS:     694166
LLC RFO          ACCESS:      26746 HIT:       6770 MISS:      19976
LLC PREFETCH     ACCESS:    4065578 HIT:     415770 MISS:    3649808
LLC WRITE        ACCESS:    1131768 HIT:    1129938 MISS:       1830
LLC TRANSLATION  ACCESS:     129279 HIT:        856 MISS:     128423
LLC PREFETCH REQUESTED:          0 ISSUED:          0 USEFUL:          0 USELESS:          0
LLC AVERAGE MISS LATENCY: 728.1 cycles
cpu0_DTLB TOTAL        ACCESS:   24092746 HIT:   21472061 MISS:    2620685
cpu0_DTLB LOAD         ACCESS:   24092746 HIT:   21472061 MISS:    2620685
cpu0_DTLB RFO          ACCESS:          0 HIT:          0 MISS:          0
cpu0_DTLB PREFETCH     ACCESS:          0 HIT:          0 MISS:          0
cpu0_DTLB WRITE        ACCESS:          0 HIT:          0 MISS:          0
cpu0_DTLB TRANSLATION  ACCESS:          0 HIT:          0 MISS:          0
cpu0_DTLB PREFETCH REQUESTED:          0 ISSUED:          0 USEFUL:          0 USELESS:          0
cpu0_DTLB AVERAGE MISS LATENCY: 32.67 cycles
cpu0_ITLB TOTAL        ACCESS:     118732 HIT:     117134 MISS:       1598
cpu0_ITLB LOAD         ACCESS:     118732 HIT:     117134 MISS:       1598
cpu0_ITLB RFO          ACCESS:          0 HIT:          0 MISS:          0
cpu0_ITLB PREFETCH     ACCESS:          0 HIT:          0 MISS:          0
cpu0_ITLB WRITE        ACCESS:          0 HIT:          0 MISS:          0
cpu0_ITLB TRANSLATION  ACCESS:          0 HIT:          0 MISS:          0
cpu0_ITLB PREFETCH REQUESTED:          0 ISSUED:          0 USEFUL:          0 USELESS:          0
cpu0_ITLB AVERAGE MISS LATENCY: 60.71 cycles
cpu0_L1D TOTAL        ACCESS:   36399049 HIT:   20435094 MISS:   15963955
cpu0_L1D LOAD         ACCESS:   15974146 HIT:    6642477 MISS:    9331669
cpu0_L1D RFO          ACCESS:          0 HIT:          0 MISS:          0
cpu0_L1D PREFETCH     ACCESS:    9542568 HIT:    3480771 MISS:    6061797
cpu0_L1D WRITE        ACCESS:   10655153 HIT:   10286855 MISS:     368298
cpu0_L1D TRANSLATION  ACCESS:     227182 HIT:      24991 MISS:     202191
cpu0_L1D PREFETCH REQUESTED:  231811044 ISSUED:    9542542 USEFUL:    1303712 USELESS:     234233
cpu0_L1D AVERAGE MISS LATENCY: 80.05 cycles
cpu0_L1I TOTAL        ACCESS:     171643 HIT:     134788 MISS:      36855
cpu0_L1I LOAD         ACCESS:      60800 HIT:      49151 MISS:      11649
cpu0_L1I RFO          ACCESS:          0 HIT:          0 MISS:          0
cpu0_L1I PREFETCH     ACCESS:     110843 HIT:      85637 MISS:      25206
cpu0_L1I WRITE        ACCESS:          0 HIT:          0 MISS:          0
cpu0_L1I TRANSLATION  ACCESS:          0 HIT:          0 MISS:          0
cpu0_L1I PREFETCH REQUESTED:     163787 ISSUED:     110843 USEFUL:      13810 USELESS:       9072
cpu0_L1I AVERAGE MISS LATENCY: 118.5 cycles
cpu0_L2C TOTAL        ACCESS:   25658685 HIT:   15898646 MISS:    9760039
cpu0_L2C LOAD         ACCESS:    7507949 HIT:    5790909 MISS:    1717040
cpu0_L2C RFO          ACCESS:      67494 HIT:      37899 MISS:      29595
cpu0_L2C PREFETCH     ACCESS:   15881511 HIT:    7997400 MISS:    7884111
cpu0_L2C WRITE        ACCESS:    2001880 HIT:    2001866 MISS:         14
cpu0_L2C TRANSLATION  ACCESS:     199851 HIT:      70572 MISS:     129279
cpu0_L2C PREFETCH REQUESTED:   13758496 ISSUED:   10543634 USEFUL:    1888754 USELESS:     786537
cpu0_L2C AVERAGE MISS LATENCY: 305.4 cycles
cpu0_STLB TOTAL        ACCESS:    2405635 HIT:    2233304 MISS:     172331
cpu0_STLB LOAD         ACCESS:    2405635 HIT:    2233304 MISS:     172331
cpu0_STLB RFO          ACCESS:          0 HIT:          0 MISS:          0
cpu0_STLB PREFETCH     ACCESS:          0 HIT:          0 MISS:          0
cpu0_STLB WRITE        ACCESS:          0 HIT:          0 MISS:          0
cpu0_STLB TRANSLATION  ACCESS:          0 HIT:          0 MISS:          0
cpu0_STLB PREFETCH REQUESTED:          0 ISSUED:          0 USEFUL:          0 USELESS:          0
cpu0_STLB AVERAGE MISS LATENCY: 411.1 cycles

DRAM Statistics

Channel 0 RQ ROW_BUFFER_HIT:     566868
  ROW_BUFFER_MISS:    1697762
 AVG DBUS CONGESTED CYCLE: 3.972
WQ ROW_BUFFER_HIT: Channel 0 
  ROW_BUFFER_MISS:      36506
  FULL:     526940

Channel 1 RQ ROW_BUFFER_HIT:     566838
  ROW_BUFFER_MISS:    1660778
 AVG DBUS CONGESTED CYCLE: 3.96
WQ ROW_BUFFER_HIT: Channel 1 
  ROW_BUFFER_MISS:      45057
  FULL:     517803
BERTI TO_L1: 31947594 TO_L2: 217602057 TO_L2_BC_MSHR: 135715477
BERTI AVG_LAT: 183.54 NUM_TRACK_LATENCY: 12463475 NUM_CANT_TRACK_LATENCY: 2479
BERTI CROSS_PAGE 58211705 NO_CROSS_PAGE: 191337946
BERTI FOUND_BERTI: 41473498 NO_FOUND_BERTI: 6902071
BERTI AVERAGE_ISSUED: 3.49059
CPU 0 L1I Entangling prefetcher final stats
IP accesses: ea87 3aa1c0 1058 / 89634
IP misses: ea87 3aa1c0 957 / 40483
IP hits: 0 0 0 / 0
IP late: 4232 108c80 16 / 6040
IP wrong: 3a2d e8b40 21 / 9016
miss rate: 0.451648
coverage: 0
coverage_late: 0.149199
accuracy: 0
accuracy_late: 0.401169
discarded: 0
evicts entangled j table: 0
evicts entangled k table: 1618
max bb size: 65
formats: 487 0 1396 749 278 691 0 
hist_lookups: 1182 1263 955 886 806 691 535 426 378 278 183 117 88 56 32 0 18 4255 
hist_lookups_evict: 0.148161 %
hist_lookups_shortlat: 35.0235 %
bb_found_hist: 0 14722 6356 2859 1119 634 238 77 59 18 28 4 14 6 27 0 6 0 0 0 0 0 0 0 0 0 0 2 0 0 0 0 0 0 0 0 0 0 2 0 0 0 0 0 4 0 0 0 0 0 0 0 0 0 0 0 0 0 0 0 0 0 0 0 
bb_found_summary: 47608 26175 1.81884
entangled_found_hist: 0 8319 5510 9369 1551 373 62 0 
entangled_found_summary: 55887 25184 2.21915
bb_ent_found_hist: 0 18807 9375 5306 2171 1356 709 274 72 19 87 0 0 4 4 0 2 0 0 0 0 0 0 0 0 3 0 4 0 0 0 0 0 0 0 0 0 0 5 0 0 0 0 0 2 0 0 0 0 0 0 0 0 0 0 0 0 0 0 0 0 0 0 0 
bb_ent_found_summary: 77329 38200 2.02432
