WARNING: physical memory size is smaller than virtual memory size.

*** ChampSim Multicore Out-of-Order Simulator ***
Warmup Instructions: 30000000
Simulation Instructions: 100000000
Number of CPUs: 1
Page size: 4096

BTB:
Basic BTB sets: 1024 ways: 8
Indirect:
history lengths: 0 0 10 16 27 44 60 96 109 219 449 487 714 1313 2146 3881 
ITTAGE tables: 64768 bytes;Region table: 240 bytes;IUM: 384 bytes;Total Storage= 65392 bytes;
RAS:
RAS size: 64
Berti Prefetcher
CPU 0 Entangling prefetcher
Off-chip DRAM Size: 8 GiB Channels: 2 Width: 64-bit Data Race: 6400 MT/s
Heartbeat CPU 0 instructions: 10000005 cycles: 1681215 heartbeat IPC: 5.948 cumulative IPC: 5.948 (Simulation time: 00 hr 00 min 40 sec)
Heartbeat CPU 0 instructions: 20000009 cycles: 3380406 heartbeat IPC: 5.885 cumulative IPC: 5.916 (Simulation time: 00 hr 01 min 20 sec)
Heartbeat CPU 0 instructions: 30000006 cycles: 5054661 heartbeat IPC: 5.973 cumulative IPC: 5.935 (Simulation time: 00 hr 02 min 05 sec)
Warmup finished CPU 0 instructions: 30000006 cycles: 5054662 cumulative IPC: 5.935 (Simulation time: 00 hr 02 min 05 sec)
Warmup complete CPU 0 instructions: 30000006 cycles: 5054662 cumulative IPC: 5.935 (Simulation time: 00 hr 02 min 05 sec)
Heartbeat CPU 0 instructions: 40000005 cycles: 7088542 heartbeat IPC: 4.917 cumulative IPC: 4.917 (Simulation time: 00 hr 02 min 57 sec)
Heartbeat CPU 0 instructions: 50000001 cycles: 8813727 heartbeat IPC: 5.796 cumulative IPC: 5.32 (Simulation time: 00 hr 03 min 43 sec)
Heartbeat CPU 0 instructions: 60000004 cycles: 10639759 heartbeat IPC: 5.476 cumulative IPC: 5.371 (Simulation time: 00 hr 04 min 29 sec)
Heartbeat CPU 0 instructions: 70000004 cycles: 12502726 heartbeat IPC: 5.368 cumulative IPC: 5.371 (Simulation time: 00 hr 05 min 21 sec)
Heartbeat CPU 0 instructions: 80000004 cycles: 14328959 heartbeat IPC: 5.476 cumulative IPC: 5.391 (Simulation time: 00 hr 06 min 14 sec)
Heartbeat CPU 0 instructions: 90000009 cycles: 16314238 heartbeat IPC: 5.037 cumulative IPC: 5.329 (Simulation time: 00 hr 07 min 05 sec)
Heartbeat CPU 0 instructions: 100000002 cycles: 18016292 heartbeat IPC: 5.875 cumulative IPC: 5.401 (Simulation time: 00 hr 07 min 51 sec)
*** Reached end of trace: (0, "../traces/secret_traces/compute_fp/compute_fp_76.champsimtrace.xz")
Heartbeat CPU 0 instructions: 110000001 cycles: 19770651 heartbeat IPC: 5.7 cumulative IPC: 5.436 (Simulation time: 00 hr 08 min 37 sec)
Heartbeat CPU 0 instructions: 120000007 cycles: 21538906 heartbeat IPC: 5.655 cumulative IPC: 5.46 (Simulation time: 00 hr 09 min 29 sec)
Heartbeat CPU 0 instructions: 130000002 cycles: 23227839 heartbeat IPC: 5.921 cumulative IPC: 5.503 (Simulation time: 00 hr 10 min 20 sec)
Simulation finished CPU 0 instructions: 100000009 cycles: 18173180 cumulative IPC: 5.503 (Simulation time: 00 hr 10 min 20 sec)
Simulation complete CPU 0 instructions: 100000009 cycles: 18173180 cumulative IPC: 5.503 (Simulation time: 00 hr 10 min 20 sec)

ChampSim completed all CPUs

=== Simulation ===
CPU 0 runs ../traces/secret_traces/compute_fp/compute_fp_76.champsimtrace.xz
Region of Interest Statistics

CPU 0 cumulative IPC: 5.503 instructions: 100000009 cycles: 18173180
CPU 0 Branch Prediction Accuracy: 99.54% MPKI: 0.2992 Average ROB Occupancy at Mispredict: 98.51
Branch type MPKI
BRANCH_DIRECT_JUMP: 0.00156
BRANCH_INDIRECT: 0.0199
BRANCH_CONDITIONAL: 0.257
BRANCH_DIRECT_CALL: 0.00137
BRANCH_INDIRECT_CALL: 0.00042
BRANCH_RETURN: 0.0192

LLC TOTAL        ACCESS:     104550 HIT:      63585 MISS:      40965
LLC LOAD         ACCESS:       4602 HIT:       2743 MISS:       1859
LLC RFO          ACCESS:      28747 HIT:       3206 MISS:      25541
LLC PREFETCH     ACCESS:      31631 HIT:      18400 MISS:      13231
LLC WRITE        ACCESS:      39220 HIT:      39206 MISS:         14
LLC TRANSLATION  ACCESS:        350 HIT:         30 MISS:        320
LLC PREFETCH REQUESTED:          0 ISSUED:          0 USEFUL:          0 USELESS:          0
LLC AVERAGE MISS LATENCY: 149.6 cycles
cpu0_DTLB TOTAL        ACCESS:   16698439 HIT:   16371595 MISS:     326844
cpu0_DTLB LOAD         ACCESS:   16698439 HIT:   16371595 MISS:     326844
cpu0_DTLB RFO          ACCESS:          0 HIT:          0 MISS:          0
cpu0_DTLB PREFETCH     ACCESS:          0 HIT:          0 MISS:          0
cpu0_DTLB WRITE        ACCESS:          0 HIT:          0 MISS:          0
cpu0_DTLB TRANSLATION  ACCESS:          0 HIT:          0 MISS:          0
cpu0_DTLB PREFETCH REQUESTED:          0 ISSUED:          0 USEFUL:          0 USELESS:          0
cpu0_DTLB AVERAGE MISS LATENCY: 3.846 cycles
cpu0_ITLB TOTAL        ACCESS:      33866 HIT:      33669 MISS:        197
cpu0_ITLB LOAD         ACCESS:      33866 HIT:      33669 MISS:        197
cpu0_ITLB RFO          ACCESS:          0 HIT:          0 MISS:          0
cpu0_ITLB PREFETCH     ACCESS:          0 HIT:          0 MISS:          0
cpu0_ITLB WRITE        ACCESS:          0 HIT:          0 MISS:          0
cpu0_ITLB TRANSLATION  ACCESS:          0 HIT:          0 MISS:          0
cpu0_ITLB PREFETCH REQUESTED:          0 ISSUED:          0 USEFUL:          0 USELESS:          0
cpu0_ITLB AVERAGE MISS LATENCY: 210.4 cycles
cpu0_L1D TOTAL        ACCESS:   37832629 HIT:   27000062 MISS:   10832567
cpu0_L1D LOAD         ACCESS:   15175096 HIT:   10279130 MISS:    4895966
cpu0_L1D RFO          ACCESS:          0 HIT:          0 MISS:          0
cpu0_L1D PREFETCH     ACCESS:   10709754 HIT:    5086079 MISS:    5623675
cpu0_L1D WRITE        ACCESS:   11946997 HIT:   11634478 MISS:     312519
cpu0_L1D TRANSLATION  ACCESS:        782 HIT:        375 MISS:        407
cpu0_L1D PREFETCH REQUESTED:   28266656 ISSUED:   10709751 USEFUL:     751483 USELESS:     404745
cpu0_L1D AVERAGE MISS LATENCY: 3.702 cycles
cpu0_L1I TOTAL        ACCESS:      48381 HIT:      42731 MISS:       5650
cpu0_L1I LOAD         ACCESS:      20056 HIT:      16733 MISS:       3323
cpu0_L1I RFO          ACCESS:          0 HIT:          0 MISS:          0
cpu0_L1I PREFETCH     ACCESS:      28325 HIT:      25998 MISS:       2327
cpu0_L1I WRITE        ACCESS:          0 HIT:          0 MISS:          0
cpu0_L1I TRANSLATION  ACCESS:          0 HIT:          0 MISS:          0
cpu0_L1I PREFETCH REQUESTED:      35951 ISSUED:      28325 USEFUL:       1137 USELESS:        403
cpu0_L1I AVERAGE MISS LATENCY: 33.06 cycles
cpu0_L2C TOTAL        ACCESS:   12999995 HIT:   12903214 MISS:      96781
cpu0_L2C LOAD         ACCESS:    2301389 HIT:    2295012 MISS:       6377
cpu0_L2C RFO          ACCESS:      80244 HIT:      51494 MISS:      28750
cpu0_L2C PREFETCH     ACCESS:    7766093 HIT:    7704796 MISS:      61297
cpu0_L2C WRITE        ACCESS:    2851862 HIT:    2851855 MISS:          7
cpu0_L2C TRANSLATION  ACCESS:        407 HIT:         57 MISS:        350
cpu0_L2C PREFETCH REQUESTED:    6449499 ISSUED:    3617984 USEFUL:       5339 USELESS:       2370
cpu0_L2C AVERAGE MISS LATENCY: 74.89 cycles
cpu0_STLB TOTAL        ACCESS:     196189 HIT:     195441 MISS:        748
cpu0_STLB LOAD         ACCESS:     196189 HIT:     195441 MISS:        748
cpu0_STLB RFO          ACCESS:          0 HIT:          0 MISS:          0
cpu0_STLB PREFETCH     ACCESS:          0 HIT:          0 MISS:          0
cpu0_STLB WRITE        ACCESS:          0 HIT:          0 MISS:          0
cpu0_STLB TRANSLATION  ACCESS:          0 HIT:          0 MISS:          0
cpu0_STLB PREFETCH REQUESTED:          0 ISSUED:          0 USEFUL:          0 USELESS:          0
cpu0_STLB AVERAGE MISS LATENCY: 244.9 cycles

DRAM Statistics

Channel 0 RQ ROW_BUFFER_HIT:      13795
  ROW_BUFFER_MISS:       6702
 AVG DBUS CONGESTED CYCLE: 3.815
WQ ROW_BUFFER_HIT: Channel 0 
  ROW_BUFFER_MISS:        652
  FULL:       3347

Channel 1 RQ ROW_BUFFER_HIT:      13848
  ROW_BUFFER_MISS:       6564
 AVG DBUS CONGESTED CYCLE: 3.828
WQ ROW_BUFFER_HIT: Channel 1 
  ROW_BUFFER_MISS:        642
  FULL:       3303
BERTI TO_L1: 15177739 TO_L2: 29756204 TO_L2_BC_MSHR: 328818
BERTI AVG_LAT: 27.8419 NUM_TRACK_LATENCY: 4820973 NUM_CANT_TRACK_LATENCY: 0
BERTI CROSS_PAGE 10669829 NO_CROSS_PAGE: 34264114
BERTI FOUND_BERTI: 14685345 NO_FOUND_BERTI: 5540408
BERTI AVERAGE_ISSUED: 3.01289
CPU 0 L1I Entangling prefetcher final stats
IP accesses: 2301 8c040 149 / 20507
IP misses: 4374 10dd00 51 / 3774
IP hits: 0 0 0 / 0
IP late: 2134 84d00 10 / 1305
IP wrong: 64ba 192e80 6 / 399
miss rate: 0.184035
coverage: 0
coverage_late: 0.345787
accuracy: 0
accuracy_late: 0.765846
discarded: 0
evicts entangled j table: 0
evicts entangled k table: 213
max bb size: 16
formats: 45 67 383 131 180 243 0 
hist_lookups: 529 372 190 183 154 120 108 101 89 54 34 27 15 3 5 0 3 858 
hist_lookups_evict: 0.105449 %
hist_lookups_shortlat: 30.1582 %
bb_found_hist: 0 3500 969 609 296 204 35 13 0 6 2 18 0 0 0 10 33 0 0 0 0 0 0 0 0 0 0 0 0 0 0 0 0 0 0 0 0 0 0 0 0 0 0 0 0 0 0 0 0 0 0 0 0 0 0 0 0 0 0 0 0 0 0 0 
bb_found_summary: 10720 5695 1.88236
entangled_found_hist: 0 2232 1616 1520 281 249 0 0 
entangled_found_summary: 12393 5898 2.10123
bb_ent_found_hist: 0 3087 979 728 396 319 129 89 0 139 0 87 0 0 0 31 36 0 0 0 0 0 0 0 0 0 0 0 0 0 0 0 0 0 0 0 0 0 0 0 0 0 0 0 0 0 0 0 0 0 0 0 0 0 0 0 0 0 0 0 0 0 0 0 
bb_ent_found_summary: 15054 6020 2.50067
