WARNING: physical memory size is smaller than virtual memory size.

*** ChampSim Multicore Out-of-Order Simulator ***
Warmup Instructions: 30000000
Simulation Instructions: 100000000
Number of CPUs: 1
Page size: 4096

BTB:
Basic BTB sets: 1024 ways: 8
Indirect:
history lengths: 0 0 10 16 27 44 60 96 109 219 449 487 714 1313 2146 3881 
ITTAGE tables: 64768 bytes;Region table: 240 bytes;IUM: 384 bytes;Total Storage= 65392 bytes;
RAS:
RAS size: 64
Berti Prefetcher
CPU 0 Entangling prefetcher
Off-chip DRAM Size: 8 GiB Channels: 2 Width: 64-bit Data Race: 6400 MT/s
Heartbeat CPU 0 instructions: 10000000 cycles: 1716987 heartbeat IPC: 5.824 cumulative IPC: 5.824 (Simulation time: 00 hr 00 min 47 sec)
Heartbeat CPU 0 instructions: 20000000 cycles: 3544569 heartbeat IPC: 5.472 cumulative IPC: 5.642 (Simulation time: 00 hr 01 min 32 sec)
Heartbeat CPU 0 instructions: 30000001 cycles: 5559927 heartbeat IPC: 4.962 cumulative IPC: 5.396 (Simulation time: 00 hr 02 min 29 sec)
Warmup finished CPU 0 instructions: 30000001 cycles: 5559928 cumulative IPC: 5.396 (Simulation time: 00 hr 02 min 29 sec)
Warmup complete CPU 0 instructions: 30000001 cycles: 5559928 cumulative IPC: 5.396 (Simulation time: 00 hr 02 min 29 sec)
Heartbeat CPU 0 instructions: 40000002 cycles: 32079226 heartbeat IPC: 0.3771 cumulative IPC: 0.3771 (Simulation time: 00 hr 09 min 42 sec)
[cpu0_PTW_MSHR] entry:   0 address: 0x6509380 v_addr: 0xa0b9380 translation_level: 0 event_cycle: 18446744073709551615

DRAM Channel 0
[RQ] entry:   0 empty
[RQ] entry:   1 empty
[RQ] entry:   2 empty
[RQ] entry:   3 empty
[RQ] entry:   4 empty
[RQ] entry:   5 empty
[RQ] entry:   6 empty
[RQ] entry:   7 empty
[RQ] entry:   8 empty
[RQ] entry:   9 empty
[RQ] entry:  10 empty
[RQ] entry:  11 empty
[RQ] entry:  12 empty
[RQ] entry:  13 empty
[RQ] entry:  14 empty
[RQ] entry:  15 empty
[RQ] entry:  16 empty
[RQ] entry:  17 empty
[RQ] entry:  18 empty
[RQ] entry:  19 empty
[RQ] entry:  20 empty
[RQ] entry:  21 empty
[RQ] entry:  22 empty
[RQ] entry:  23 empty
[RQ] entry:  24 empty
[RQ] entry:  25 empty
[RQ] entry:  26 empty
[RQ] entry:  27 empty
[RQ] entry:  28 empty
[RQ] entry:  29 empty
[RQ] entry:  30 empty
[RQ] entry:  31 empty
[RQ] entry:  32 empty
[RQ] entry:  33 empty
[RQ] entry:  34 empty
[RQ] entry:  35 empty
[RQ] entry:  36 empty
[RQ] entry:  37 empty
[RQ] entry:  38 empty
[RQ] entry:  39 empty
[RQ] entry:  40 empty
[RQ] entry:  41 empty
[RQ] entry:  42 empty
[RQ] entry:  43 empty
[RQ] entry:  44 empty
[RQ] entry:  45 empty
[RQ] entry:  46 empty
[RQ] entry:  47 empty
[RQ] entry:  48 empty
[RQ] entry:  49 empty
[RQ] entry:  50 empty
[RQ] entry:  51 empty
[RQ] entry:  52 empty
[RQ] entry:  53 empty
[RQ] entry:  54 empty
[RQ] entry:  55 empty
[RQ] entry:  56 empty
[RQ] entry:  57 empty
[RQ] entry:  58 empty
[RQ] entry:  59 empty
[RQ] entry:  60 empty
[RQ] entry:  61 empty
[RQ] entry:  62 empty
[RQ] entry:  63 empty

[WQ] entry:   0 empty
[WQ] entry:   1 empty
[WQ] entry:   2 empty
[WQ] entry:   3 empty
[WQ] entry:   4 empty
[WQ] entry:   5 empty
[WQ] entry:   6 empty
[WQ] entry:   7 empty
[WQ] entry:   8 empty
[WQ] entry:   9 empty
[WQ] entry:  10 empty
[WQ] entry:  11 empty
[WQ] entry:  12 empty
[WQ] entry:  13 empty
[WQ] entry:  14 empty
[WQ] entry:  15 empty
[WQ] entry:  16 empty
[WQ] entry:  17 empty
[WQ] entry:  18 empty
[WQ] entry:  19 empty
[WQ] entry:  20 empty
[WQ] entry:  21 empty
[WQ] entry:  22 empty
[WQ] entry:  23 empty
[WQ] entry:  24 empty
[WQ] entry:  25 empty
[WQ] entry:  26 empty
[WQ] entry:  27 empty
[WQ] entry:  28 empty
[WQ] entry:  29 empty
[WQ] entry:  30 empty
[WQ] entry:  31 empty
[WQ] entry:  32 empty
[WQ] entry:  33 empty
[WQ] entry:  34 empty
[WQ] entry:  35 empty
[WQ] entry:  36 empty
[WQ] entry:  37 empty
[WQ] entry:  38 empty
[WQ] entry:  39 empty
[WQ] entry:  40 empty
[WQ] entry:  41 empty
[WQ] entry:  42 empty
[WQ] entry:  43 empty
[WQ] entry:  44 empty
[WQ] entry:  45 empty
[WQ] entry:  46 empty
[WQ] entry:  47 empty
[WQ] entry:  48 empty
[WQ] entry:  49 empty
[WQ] entry:  50 empty
[WQ] entry:  51 empty
[WQ] entry:  52 empty
[WQ] entry:  53 empty
[WQ] entry:  54 empty
[WQ] entry:  55 empty
[WQ] entry:  56 empty
[WQ] entry:  57 empty
[WQ] entry:  58 empty
[WQ] entry:  59 empty
[WQ] entry:  60 empty
[WQ] entry:  61 empty
[WQ] entry:  62 empty
[WQ] entry:  63 empty

DRAM Channel 1
[RQ] entry:   0 empty
[RQ] entry:   1 empty
[RQ] entry:   2 empty
[RQ] entry:   3 empty
[RQ] entry:   4 empty
[RQ] entry:   5 empty
[RQ] entry:   6 empty
[RQ] entry:   7 empty
[RQ] entry:   8 empty
[RQ] entry:   9 empty
[RQ] entry:  10 empty
[RQ] entry:  11 empty
[RQ] entry:  12 empty
[RQ] entry:  13 empty
[RQ] entry:  14 empty
[RQ] entry:  15 empty
[RQ] entry:  16 empty
[RQ] entry:  17 empty
[RQ] entry:  18 empty
[RQ] entry:  19 empty
[RQ] entry:  20 empty
[RQ] entry:  21 empty
[RQ] entry:  22 empty
[RQ] entry:  23 empty
[RQ] entry:  24 empty
[RQ] entry:  25 empty
[RQ] entry:  26 empty
[RQ] entry:  27 empty
[RQ] entry:  28 empty
[RQ] entry:  29 empty
[RQ] entry:  30 empty
[RQ] entry:  31 empty
[RQ] entry:  32 empty
[RQ] entry:  33 empty
[RQ] entry:  34 empty
[RQ] entry:  35 empty
[RQ] entry:  36 empty
[RQ] entry:  37 empty
[RQ] entry:  38 empty
[RQ] entry:  39 empty
[RQ] entry:  40 empty
[RQ] entry:  41 empty
[RQ] entry:  42 empty
[RQ] entry:  43 empty
[RQ] entry:  44 empty
[RQ] entry:  45 empty
[RQ] entry:  46 empty
[RQ] entry:  47 empty
[RQ] entry:  48 empty
[RQ] entry:  49 empty
[RQ] entry:  50 empty
[RQ] entry:  51 empty
[RQ] entry:  52 empty
[RQ] entry:  53 empty
[RQ] entry:  54 empty
[RQ] entry:  55 empty
[RQ] entry:  56 empty
[RQ] entry:  57 empty
[RQ] entry:  58 empty
[RQ] entry:  59 empty
[RQ] entry:  60 empty
[RQ] entry:  61 empty
[RQ] entry:  62 empty
[RQ] entry:  63 empty

[WQ] entry:   0 empty
[WQ] entry:   1 empty
[WQ] entry:   2 empty
[WQ] entry:   3 empty
[WQ] entry:   4 empty
[WQ] entry:   5 empty
[WQ] entry:   6 empty
[WQ] entry:   7 empty
[WQ] entry:   8 empty
[WQ] entry:   9 empty
[WQ] entry:  10 empty
[WQ] entry:  11 empty
[WQ] entry:  12 empty
[WQ] entry:  13 empty
[WQ] entry:  14 empty
[WQ] entry:  15 empty
[WQ] entry:  16 empty
[WQ] entry:  17 empty
[WQ] entry:  18 empty
[WQ] entry:  19 empty
[WQ] entry:  20 empty
[WQ] entry:  21 empty
[WQ] entry:  22 empty
[WQ] entry:  23 empty
[WQ] entry:  24 empty
[WQ] entry:  25 empty
[WQ] entry:  26 empty
[WQ] entry:  27 empty
[WQ] entry:  28 empty
[WQ] entry:  29 empty
[WQ] entry:  30 empty
[WQ] entry:  31 empty
[WQ] entry:  32 empty
[WQ] entry:  33 empty
[WQ] entry:  34 empty
[WQ] entry:  35 empty
[WQ] entry:  36 empty
[WQ] entry:  37 empty
[WQ] entry:  38 empty
[WQ] entry:  39 empty
[WQ] entry:  40 empty
[WQ] entry:  41 empty
[WQ] entry:  42 empty
[WQ] entry:  43 empty
[WQ] entry:  44 empty
[WQ] entry:  45 empty
[WQ] entry:  46 empty
[WQ] entry:  47 empty
[WQ] entry:  48 empty
[WQ] entry:  49 empty
[WQ] entry:  50 empty
[WQ] entry:  51 empty
[WQ] entry:  52 empty
[WQ] entry:  53 empty
[WQ] entry:  54 empty
[WQ] entry:  55 empty
[WQ] entry:  56 empty
[WQ] entry:  57 empty
[WQ] entry:  58 empty
[WQ] entry:  59 empty
[WQ] entry:  60 empty
[WQ] entry:  61 empty
[WQ] entry:  62 empty
[WQ] entry:  63 empty

DEADLOCK! CPU 0 cycle 46165730
[cpu0_IFETCH] entry:   0 instr_id: 44525411 fetched: 2 scheduled: 0 executed: 0 num_reg_dependent: 0 num_mem_ops: 0 event: 46157872
[cpu0_IFETCH] entry:   1 instr_id: 44525412 fetched: 2 scheduled: 0 executed: 0 num_reg_dependent: 0 num_mem_ops: 0 event: 46157873
[cpu0_IFETCH] entry:   2 instr_id: 44525413 fetched: 2 scheduled: 0 executed: 0 num_reg_dependent: 0 num_mem_ops: 0 event: 46158080
[cpu0_IFETCH] entry:   3 instr_id: 44525414 fetched: 2 scheduled: 0 executed: 0 num_reg_dependent: 0 num_mem_ops: 0 event: 46158080
[cpu0_IFETCH] entry:   4 instr_id: 44525415 fetched: 2 scheduled: 0 executed: 0 num_reg_dependent: 0 num_mem_ops: 0 event: 46158080
[cpu0_IFETCH] entry:   5 instr_id: 44525416 fetched: 2 scheduled: 0 executed: 0 num_reg_dependent: 0 num_mem_ops: 0 event: 46158080
[cpu0_IFETCH] entry:   6 instr_id: 44525417 fetched: 2 scheduled: 0 executed: 0 num_reg_dependent: 0 num_mem_ops: 0 event: 46158081
[cpu0_IFETCH] entry:   7 instr_id: 44525418 fetched: 2 scheduled: 0 executed: 0 num_reg_dependent: 0 num_mem_ops: 0 event: 46158081
[cpu0_IFETCH] entry:   8 instr_id: 44525419 fetched: 2 scheduled: 0 executed: 0 num_reg_dependent: 0 num_mem_ops: 0 event: 46158081
[cpu0_IFETCH] entry:   9 instr_id: 44525420 fetched: 2 scheduled: 0 executed: 0 num_reg_dependent: 0 num_mem_ops: 1 event: 46158081
[cpu0_IFETCH] entry:  10 instr_id: 44525421 fetched: 2 scheduled: 0 executed: 0 num_reg_dependent: 0 num_mem_ops: 1 event: 46158081
[cpu0_IFETCH] entry:  11 instr_id: 44525422 fetched: 2 scheduled: 0 executed: 0 num_reg_dependent: 0 num_mem_ops: 1 event: 46158081
[cpu0_IFETCH] entry:  12 instr_id: 44525423 fetched: 2 scheduled: 0 executed: 0 num_reg_dependent: 0 num_mem_ops: 1 event: 46158082
[cpu0_IFETCH] entry:  13 instr_id: 44525424 fetched: 2 scheduled: 0 executed: 0 num_reg_dependent: 0 num_mem_ops: 1 event: 46158082
[cpu0_IFETCH] entry:  14 instr_id: 44525425 fetched: 2 scheduled: 0 executed: 0 num_reg_dependent: 0 num_mem_ops: 1 event: 46158082
[cpu0_IFETCH] entry:  15 instr_id: 44525426 fetched: 2 scheduled: 0 executed: 0 num_reg_dependent: 0 num_mem_ops: 0 event: 46158082
[cpu0_IFETCH] entry:  16 instr_id: 44525427 fetched: 2 scheduled: 0 executed: 0 num_reg_dependent: 0 num_mem_ops: 0 event: 46158082
[cpu0_IFETCH] entry:  17 instr_id: 44525428 fetched: 2 scheduled: 0 executed: 0 num_reg_dependent: 0 num_mem_ops: 0 event: 46158082
[cpu0_IFETCH] entry:  18 instr_id: 44525429 fetched: 2 scheduled: 0 executed: 0 num_reg_dependent: 0 num_mem_ops: 1 event: 46158083
[cpu0_IFETCH] entry:  19 instr_id: 44525430 fetched: 2 scheduled: 0 executed: 0 num_reg_dependent: 0 num_mem_ops: 0 event: 46158083
[cpu0_IFETCH] entry:  20 instr_id: 44525431 fetched: 2 scheduled: 0 executed: 0 num_reg_dependent: 0 num_mem_ops: 0 event: 46158083
[cpu0_IFETCH] entry:  21 instr_id: 44525432 fetched: 2 scheduled: 0 executed: 0 num_reg_dependent: 0 num_mem_ops: 1 event: 46158084
[cpu0_IFETCH] entry:  22 instr_id: 44525433 fetched: 2 scheduled: 0 executed: 0 num_reg_dependent: 0 num_mem_ops: 1 event: 46158084
[cpu0_IFETCH] entry:  23 instr_id: 44525434 fetched: 2 scheduled: 0 executed: 0 num_reg_dependent: 0 num_mem_ops: 1 event: 46158084
[cpu0_IFETCH] entry:  24 instr_id: 44525435 fetched: 2 scheduled: 0 executed: 0 num_reg_dependent: 0 num_mem_ops: 1 event: 46158084
[cpu0_IFETCH] entry:  25 instr_id: 44525436 fetched: 2 scheduled: 0 executed: 0 num_reg_dependent: 0 num_mem_ops: 1 event: 46158084
[cpu0_IFETCH] entry:  26 instr_id: 44525437 fetched: 2 scheduled: 0 executed: 0 num_reg_dependent: 0 num_mem_ops: 0 event: 46158084
[cpu0_IFETCH] entry:  27 instr_id: 44525438 fetched: 2 scheduled: 0 executed: 0 num_reg_dependent: 0 num_mem_ops: 0 event: 46158084
[cpu0_IFETCH] entry:  28 instr_id: 44525439 fetched: 2 scheduled: 0 executed: 0 num_reg_dependent: 0 num_mem_ops: 0 event: 46158084
[cpu0_IFETCH] entry:  29 instr_id: 44525440 fetched: 2 scheduled: 0 executed: 0 num_reg_dependent: 0 num_mem_ops: 1 event: 46158084
[cpu0_IFETCH] entry:  30 instr_id: 44525441 fetched: 2 scheduled: 0 executed: 0 num_reg_dependent: 0 num_mem_ops: 0 event: 46158085
[cpu0_IFETCH] entry:  31 instr_id: 44525442 fetched: 2 scheduled: 0 executed: 0 num_reg_dependent: 0 num_mem_ops: 0 event: 46158085
[cpu0_IFETCH] entry:  32 instr_id: 44525443 fetched: 2 scheduled: 0 executed: 0 num_reg_dependent: 0 num_mem_ops: 1 event: 46158085
[cpu0_IFETCH] entry:  33 instr_id: 44525444 fetched: 2 scheduled: 0 executed: 0 num_reg_dependent: 0 num_mem_ops: 0 event: 46158085
[cpu0_IFETCH] entry:  34 instr_id: 44525445 fetched: 2 scheduled: 0 executed: 0 num_reg_dependent: 0 num_mem_ops: 0 event: 46158085
[cpu0_IFETCH] entry:  35 instr_id: 44525446 fetched: 2 scheduled: 0 executed: 0 num_reg_dependent: 0 num_mem_ops: 0 event: 46158085
[cpu0_IFETCH] entry:  36 instr_id: 44525447 fetched: 2 scheduled: 0 executed: 0 num_reg_dependent: 0 num_mem_ops: 0 event: 46158086
[cpu0_IFETCH] entry:  37 instr_id: 44525448 fetched: 2 scheduled: 0 executed: 0 num_reg_dependent: 0 num_mem_ops: 0 event: 46158086
[cpu0_IFETCH] entry:  38 instr_id: 44525449 fetched: 2 scheduled: 0 executed: 0 num_reg_dependent: 0 num_mem_ops: 0 event: 46158086
[cpu0_IFETCH] entry:  39 instr_id: 44525450 fetched: 2 scheduled: 0 executed: 0 num_reg_dependent: 0 num_mem_ops: 1 event: 46158086
[cpu0_IFETCH] entry:  40 instr_id: 44525451 fetched: 2 scheduled: 0 executed: 0 num_reg_dependent: 0 num_mem_ops: 0 event: 46158086
[cpu0_IFETCH] entry:  41 instr_id: 44525452 fetched: 2 scheduled: 0 executed: 0 num_reg_dependent: 0 num_mem_ops: 0 event: 46158086
[cpu0_IFETCH] entry:  42 instr_id: 44525453 fetched: 2 scheduled: 0 executed: 0 num_reg_dependent: 0 num_mem_ops: 0 event: 46158087
[cpu0_IFETCH] entry:  43 instr_id: 44525454 fetched: 2 scheduled: 0 executed: 0 num_reg_dependent: 0 num_mem_ops: 0 event: 46158087
[cpu0_IFETCH] entry:  44 instr_id: 44525455 fetched: 2 scheduled: 0 executed: 0 num_reg_dependent: 0 num_mem_ops: 0 event: 46158087
[cpu0_IFETCH] entry:  45 instr_id: 44525456 fetched: 2 scheduled: 0 executed: 0 num_reg_dependent: 0 num_mem_ops: 0 event: 46158087
[cpu0_IFETCH] entry:  46 instr_id: 44525457 fetched: 2 scheduled: 0 executed: 0 num_reg_dependent: 0 num_mem_ops: 0 event: 46158087
[cpu0_IFETCH] entry:  47 instr_id: 44525458 fetched: 2 scheduled: 0 executed: 0 num_reg_dependent: 0 num_mem_ops: 0 event: 46158087
[cpu0_IFETCH] entry:  48 instr_id: 44525459 fetched: 2 scheduled: 0 executed: 0 num_reg_dependent: 0 num_mem_ops: 0 event: 46158088
[cpu0_IFETCH] entry:  49 instr_id: 44525460 fetched: 2 scheduled: 0 executed: 0 num_reg_dependent: 0 num_mem_ops: 0 event: 46158088
[cpu0_IFETCH] entry:  50 instr_id: 44525461 fetched: 2 scheduled: 0 executed: 0 num_reg_dependent: 0 num_mem_ops: 0 event: 46158088
[cpu0_IFETCH] entry:  51 instr_id: 44525462 fetched: 2 scheduled: 0 executed: 0 num_reg_dependent: 0 num_mem_ops: 1 event: 46158088
[cpu0_IFETCH] entry:  52 instr_id: 44525463 fetched: 2 scheduled: 0 executed: 0 num_reg_dependent: 0 num_mem_ops: 0 event: 46158088
[cpu0_IFETCH] entry:  53 instr_id: 44525464 fetched: 2 scheduled: 0 executed: 0 num_reg_dependent: 0 num_mem_ops: 0 event: 46158088
[cpu0_IFETCH] entry:  54 instr_id: 44525465 fetched: 2 scheduled: 0 executed: 0 num_reg_dependent: 0 num_mem_ops: 0 event: 46158089
[cpu0_IFETCH] entry:  55 instr_id: 44525466 fetched: 2 scheduled: 0 executed: 0 num_reg_dependent: 0 num_mem_ops: 0 event: 46158089
[cpu0_IFETCH] entry:  56 instr_id: 44525467 fetched: 2 scheduled: 0 executed: 0 num_reg_dependent: 0 num_mem_ops: 0 event: 46158089
[cpu0_IFETCH] entry:  57 instr_id: 44525468 fetched: 2 scheduled: 0 executed: 0 num_reg_dependent: 0 num_mem_ops: 1 event: 46158089
[cpu0_IFETCH] entry:  58 instr_id: 44525469 fetched: 2 scheduled: 0 executed: 0 num_reg_dependent: 0 num_mem_ops: 0 event: 46158089
[cpu0_IFETCH] entry:  59 instr_id: 44525470 fetched: 2 scheduled: 0 executed: 0 num_reg_dependent: 0 num_mem_ops: 1 event: 46158089
[cpu0_IFETCH] entry:  60 instr_id: 44525471 fetched: 2 scheduled: 0 executed: 0 num_reg_dependent: 0 num_mem_ops: 0 event: 46158090
[cpu0_IFETCH] entry:  61 instr_id: 44525472 fetched: 2 scheduled: 0 executed: 0 num_reg_dependent: 0 num_mem_ops: 1 event: 46158090
[cpu0_IFETCH] entry:  62 instr_id: 44525473 fetched: 2 scheduled: 0 executed: 0 num_reg_dependent: 0 num_mem_ops: 0 event: 46158090
[cpu0_IFETCH] entry:  63 instr_id: 44525474 fetched: 2 scheduled: 0 executed: 0 num_reg_dependent: 0 num_mem_ops: 1 event: 46158090
[cpu0_IFETCH] entry:  64 instr_id: 44525475 fetched: 2 scheduled: 0 executed: 0 num_reg_dependent: 0 num_mem_ops: 0 event: 46158090
[cpu0_IFETCH] entry:  65 instr_id: 44525476 fetched: 2 scheduled: 0 executed: 0 num_reg_dependent: 0 num_mem_ops: 0 event: 46158090
[cpu0_IFETCH] entry:  66 instr_id: 44525477 fetched: 2 scheduled: 0 executed: 0 num_reg_dependent: 0 num_mem_ops: 0 event: 46158091
[cpu0_IFETCH] entry:  67 instr_id: 44525478 fetched: 2 scheduled: 0 executed: 0 num_reg_dependent: 0 num_mem_ops: 0 event: 46158091
[cpu0_IFETCH] entry:  68 instr_id: 44525479 fetched: 2 scheduled: 0 executed: 0 num_reg_dependent: 0 num_mem_ops: 0 event: 46158091
[cpu0_IFETCH] entry:  69 instr_id: 44525480 fetched: 2 scheduled: 0 executed: 0 num_reg_dependent: 0 num_mem_ops: 0 event: 46158091
[cpu0_IFETCH] entry:  70 instr_id: 44525481 fetched: 2 scheduled: 0 executed: 0 num_reg_dependent: 0 num_mem_ops: 0 event: 46158091
[cpu0_IFETCH] entry:  71 instr_id: 44525482 fetched: 2 scheduled: 0 executed: 0 num_reg_dependent: 0 num_mem_ops: 0 event: 46158091
[cpu0_IFETCH] entry:  72 instr_id: 44525483 fetched: 2 scheduled: 0 executed: 0 num_reg_dependent: 0 num_mem_ops: 0 event: 46158092
[cpu0_IFETCH] entry:  73 instr_id: 44525484 fetched: 2 scheduled: 0 executed: 0 num_reg_dependent: 0 num_mem_ops: 0 event: 46158092
[cpu0_IFETCH] entry:  74 instr_id: 44525485 fetched: 2 scheduled: 0 executed: 0 num_reg_dependent: 0 num_mem_ops: 0 event: 46158092
[cpu0_IFETCH] entry:  75 instr_id: 44525486 fetched: 2 scheduled: 0 executed: 0 num_reg_dependent: 0 num_mem_ops: 0 event: 46158092
[cpu0_IFETCH] entry:  76 instr_id: 44525487 fetched: 2 scheduled: 0 executed: 0 num_reg_dependent: 0 num_mem_ops: 0 event: 46158092
[cpu0_IFETCH] entry:  77 instr_id: 44525488 fetched: 2 scheduled: 0 executed: 0 num_reg_dependent: 0 num_mem_ops: 0 event: 46158092
[cpu0_IFETCH] entry:  78 instr_id: 44525489 fetched: 2 scheduled: 0 executed: 0 num_reg_dependent: 0 num_mem_ops: 0 event: 46158093
[cpu0_IFETCH] entry:  79 instr_id: 44525490 fetched: 2 scheduled: 0 executed: 0 num_reg_dependent: 0 num_mem_ops: 0 event: 46158093
[cpu0_IFETCH] entry:  80 instr_id: 44525491 fetched: 2 scheduled: 0 executed: 0 num_reg_dependent: 0 num_mem_ops: 0 event: 46158093
[cpu0_IFETCH] entry:  81 instr_id: 44525492 fetched: 2 scheduled: 0 executed: 0 num_reg_dependent: 0 num_mem_ops: 0 event: 46158093
[cpu0_IFETCH] entry:  82 instr_id: 44525493 fetched: 2 scheduled: 0 executed: 0 num_reg_dependent: 0 num_mem_ops: 0 event: 46158093
[cpu0_IFETCH] entry:  83 instr_id: 44525494 fetched: 2 scheduled: 0 executed: 0 num_reg_dependent: 0 num_mem_ops: 0 event: 46158093
[cpu0_IFETCH] entry:  84 instr_id: 44525495 fetched: 2 scheduled: 0 executed: 0 num_reg_dependent: 0 num_mem_ops: 0 event: 46158094
[cpu0_IFETCH] entry:  85 instr_id: 44525496 fetched: 2 scheduled: 0 executed: 0 num_reg_dependent: 0 num_mem_ops: 0 event: 46158094
[cpu0_IFETCH] entry:  86 instr_id: 44525497 fetched: 2 scheduled: 0 executed: 0 num_reg_dependent: 0 num_mem_ops: 0 event: 46158094
[cpu0_IFETCH] entry:  87 instr_id: 44525498 fetched: 2 scheduled: 0 executed: 0 num_reg_dependent: 0 num_mem_ops: 0 event: 46158094
[cpu0_IFETCH] entry:  88 instr_id: 44525499 fetched: 2 scheduled: 0 executed: 0 num_reg_dependent: 0 num_mem_ops: 0 event: 46158094
[cpu0_IFETCH] entry:  89 instr_id: 44525500 fetched: 2 scheduled: 0 executed: 0 num_reg_dependent: 0 num_mem_ops: 0 event: 46158094
[cpu0_IFETCH] entry:  90 instr_id: 44525501 fetched: 2 scheduled: 0 executed: 0 num_reg_dependent: 0 num_mem_ops: 0 event: 46158095
[cpu0_IFETCH] entry:  91 instr_id: 44525502 fetched: 2 scheduled: 0 executed: 0 num_reg_dependent: 0 num_mem_ops: 0 event: 46158095
[cpu0_IFETCH] entry:  92 instr_id: 44525503 fetched: 2 scheduled: 0 executed: 0 num_reg_dependent: 0 num_mem_ops: 0 event: 46158095
[cpu0_IFETCH] entry:  93 instr_id: 44525504 fetched: 2 scheduled: 0 executed: 0 num_reg_dependent: 0 num_mem_ops: 0 event: 46158095
[cpu0_IFETCH] entry:  94 instr_id: 44525505 fetched: 2 scheduled: 0 executed: 0 num_reg_dependent: 0 num_mem_ops: 0 event: 46158095
[cpu0_IFETCH] entry:  95 instr_id: 44525506 fetched: 2 scheduled: 0 executed: 0 num_reg_dependent: 0 num_mem_ops: 0 event: 46158095
[cpu0_IFETCH] entry:  96 instr_id: 44525507 fetched: 2 scheduled: 0 executed: 0 num_reg_dependent: 0 num_mem_ops: 0 event: 46158096
[cpu0_IFETCH] entry:  97 instr_id: 44525508 fetched: 2 scheduled: 0 executed: 0 num_reg_dependent: 0 num_mem_ops: 0 event: 46158096
[cpu0_IFETCH] entry:  98 instr_id: 44525509 fetched: 2 scheduled: 0 executed: 0 num_reg_dependent: 0 num_mem_ops: 0 event: 46158096
[cpu0_IFETCH] entry:  99 instr_id: 44525510 fetched: 2 scheduled: 0 executed: 0 num_reg_dependent: 0 num_mem_ops: 1 event: 46158096
[cpu0_IFETCH] entry: 100 instr_id: 44525511 fetched: 2 scheduled: 0 executed: 0 num_reg_dependent: 0 num_mem_ops: 1 event: 46158096
[cpu0_IFETCH] entry: 101 instr_id: 44525512 fetched: 2 scheduled: 0 executed: 0 num_reg_dependent: 0 num_mem_ops: 1 event: 46158096
[cpu0_IFETCH] entry: 102 instr_id: 44525513 fetched: 2 scheduled: 0 executed: 0 num_reg_dependent: 0 num_mem_ops: 1 event: 46158097
[cpu0_IFETCH] entry: 103 instr_id: 44525514 fetched: 2 scheduled: 0 executed: 0 num_reg_dependent: 0 num_mem_ops: 1 event: 46158097
[cpu0_IFETCH] entry: 104 instr_id: 44525515 fetched: 2 scheduled: 0 executed: 0 num_reg_dependent: 0 num_mem_ops: 1 event: 46158097
[cpu0_IFETCH] entry: 105 instr_id: 44525516 fetched: 2 scheduled: 0 executed: 0 num_reg_dependent: 0 num_mem_ops: 0 event: 46158097
[cpu0_IFETCH] entry: 106 instr_id: 44525517 fetched: 2 scheduled: 0 executed: 0 num_reg_dependent: 0 num_mem_ops: 0 event: 46158097
[cpu0_IFETCH] entry: 107 instr_id: 44525518 fetched: 2 scheduled: 0 executed: 0 num_reg_dependent: 0 num_mem_ops: 0 event: 46158097
[cpu0_IFETCH] entry: 108 instr_id: 44525519 fetched: 2 scheduled: 0 executed: 0 num_reg_dependent: 0 num_mem_ops: 1 event: 46158098
[cpu0_IFETCH] entry: 109 instr_id: 44525520 fetched: 2 scheduled: 0 executed: 0 num_reg_dependent: 0 num_mem_ops: 0 event: 46158098
[cpu0_IFETCH] entry: 110 instr_id: 44525521 fetched: 2 scheduled: 0 executed: 0 num_reg_dependent: 0 num_mem_ops: 0 event: 46158098
[cpu0_IFETCH] entry: 111 instr_id: 44525522 fetched: 2 scheduled: 0 executed: 0 num_reg_dependent: 0 num_mem_ops: 1 event: 46158099
[cpu0_IFETCH] entry: 112 instr_id: 44525523 fetched: 2 scheduled: 0 executed: 0 num_reg_dependent: 0 num_mem_ops: 1 event: 46158099
[cpu0_IFETCH] entry: 113 instr_id: 44525524 fetched: 2 scheduled: 0 executed: 0 num_reg_dependent: 0 num_mem_ops: 1 event: 46158099
[cpu0_IFETCH] entry: 114 instr_id: 44525525 fetched: 2 scheduled: 0 executed: 0 num_reg_dependent: 0 num_mem_ops: 1 event: 46158099
[cpu0_IFETCH] entry: 115 instr_id: 44525526 fetched: 2 scheduled: 0 executed: 0 num_reg_dependent: 0 num_mem_ops: 1 event: 46158099
[cpu0_IFETCH] entry: 116 instr_id: 44525527 fetched: 2 scheduled: 0 executed: 0 num_reg_dependent: 0 num_mem_ops: 0 event: 46158099
[cpu0_IFETCH] entry: 117 instr_id: 44525528 fetched: 2 scheduled: 0 executed: 0 num_reg_dependent: 0 num_mem_ops: 0 event: 46158099
[cpu0_IFETCH] entry: 118 instr_id: 44525529 fetched: 2 scheduled: 0 executed: 0 num_reg_dependent: 0 num_mem_ops: 0 event: 46158099
[cpu0_IFETCH] entry: 119 instr_id: 44525530 fetched: 2 scheduled: 0 executed: 0 num_reg_dependent: 0 num_mem_ops: 1 event: 46158099
[cpu0_IFETCH] entry: 120 instr_id: 44525531 fetched: 2 scheduled: 0 executed: 0 num_reg_dependent: 0 num_mem_ops: 0 event: 46158100
[cpu0_IFETCH] entry: 121 instr_id: 44525532 fetched: 2 scheduled: 0 executed: 0 num_reg_dependent: 0 num_mem_ops: 0 event: 46158100
[cpu0_IFETCH] entry: 122 instr_id: 44525533 fetched: 2 scheduled: 0 executed: 0 num_reg_dependent: 0 num_mem_ops: 1 event: 46158100
[cpu0_IFETCH] entry: 123 instr_id: 44525534 fetched: 2 scheduled: 0 executed: 0 num_reg_dependent: 0 num_mem_ops: 0 event: 46158100
[cpu0_IFETCH] entry: 124 instr_id: 44525535 fetched: 2 scheduled: 0 executed: 0 num_reg_dependent: 0 num_mem_ops: 0 event: 46158100
[cpu0_IFETCH] entry: 125 instr_id: 44525536 fetched: 2 scheduled: 0 executed: 0 num_reg_dependent: 0 num_mem_ops: 0 event: 46158100
[cpu0_IFETCH] entry: 126 instr_id: 44525537 fetched: 2 scheduled: 0 executed: 0 num_reg_dependent: 0 num_mem_ops: 0 event: 46158101
[cpu0_IFETCH] entry: 127 instr_id: 44525538 fetched: 2 scheduled: 0 executed: 0 num_reg_dependent: 0 num_mem_ops: 0 event: 46158101
[cpu0_IFETCH] entry: 128 instr_id: 44525539 fetched: 2 scheduled: 0 executed: 0 num_reg_dependent: 0 num_mem_ops: 0 event: 46158101
[cpu0_IFETCH] entry: 129 instr_id: 44525540 fetched: 2 scheduled: 0 executed: 0 num_reg_dependent: 0 num_mem_ops: 1 event: 46158101
[cpu0_IFETCH] entry: 130 instr_id: 44525541 fetched: 2 scheduled: 0 executed: 0 num_reg_dependent: 0 num_mem_ops: 0 event: 46158101
[cpu0_IFETCH] entry: 131 instr_id: 44525542 fetched: 2 scheduled: 0 executed: 0 num_reg_dependent: 0 num_mem_ops: 0 event: 46158101
[cpu0_IFETCH] entry: 132 instr_id: 44525543 fetched: 2 scheduled: 0 executed: 0 num_reg_dependent: 0 num_mem_ops: 0 event: 46158102
[cpu0_IFETCH] entry: 133 instr_id: 44525544 fetched: 2 scheduled: 0 executed: 0 num_reg_dependent: 0 num_mem_ops: 0 event: 46158102
[cpu0_IFETCH] entry: 134 instr_id: 44525545 fetched: 2 scheduled: 0 executed: 0 num_reg_dependent: 0 num_mem_ops: 0 event: 46158102
[cpu0_IFETCH] entry: 135 instr_id: 44525546 fetched: 2 scheduled: 0 executed: 0 num_reg_dependent: 0 num_mem_ops: 0 event: 46158102
[cpu0_IFETCH] entry: 136 instr_id: 44525547 fetched: 2 scheduled: 0 executed: 0 num_reg_dependent: 0 num_mem_ops: 0 event: 46158102
[cpu0_IFETCH] entry: 137 instr_id: 44525548 fetched: 2 scheduled: 0 executed: 0 num_reg_dependent: 0 num_mem_ops: 0 event: 46158102
[cpu0_IFETCH] entry: 138 instr_id: 44525549 fetched: 2 scheduled: 0 executed: 0 num_reg_dependent: 0 num_mem_ops: 0 event: 46158103
[cpu0_IFETCH] entry: 139 instr_id: 44525550 fetched: 2 scheduled: 0 executed: 0 num_reg_dependent: 0 num_mem_ops: 0 event: 46158103
[cpu0_IFETCH] entry: 140 instr_id: 44525551 fetched: 2 scheduled: 0 executed: 0 num_reg_dependent: 0 num_mem_ops: 0 event: 46158103
[cpu0_IFETCH] entry: 141 instr_id: 44525552 fetched: 2 scheduled: 0 executed: 0 num_reg_dependent: 0 num_mem_ops: 1 event: 46158103
[cpu0_IFETCH] entry: 142 instr_id: 44525553 fetched: 2 scheduled: 0 executed: 0 num_reg_dependent: 0 num_mem_ops: 0 event: 46158103
[cpu0_IFETCH] entry: 143 instr_id: 44525554 fetched: 2 scheduled: 0 executed: 0 num_reg_dependent: 0 num_mem_ops: 0 event: 46158103
[cpu0_IFETCH] entry: 144 instr_id: 44525555 fetched: 2 scheduled: 0 executed: 0 num_reg_dependent: 0 num_mem_ops: 0 event: 46158104
[cpu0_IFETCH] entry: 145 instr_id: 44525556 fetched: 2 scheduled: 0 executed: 0 num_reg_dependent: 0 num_mem_ops: 0 event: 46158104
[cpu0_IFETCH] entry: 146 instr_id: 44525557 fetched: 2 scheduled: 0 executed: 0 num_reg_dependent: 0 num_mem_ops: 0 event: 46158104
[cpu0_IFETCH] entry: 147 instr_id: 44525558 fetched: 2 scheduled: 0 executed: 0 num_reg_dependent: 0 num_mem_ops: 1 event: 46158104
[cpu0_IFETCH] entry: 148 instr_id: 44525559 fetched: 2 scheduled: 0 executed: 0 num_reg_dependent: 0 num_mem_ops: 0 event: 46158104
[cpu0_IFETCH] entry: 149 instr_id: 44525560 fetched: 2 scheduled: 0 executed: 0 num_reg_dependent: 0 num_mem_ops: 1 event: 46158104
[cpu0_IFETCH] entry: 150 instr_id: 44525561 fetched: 2 scheduled: 0 executed: 0 num_reg_dependent: 0 num_mem_ops: 0 event: 46158105
[cpu0_IFETCH] entry: 151 instr_id: 44525562 fetched: 2 scheduled: 0 executed: 0 num_reg_dependent: 0 num_mem_ops: 1 event: 46158105
[cpu0_IFETCH] entry: 152 instr_id: 44525563 fetched: 2 scheduled: 0 executed: 0 num_reg_dependent: 0 num_mem_ops: 0 event: 46158105
[cpu0_IFETCH] entry: 153 instr_id: 44525564 fetched: 2 scheduled: 0 executed: 0 num_reg_dependent: 0 num_mem_ops: 1 event: 46158105
[cpu0_IFETCH] entry: 154 instr_id: 44525565 fetched: 2 scheduled: 0 executed: 0 num_reg_dependent: 0 num_mem_ops: 0 event: 46158105
[cpu0_IFETCH] entry: 155 instr_id: 44525566 fetched: 2 scheduled: 0 executed: 0 num_reg_dependent: 0 num_mem_ops: 0 event: 46158105
[cpu0_IFETCH] entry: 156 instr_id: 44525567 fetched: 2 scheduled: 0 executed: 0 num_reg_dependent: 0 num_mem_ops: 0 event: 46158106
[cpu0_IFETCH] entry: 157 instr_id: 44525568 fetched: 2 scheduled: 0 executed: 0 num_reg_dependent: 0 num_mem_ops: 0 event: 46158106
[cpu0_IFETCH] entry: 158 instr_id: 44525569 fetched: 2 scheduled: 0 executed: 0 num_reg_dependent: 0 num_mem_ops: 0 event: 46158106
[cpu0_IFETCH] entry: 159 instr_id: 44525570 fetched: 2 scheduled: 0 executed: 0 num_reg_dependent: 0 num_mem_ops: 0 event: 46158106
[cpu0_IFETCH] entry: 160 instr_id: 44525571 fetched: 2 scheduled: 0 executed: 0 num_reg_dependent: 0 num_mem_ops: 0 event: 46158106
[cpu0_IFETCH] entry: 161 instr_id: 44525572 fetched: 2 scheduled: 0 executed: 0 num_reg_dependent: 0 num_mem_ops: 0 event: 46158106
[cpu0_IFETCH] entry: 162 instr_id: 44525573 fetched: 2 scheduled: 0 executed: 0 num_reg_dependent: 0 num_mem_ops: 0 event: 46158107
[cpu0_IFETCH] entry: 163 instr_id: 44525574 fetched: 2 scheduled: 0 executed: 0 num_reg_dependent: 0 num_mem_ops: 0 event: 46158107
[cpu0_IFETCH] entry: 164 instr_id: 44525575 fetched: 2 scheduled: 0 executed: 0 num_reg_dependent: 0 num_mem_ops: 0 event: 46158107
[cpu0_IFETCH] entry: 165 instr_id: 44525576 fetched: 2 scheduled: 0 executed: 0 num_reg_dependent: 0 num_mem_ops: 0 event: 46158107
[cpu0_IFETCH] entry: 166 instr_id: 44525577 fetched: 2 scheduled: 0 executed: 0 num_reg_dependent: 0 num_mem_ops: 0 event: 46158107
[cpu0_IFETCH] entry: 167 instr_id: 44525578 fetched: 2 scheduled: 0 executed: 0 num_reg_dependent: 0 num_mem_ops: 0 event: 46158107
[cpu0_IFETCH] entry: 168 instr_id: 44525579 fetched: 2 scheduled: 0 executed: 0 num_reg_dependent: 0 num_mem_ops: 0 event: 46158108
[cpu0_IFETCH] entry: 169 instr_id: 44525580 fetched: 2 scheduled: 0 executed: 0 num_reg_dependent: 0 num_mem_ops: 0 event: 46158108
[cpu0_IFETCH] entry: 170 instr_id: 44525581 fetched: 2 scheduled: 0 executed: 0 num_reg_dependent: 0 num_mem_ops: 0 event: 46158108
[cpu0_IFETCH] entry: 171 instr_id: 44525582 fetched: 2 scheduled: 0 executed: 0 num_reg_dependent: 0 num_mem_ops: 0 event: 46158108
[cpu0_IFETCH] entry: 172 instr_id: 44525583 fetched: 2 scheduled: 0 executed: 0 num_reg_dependent: 0 num_mem_ops: 0 event: 46158108
[cpu0_IFETCH] entry: 173 instr_id: 44525584 fetched: 2 scheduled: 0 executed: 0 num_reg_dependent: 0 num_mem_ops: 0 event: 46158108
[cpu0_IFETCH] entry: 174 instr_id: 44525585 fetched: 2 scheduled: 0 executed: 0 num_reg_dependent: 0 num_mem_ops: 0 event: 46158109
[cpu0_IFETCH] entry: 175 instr_id: 44525586 fetched: 2 scheduled: 0 executed: 0 num_reg_dependent: 0 num_mem_ops: 0 event: 46158109
[cpu0_IFETCH] entry: 176 instr_id: 44525587 fetched: 2 scheduled: 0 executed: 0 num_reg_dependent: 0 num_mem_ops: 0 event: 46158109
[cpu0_IFETCH] entry: 177 instr_id: 44525588 fetched: 2 scheduled: 0 executed: 0 num_reg_dependent: 0 num_mem_ops: 0 event: 46158109
[cpu0_IFETCH] entry: 178 instr_id: 44525589 fetched: 2 scheduled: 0 executed: 0 num_reg_dependent: 0 num_mem_ops: 0 event: 46158109
[cpu0_IFETCH] entry: 179 instr_id: 44525590 fetched: 2 scheduled: 0 executed: 0 num_reg_dependent: 0 num_mem_ops: 0 event: 46158109
[cpu0_IFETCH] entry: 180 instr_id: 44525591 fetched: 2 scheduled: 0 executed: 0 num_reg_dependent: 0 num_mem_ops: 0 event: 46158110
[cpu0_IFETCH] entry: 181 instr_id: 44525592 fetched: 2 scheduled: 0 executed: 0 num_reg_dependent: 0 num_mem_ops: 0 event: 46158110
[cpu0_IFETCH] entry: 182 instr_id: 44525593 fetched: 2 scheduled: 0 executed: 0 num_reg_dependent: 0 num_mem_ops: 0 event: 46158110
[cpu0_IFETCH] entry: 183 instr_id: 44525594 fetched: 2 scheduled: 0 executed: 0 num_reg_dependent: 0 num_mem_ops: 0 event: 46158110
[cpu0_IFETCH] entry: 184 instr_id: 44525595 fetched: 2 scheduled: 0 executed: 0 num_reg_dependent: 0 num_mem_ops: 0 event: 46158110
[cpu0_IFETCH] entry: 185 instr_id: 44525596 fetched: 2 scheduled: 0 executed: 0 num_reg_dependent: 0 num_mem_ops: 0 event: 46158110
[cpu0_IFETCH] entry: 186 instr_id: 44525597 fetched: 2 scheduled: 0 executed: 0 num_reg_dependent: 0 num_mem_ops: 0 event: 46158111
[cpu0_IFETCH] entry: 187 instr_id: 44525598 fetched: 2 scheduled: 0 executed: 0 num_reg_dependent: 0 num_mem_ops: 0 event: 46158111
[cpu0_IFETCH] entry: 188 instr_id: 44525599 fetched: 2 scheduled: 0 executed: 0 num_reg_dependent: 0 num_mem_ops: 0 event: 46158111
[cpu0_IFETCH] entry: 189 instr_id: 44525600 fetched: 2 scheduled: 0 executed: 0 num_reg_dependent: 0 num_mem_ops: 1 event: 46159960
[cpu0_IFETCH] entry: 190 instr_id: 44525601 fetched: 2 scheduled: 0 executed: 0 num_reg_dependent: 0 num_mem_ops: 1 event: 46159960
[cpu0_IFETCH] entry: 191 instr_id: 44525602 fetched: 2 scheduled: 0 executed: 0 num_reg_dependent: 0 num_mem_ops: 1 event: 46159960

[cpu0_DECODE] entry:   0 instr_id: 44525267 fetched: 2 scheduled: 0 executed: 0 num_reg_dependent: 0 num_mem_ops: 0 event: 46158087
[cpu0_DECODE] entry:   1 instr_id: 44525268 fetched: 2 scheduled: 0 executed: 0 num_reg_dependent: 0 num_mem_ops: 0 event: 46158087
[cpu0_DECODE] entry:   2 instr_id: 44525269 fetched: 2 scheduled: 0 executed: 0 num_reg_dependent: 0 num_mem_ops: 0 event: 46158087
[cpu0_DECODE] entry:   3 instr_id: 44525270 fetched: 2 scheduled: 0 executed: 0 num_reg_dependent: 0 num_mem_ops: 1 event: 46158087
[cpu0_DECODE] entry:   4 instr_id: 44525271 fetched: 2 scheduled: 0 executed: 0 num_reg_dependent: 0 num_mem_ops: 0 event: 46158087
[cpu0_DECODE] entry:   5 instr_id: 44525272 fetched: 2 scheduled: 0 executed: 0 num_reg_dependent: 0 num_mem_ops: 0 event: 46158087
[cpu0_DECODE] entry:   6 instr_id: 44525273 fetched: 2 scheduled: 0 executed: 0 num_reg_dependent: 0 num_mem_ops: 0 event: 46158088
[cpu0_DECODE] entry:   7 instr_id: 44525274 fetched: 2 scheduled: 0 executed: 0 num_reg_dependent: 0 num_mem_ops: 0 event: 46158088
[cpu0_DECODE] entry:   8 instr_id: 44525275 fetched: 2 scheduled: 0 executed: 0 num_reg_dependent: 0 num_mem_ops: 0 event: 46158088
[cpu0_DECODE] entry:   9 instr_id: 44525276 fetched: 2 scheduled: 0 executed: 0 num_reg_dependent: 0 num_mem_ops: 0 event: 46158088
[cpu0_DECODE] entry:  10 instr_id: 44525277 fetched: 2 scheduled: 0 executed: 0 num_reg_dependent: 0 num_mem_ops: 0 event: 46158088
[cpu0_DECODE] entry:  11 instr_id: 44525278 fetched: 2 scheduled: 0 executed: 0 num_reg_dependent: 0 num_mem_ops: 0 event: 46158088
[cpu0_DECODE] entry:  12 instr_id: 44525279 fetched: 2 scheduled: 0 executed: 0 num_reg_dependent: 0 num_mem_ops: 0 event: 46158089
[cpu0_DECODE] entry:  13 instr_id: 44525280 fetched: 2 scheduled: 0 executed: 0 num_reg_dependent: 0 num_mem_ops: 0 event: 46158089
[cpu0_DECODE] entry:  14 instr_id: 44525281 fetched: 2 scheduled: 0 executed: 0 num_reg_dependent: 0 num_mem_ops: 0 event: 46158089
[cpu0_DECODE] entry:  15 instr_id: 44525282 fetched: 2 scheduled: 0 executed: 0 num_reg_dependent: 0 num_mem_ops: 1 event: 46158089
[cpu0_DECODE] entry:  16 instr_id: 44525283 fetched: 2 scheduled: 0 executed: 0 num_reg_dependent: 0 num_mem_ops: 0 event: 46158089
[cpu0_DECODE] entry:  17 instr_id: 44525284 fetched: 2 scheduled: 0 executed: 0 num_reg_dependent: 0 num_mem_ops: 0 event: 46158089
[cpu0_DECODE] entry:  18 instr_id: 44525285 fetched: 2 scheduled: 0 executed: 0 num_reg_dependent: 0 num_mem_ops: 0 event: 46158090
[cpu0_DECODE] entry:  19 instr_id: 44525286 fetched: 2 scheduled: 0 executed: 0 num_reg_dependent: 0 num_mem_ops: 0 event: 46158090
[cpu0_DECODE] entry:  20 instr_id: 44525287 fetched: 2 scheduled: 0 executed: 0 num_reg_dependent: 0 num_mem_ops: 0 event: 46158090
[cpu0_DECODE] entry:  21 instr_id: 44525288 fetched: 2 scheduled: 0 executed: 0 num_reg_dependent: 0 num_mem_ops: 1 event: 46158090
[cpu0_DECODE] entry:  22 instr_id: 44525289 fetched: 2 scheduled: 0 executed: 0 num_reg_dependent: 0 num_mem_ops: 0 event: 46158090
[cpu0_DECODE] entry:  23 instr_id: 44525290 fetched: 2 scheduled: 0 executed: 0 num_reg_dependent: 0 num_mem_ops: 1 event: 46158090
[cpu0_DECODE] entry:  24 instr_id: 44525291 fetched: 2 scheduled: 0 executed: 0 num_reg_dependent: 0 num_mem_ops: 0 event: 46158091
[cpu0_DECODE] entry:  25 instr_id: 44525292 fetched: 2 scheduled: 0 executed: 0 num_reg_dependent: 0 num_mem_ops: 1 event: 46158091
[cpu0_DECODE] entry:  26 instr_id: 44525293 fetched: 2 scheduled: 0 executed: 0 num_reg_dependent: 0 num_mem_ops: 0 event: 46158091
[cpu0_DECODE] entry:  27 instr_id: 44525294 fetched: 2 scheduled: 0 executed: 0 num_reg_dependent: 0 num_mem_ops: 1 event: 46158091
[cpu0_DECODE] entry:  28 instr_id: 44525295 fetched: 2 scheduled: 0 executed: 0 num_reg_dependent: 0 num_mem_ops: 0 event: 46158091
[cpu0_DECODE] entry:  29 instr_id: 44525296 fetched: 2 scheduled: 0 executed: 0 num_reg_dependent: 0 num_mem_ops: 0 event: 46158091
[cpu0_DECODE] entry:  30 instr_id: 44525297 fetched: 2 scheduled: 0 executed: 0 num_reg_dependent: 0 num_mem_ops: 0 event: 46158092
[cpu0_DECODE] entry:  31 instr_id: 44525298 fetched: 2 scheduled: 0 executed: 0 num_reg_dependent: 0 num_mem_ops: 0 event: 46158092
[cpu0_DECODE] entry:  32 instr_id: 44525299 fetched: 2 scheduled: 0 executed: 0 num_reg_dependent: 0 num_mem_ops: 0 event: 46158092
[cpu0_DECODE] entry:  33 instr_id: 44525300 fetched: 2 scheduled: 0 executed: 0 num_reg_dependent: 0 num_mem_ops: 0 event: 46158092
[cpu0_DECODE] entry:  34 instr_id: 44525301 fetched: 2 scheduled: 0 executed: 0 num_reg_dependent: 0 num_mem_ops: 0 event: 46158092
[cpu0_DECODE] entry:  35 instr_id: 44525302 fetched: 2 scheduled: 0 executed: 0 num_reg_dependent: 0 num_mem_ops: 0 event: 46158092
[cpu0_DECODE] entry:  36 instr_id: 44525303 fetched: 2 scheduled: 0 executed: 0 num_reg_dependent: 0 num_mem_ops: 0 event: 46158093
[cpu0_DECODE] entry:  37 instr_id: 44525304 fetched: 2 scheduled: 0 executed: 0 num_reg_dependent: 0 num_mem_ops: 0 event: 46158093
[cpu0_DECODE] entry:  38 instr_id: 44525305 fetched: 2 scheduled: 0 executed: 0 num_reg_dependent: 0 num_mem_ops: 0 event: 46158093
[cpu0_DECODE] entry:  39 instr_id: 44525306 fetched: 2 scheduled: 0 executed: 0 num_reg_dependent: 0 num_mem_ops: 0 event: 46158093
[cpu0_DECODE] entry:  40 instr_id: 44525307 fetched: 2 scheduled: 0 executed: 0 num_reg_dependent: 0 num_mem_ops: 0 event: 46158093
[cpu0_DECODE] entry:  41 instr_id: 44525308 fetched: 2 scheduled: 0 executed: 0 num_reg_dependent: 0 num_mem_ops: 0 event: 46158093
[cpu0_DECODE] entry:  42 instr_id: 44525309 fetched: 2 scheduled: 0 executed: 0 num_reg_dependent: 0 num_mem_ops: 0 event: 46158094
[cpu0_DECODE] entry:  43 instr_id: 44525310 fetched: 2 scheduled: 0 executed: 0 num_reg_dependent: 0 num_mem_ops: 0 event: 46158094
[cpu0_DECODE] entry:  44 instr_id: 44525311 fetched: 2 scheduled: 0 executed: 0 num_reg_dependent: 0 num_mem_ops: 0 event: 46158094
[cpu0_DECODE] entry:  45 instr_id: 44525312 fetched: 2 scheduled: 0 executed: 0 num_reg_dependent: 0 num_mem_ops: 0 event: 46158094
[cpu0_DECODE] entry:  46 instr_id: 44525313 fetched: 2 scheduled: 0 executed: 0 num_reg_dependent: 0 num_mem_ops: 0 event: 46158094
[cpu0_DECODE] entry:  47 instr_id: 44525314 fetched: 2 scheduled: 0 executed: 0 num_reg_dependent: 0 num_mem_ops: 0 event: 46158094
[cpu0_DECODE] entry:  48 instr_id: 44525315 fetched: 2 scheduled: 0 executed: 0 num_reg_dependent: 0 num_mem_ops: 0 event: 46158095
[cpu0_DECODE] entry:  49 instr_id: 44525316 fetched: 2 scheduled: 0 executed: 0 num_reg_dependent: 0 num_mem_ops: 0 event: 46158095
[cpu0_DECODE] entry:  50 instr_id: 44525317 fetched: 2 scheduled: 0 executed: 0 num_reg_dependent: 0 num_mem_ops: 0 event: 46158095
[cpu0_DECODE] entry:  51 instr_id: 44525318 fetched: 2 scheduled: 0 executed: 0 num_reg_dependent: 0 num_mem_ops: 0 event: 46158095
[cpu0_DECODE] entry:  52 instr_id: 44525319 fetched: 2 scheduled: 0 executed: 0 num_reg_dependent: 0 num_mem_ops: 0 event: 46158095
[cpu0_DECODE] entry:  53 instr_id: 44525320 fetched: 2 scheduled: 0 executed: 0 num_reg_dependent: 0 num_mem_ops: 0 event: 46158095
[cpu0_DECODE] entry:  54 instr_id: 44525321 fetched: 2 scheduled: 0 executed: 0 num_reg_dependent: 0 num_mem_ops: 0 event: 46158096
[cpu0_DECODE] entry:  55 instr_id: 44525322 fetched: 2 scheduled: 0 executed: 0 num_reg_dependent: 0 num_mem_ops: 0 event: 46158096
[cpu0_DECODE] entry:  56 instr_id: 44525323 fetched: 2 scheduled: 0 executed: 0 num_reg_dependent: 0 num_mem_ops: 0 event: 46158096
[cpu0_DECODE] entry:  57 instr_id: 44525324 fetched: 2 scheduled: 0 executed: 0 num_reg_dependent: 0 num_mem_ops: 0 event: 46158096
[cpu0_DECODE] entry:  58 instr_id: 44525325 fetched: 2 scheduled: 0 executed: 0 num_reg_dependent: 0 num_mem_ops: 0 event: 46158096
[cpu0_DECODE] entry:  59 instr_id: 44525326 fetched: 2 scheduled: 0 executed: 0 num_reg_dependent: 0 num_mem_ops: 0 event: 46158096
[cpu0_DECODE] entry:  60 instr_id: 44525327 fetched: 2 scheduled: 0 executed: 0 num_reg_dependent: 0 num_mem_ops: 0 event: 46158097
[cpu0_DECODE] entry:  61 instr_id: 44525328 fetched: 2 scheduled: 0 executed: 0 num_reg_dependent: 0 num_mem_ops: 0 event: 46158097
[cpu0_DECODE] entry:  62 instr_id: 44525329 fetched: 2 scheduled: 0 executed: 0 num_reg_dependent: 0 num_mem_ops: 0 event: 46158097
[cpu0_DECODE] entry:  63 instr_id: 44525330 fetched: 2 scheduled: 0 executed: 0 num_reg_dependent: 0 num_mem_ops: 1 event: 46158097
[cpu0_DECODE] entry:  64 instr_id: 44525331 fetched: 2 scheduled: 0 executed: 0 num_reg_dependent: 0 num_mem_ops: 1 event: 46158097
[cpu0_DECODE] entry:  65 instr_id: 44525332 fetched: 2 scheduled: 0 executed: 0 num_reg_dependent: 0 num_mem_ops: 1 event: 46158097
[cpu0_DECODE] entry:  66 instr_id: 44525333 fetched: 2 scheduled: 0 executed: 0 num_reg_dependent: 0 num_mem_ops: 1 event: 46158098
[cpu0_DECODE] entry:  67 instr_id: 44525334 fetched: 2 scheduled: 0 executed: 0 num_reg_dependent: 0 num_mem_ops: 1 event: 46158098
[cpu0_DECODE] entry:  68 instr_id: 44525335 fetched: 2 scheduled: 0 executed: 0 num_reg_dependent: 0 num_mem_ops: 1 event: 46158098
[cpu0_DECODE] entry:  69 instr_id: 44525336 fetched: 2 scheduled: 0 executed: 0 num_reg_dependent: 0 num_mem_ops: 0 event: 46158098
[cpu0_DECODE] entry:  70 instr_id: 44525337 fetched: 2 scheduled: 0 executed: 0 num_reg_dependent: 0 num_mem_ops: 0 event: 46158098
[cpu0_DECODE] entry:  71 instr_id: 44525338 fetched: 2 scheduled: 0 executed: 0 num_reg_dependent: 0 num_mem_ops: 0 event: 46158098
[cpu0_DECODE] entry:  72 instr_id: 44525339 fetched: 2 scheduled: 0 executed: 0 num_reg_dependent: 0 num_mem_ops: 1 event: 46158099
[cpu0_DECODE] entry:  73 instr_id: 44525340 fetched: 2 scheduled: 0 executed: 0 num_reg_dependent: 0 num_mem_ops: 0 event: 46158099
[cpu0_DECODE] entry:  74 instr_id: 44525341 fetched: 2 scheduled: 0 executed: 0 num_reg_dependent: 0 num_mem_ops: 0 event: 46158099
[cpu0_DECODE] entry:  75 instr_id: 44525342 fetched: 2 scheduled: 0 executed: 0 num_reg_dependent: 0 num_mem_ops: 1 event: 46158099
[cpu0_DECODE] entry:  76 instr_id: 44525343 fetched: 2 scheduled: 0 executed: 0 num_reg_dependent: 0 num_mem_ops: 1 event: 46158099
[cpu0_DECODE] entry:  77 instr_id: 44525344 fetched: 2 scheduled: 0 executed: 0 num_reg_dependent: 0 num_mem_ops: 1 event: 46158099
[cpu0_DECODE] entry:  78 instr_id: 44525345 fetched: 2 scheduled: 0 executed: 0 num_reg_dependent: 0 num_mem_ops: 1 event: 46158100
[cpu0_DECODE] entry:  79 instr_id: 44525346 fetched: 2 scheduled: 0 executed: 0 num_reg_dependent: 0 num_mem_ops: 1 event: 46158100
[cpu0_DECODE] entry:  80 instr_id: 44525347 fetched: 2 scheduled: 0 executed: 0 num_reg_dependent: 0 num_mem_ops: 0 event: 46158100
[cpu0_DECODE] entry:  81 instr_id: 44525348 fetched: 2 scheduled: 0 executed: 0 num_reg_dependent: 0 num_mem_ops: 0 event: 46158100
[cpu0_DECODE] entry:  82 instr_id: 44525349 fetched: 2 scheduled: 0 executed: 0 num_reg_dependent: 0 num_mem_ops: 0 event: 46158100
[cpu0_DECODE] entry:  83 instr_id: 44525350 fetched: 2 scheduled: 0 executed: 0 num_reg_dependent: 0 num_mem_ops: 1 event: 46158100
[cpu0_DECODE] entry:  84 instr_id: 44525351 fetched: 2 scheduled: 0 executed: 0 num_reg_dependent: 0 num_mem_ops: 0 event: 46158101
[cpu0_DECODE] entry:  85 instr_id: 44525352 fetched: 2 scheduled: 0 executed: 0 num_reg_dependent: 0 num_mem_ops: 0 event: 46158101
[cpu0_DECODE] entry:  86 instr_id: 44525353 fetched: 2 scheduled: 0 executed: 0 num_reg_dependent: 0 num_mem_ops: 1 event: 46158101
[cpu0_DECODE] entry:  87 instr_id: 44525354 fetched: 2 scheduled: 0 executed: 0 num_reg_dependent: 0 num_mem_ops: 0 event: 46158101
[cpu0_DECODE] entry:  88 instr_id: 44525355 fetched: 2 scheduled: 0 executed: 0 num_reg_dependent: 0 num_mem_ops: 0 event: 46158101
[cpu0_DECODE] entry:  89 instr_id: 44525356 fetched: 2 scheduled: 0 executed: 0 num_reg_dependent: 0 num_mem_ops: 0 event: 46158101
[cpu0_DECODE] entry:  90 instr_id: 44525357 fetched: 2 scheduled: 0 executed: 0 num_reg_dependent: 0 num_mem_ops: 0 event: 46158102
[cpu0_DECODE] entry:  91 instr_id: 44525358 fetched: 2 scheduled: 0 executed: 0 num_reg_dependent: 0 num_mem_ops: 0 event: 46158102
[cpu0_DECODE] entry:  92 instr_id: 44525359 fetched: 2 scheduled: 0 executed: 0 num_reg_dependent: 0 num_mem_ops: 0 event: 46158102
[cpu0_DECODE] entry:  93 instr_id: 44525360 fetched: 2 scheduled: 0 executed: 0 num_reg_dependent: 0 num_mem_ops: 1 event: 46158102
[cpu0_DECODE] entry:  94 instr_id: 44525361 fetched: 2 scheduled: 0 executed: 0 num_reg_dependent: 0 num_mem_ops: 0 event: 46158102
[cpu0_DECODE] entry:  95 instr_id: 44525362 fetched: 2 scheduled: 0 executed: 0 num_reg_dependent: 0 num_mem_ops: 0 event: 46158102
[cpu0_DECODE] entry:  96 instr_id: 44525363 fetched: 2 scheduled: 0 executed: 0 num_reg_dependent: 0 num_mem_ops: 0 event: 46158103
[cpu0_DECODE] entry:  97 instr_id: 44525364 fetched: 2 scheduled: 0 executed: 0 num_reg_dependent: 0 num_mem_ops: 0 event: 46158103
[cpu0_DECODE] entry:  98 instr_id: 44525365 fetched: 2 scheduled: 0 executed: 0 num_reg_dependent: 0 num_mem_ops: 0 event: 46158103
[cpu0_DECODE] entry:  99 instr_id: 44525366 fetched: 2 scheduled: 0 executed: 0 num_reg_dependent: 0 num_mem_ops: 0 event: 46158103
[cpu0_DECODE] entry: 100 instr_id: 44525367 fetched: 2 scheduled: 0 executed: 0 num_reg_dependent: 0 num_mem_ops: 0 event: 46158103
[cpu0_DECODE] entry: 101 instr_id: 44525368 fetched: 2 scheduled: 0 executed: 0 num_reg_dependent: 0 num_mem_ops: 0 event: 46158103
[cpu0_DECODE] entry: 102 instr_id: 44525369 fetched: 2 scheduled: 0 executed: 0 num_reg_dependent: 0 num_mem_ops: 0 event: 46158104
[cpu0_DECODE] entry: 103 instr_id: 44525370 fetched: 2 scheduled: 0 executed: 0 num_reg_dependent: 0 num_mem_ops: 0 event: 46158104
[cpu0_DECODE] entry: 104 instr_id: 44525371 fetched: 2 scheduled: 0 executed: 0 num_reg_dependent: 0 num_mem_ops: 0 event: 46158104
[cpu0_DECODE] entry: 105 instr_id: 44525372 fetched: 2 scheduled: 0 executed: 0 num_reg_dependent: 0 num_mem_ops: 1 event: 46158104
[cpu0_DECODE] entry: 106 instr_id: 44525373 fetched: 2 scheduled: 0 executed: 0 num_reg_dependent: 0 num_mem_ops: 0 event: 46158104
[cpu0_DECODE] entry: 107 instr_id: 44525374 fetched: 2 scheduled: 0 executed: 0 num_reg_dependent: 0 num_mem_ops: 0 event: 46158104
[cpu0_DECODE] entry: 108 instr_id: 44525375 fetched: 2 scheduled: 0 executed: 0 num_reg_dependent: 0 num_mem_ops: 0 event: 46158105
[cpu0_DECODE] entry: 109 instr_id: 44525376 fetched: 2 scheduled: 0 executed: 0 num_reg_dependent: 0 num_mem_ops: 0 event: 46158105
[cpu0_DECODE] entry: 110 instr_id: 44525377 fetched: 2 scheduled: 0 executed: 0 num_reg_dependent: 0 num_mem_ops: 0 event: 46158105
[cpu0_DECODE] entry: 111 instr_id: 44525378 fetched: 2 scheduled: 0 executed: 0 num_reg_dependent: 0 num_mem_ops: 1 event: 46158105
[cpu0_DECODE] entry: 112 instr_id: 44525379 fetched: 2 scheduled: 0 executed: 0 num_reg_dependent: 0 num_mem_ops: 0 event: 46158105
[cpu0_DECODE] entry: 113 instr_id: 44525380 fetched: 2 scheduled: 0 executed: 0 num_reg_dependent: 0 num_mem_ops: 1 event: 46158105
[cpu0_DECODE] entry: 114 instr_id: 44525381 fetched: 2 scheduled: 0 executed: 0 num_reg_dependent: 0 num_mem_ops: 0 event: 46158106
[cpu0_DECODE] entry: 115 instr_id: 44525382 fetched: 2 scheduled: 0 executed: 0 num_reg_dependent: 0 num_mem_ops: 1 event: 46158106
[cpu0_DECODE] entry: 116 instr_id: 44525383 fetched: 2 scheduled: 0 executed: 0 num_reg_dependent: 0 num_mem_ops: 0 event: 46158106
[cpu0_DECODE] entry: 117 instr_id: 44525384 fetched: 2 scheduled: 0 executed: 0 num_reg_dependent: 0 num_mem_ops: 1 event: 46158106
[cpu0_DECODE] entry: 118 instr_id: 44525385 fetched: 2 scheduled: 0 executed: 0 num_reg_dependent: 0 num_mem_ops: 0 event: 46158106
[cpu0_DECODE] entry: 119 instr_id: 44525386 fetched: 2 scheduled: 0 executed: 0 num_reg_dependent: 0 num_mem_ops: 0 event: 46158106
[cpu0_DECODE] entry: 120 instr_id: 44525387 fetched: 2 scheduled: 0 executed: 0 num_reg_dependent: 0 num_mem_ops: 0 event: 46158107
[cpu0_DECODE] entry: 121 instr_id: 44525388 fetched: 2 scheduled: 0 executed: 0 num_reg_dependent: 0 num_mem_ops: 0 event: 46158107
[cpu0_DECODE] entry: 122 instr_id: 44525389 fetched: 2 scheduled: 0 executed: 0 num_reg_dependent: 0 num_mem_ops: 0 event: 46158107
[cpu0_DECODE] entry: 123 instr_id: 44525390 fetched: 2 scheduled: 0 executed: 0 num_reg_dependent: 0 num_mem_ops: 0 event: 46158107
[cpu0_DECODE] entry: 124 instr_id: 44525391 fetched: 2 scheduled: 0 executed: 0 num_reg_dependent: 0 num_mem_ops: 0 event: 46158107
[cpu0_DECODE] entry: 125 instr_id: 44525392 fetched: 2 scheduled: 0 executed: 0 num_reg_dependent: 0 num_mem_ops: 0 event: 46158107
[cpu0_DECODE] entry: 126 instr_id: 44525393 fetched: 2 scheduled: 0 executed: 0 num_reg_dependent: 0 num_mem_ops: 0 event: 46158108
[cpu0_DECODE] entry: 127 instr_id: 44525394 fetched: 2 scheduled: 0 executed: 0 num_reg_dependent: 0 num_mem_ops: 0 event: 46158108
[cpu0_DECODE] entry: 128 instr_id: 44525395 fetched: 2 scheduled: 0 executed: 0 num_reg_dependent: 0 num_mem_ops: 0 event: 46158108
[cpu0_DECODE] entry: 129 instr_id: 44525396 fetched: 2 scheduled: 0 executed: 0 num_reg_dependent: 0 num_mem_ops: 0 event: 46158108
[cpu0_DECODE] entry: 130 instr_id: 44525397 fetched: 2 scheduled: 0 executed: 0 num_reg_dependent: 0 num_mem_ops: 0 event: 46158108
[cpu0_DECODE] entry: 131 instr_id: 44525398 fetched: 2 scheduled: 0 executed: 0 num_reg_dependent: 0 num_mem_ops: 0 event: 46158108
[cpu0_DECODE] entry: 132 instr_id: 44525399 fetched: 2 scheduled: 0 executed: 0 num_reg_dependent: 0 num_mem_ops: 0 event: 46158109
[cpu0_DECODE] entry: 133 instr_id: 44525400 fetched: 2 scheduled: 0 executed: 0 num_reg_dependent: 0 num_mem_ops: 0 event: 46158109
[cpu0_DECODE] entry: 134 instr_id: 44525401 fetched: 2 scheduled: 0 executed: 0 num_reg_dependent: 0 num_mem_ops: 0 event: 46158109
[cpu0_DECODE] entry: 135 instr_id: 44525402 fetched: 2 scheduled: 0 executed: 0 num_reg_dependent: 0 num_mem_ops: 0 event: 46158109
[cpu0_DECODE] entry: 136 instr_id: 44525403 fetched: 2 scheduled: 0 executed: 0 num_reg_dependent: 0 num_mem_ops: 0 event: 46158109
[cpu0_DECODE] entry: 137 instr_id: 44525404 fetched: 2 scheduled: 0 executed: 0 num_reg_dependent: 0 num_mem_ops: 0 event: 46158109
[cpu0_DECODE] entry: 138 instr_id: 44525405 fetched: 2 scheduled: 0 executed: 0 num_reg_dependent: 0 num_mem_ops: 0 event: 46158110
[cpu0_DECODE] entry: 139 instr_id: 44525406 fetched: 2 scheduled: 0 executed: 0 num_reg_dependent: 0 num_mem_ops: 0 event: 46158110
[cpu0_DECODE] entry: 140 instr_id: 44525407 fetched: 2 scheduled: 0 executed: 0 num_reg_dependent: 0 num_mem_ops: 0 event: 46158110
[cpu0_DECODE] entry: 141 instr_id: 44525408 fetched: 2 scheduled: 0 executed: 0 num_reg_dependent: 0 num_mem_ops: 0 event: 46159959
[cpu0_DECODE] entry: 142 instr_id: 44525409 fetched: 2 scheduled: 0 executed: 0 num_reg_dependent: 0 num_mem_ops: 0 event: 46159959
[cpu0_DECODE] entry: 143 instr_id: 44525410 fetched: 2 scheduled: 0 executed: 0 num_reg_dependent: 0 num_mem_ops: 0 event: 46159959

[cpu0_DISPATCH] entry:   0 instr_id: 44525235 fetched: 2 scheduled: 0 executed: 0 num_reg_dependent: 0 num_mem_ops: 0 event: 46158106
[cpu0_DISPATCH] entry:   1 instr_id: 44525236 fetched: 2 scheduled: 0 executed: 0 num_reg_dependent: 0 num_mem_ops: 0 event: 46158106
[cpu0_DISPATCH] entry:   2 instr_id: 44525237 fetched: 2 scheduled: 0 executed: 0 num_reg_dependent: 0 num_mem_ops: 0 event: 46158107
[cpu0_DISPATCH] entry:   3 instr_id: 44525238 fetched: 2 scheduled: 0 executed: 0 num_reg_dependent: 0 num_mem_ops: 0 event: 46158107
[cpu0_DISPATCH] entry:   4 instr_id: 44525239 fetched: 2 scheduled: 0 executed: 0 num_reg_dependent: 0 num_mem_ops: 0 event: 46158107
[cpu0_DISPATCH] entry:   5 instr_id: 44525240 fetched: 2 scheduled: 0 executed: 0 num_reg_dependent: 0 num_mem_ops: 1 event: 46158107
[cpu0_DISPATCH] entry:   6 instr_id: 44525241 fetched: 2 scheduled: 0 executed: 0 num_reg_dependent: 0 num_mem_ops: 1 event: 46158107
[cpu0_DISPATCH] entry:   7 instr_id: 44525242 fetched: 2 scheduled: 0 executed: 0 num_reg_dependent: 0 num_mem_ops: 1 event: 46158107
[cpu0_DISPATCH] entry:   8 instr_id: 44525243 fetched: 2 scheduled: 0 executed: 0 num_reg_dependent: 0 num_mem_ops: 1 event: 46158108
[cpu0_DISPATCH] entry:   9 instr_id: 44525244 fetched: 2 scheduled: 0 executed: 0 num_reg_dependent: 0 num_mem_ops: 1 event: 46158108
[cpu0_DISPATCH] entry:  10 instr_id: 44525245 fetched: 2 scheduled: 0 executed: 0 num_reg_dependent: 0 num_mem_ops: 1 event: 46158108
[cpu0_DISPATCH] entry:  11 instr_id: 44525246 fetched: 2 scheduled: 0 executed: 0 num_reg_dependent: 0 num_mem_ops: 0 event: 46158108
[cpu0_DISPATCH] entry:  12 instr_id: 44525247 fetched: 2 scheduled: 0 executed: 0 num_reg_dependent: 0 num_mem_ops: 0 event: 46158108
[cpu0_DISPATCH] entry:  13 instr_id: 44525248 fetched: 2 scheduled: 0 executed: 0 num_reg_dependent: 0 num_mem_ops: 0 event: 46158108
[cpu0_DISPATCH] entry:  14 instr_id: 44525249 fetched: 2 scheduled: 0 executed: 0 num_reg_dependent: 0 num_mem_ops: 1 event: 46158109
[cpu0_DISPATCH] entry:  15 instr_id: 44525250 fetched: 2 scheduled: 0 executed: 0 num_reg_dependent: 0 num_mem_ops: 0 event: 46158109
[cpu0_DISPATCH] entry:  16 instr_id: 44525251 fetched: 2 scheduled: 0 executed: 0 num_reg_dependent: 0 num_mem_ops: 0 event: 46158109
[cpu0_DISPATCH] entry:  17 instr_id: 44525252 fetched: 2 scheduled: 0 executed: 0 num_reg_dependent: 0 num_mem_ops: 1 event: 46158109
[cpu0_DISPATCH] entry:  18 instr_id: 44525253 fetched: 2 scheduled: 0 executed: 0 num_reg_dependent: 0 num_mem_ops: 1 event: 46158109
[cpu0_DISPATCH] entry:  19 instr_id: 44525254 fetched: 2 scheduled: 0 executed: 0 num_reg_dependent: 0 num_mem_ops: 1 event: 46158109
[cpu0_DISPATCH] entry:  20 instr_id: 44525255 fetched: 2 scheduled: 0 executed: 0 num_reg_dependent: 0 num_mem_ops: 1 event: 46158110
[cpu0_DISPATCH] entry:  21 instr_id: 44525256 fetched: 2 scheduled: 0 executed: 0 num_reg_dependent: 0 num_mem_ops: 1 event: 46158110
[cpu0_DISPATCH] entry:  22 instr_id: 44525257 fetched: 2 scheduled: 0 executed: 0 num_reg_dependent: 0 num_mem_ops: 0 event: 46158110
[cpu0_DISPATCH] entry:  23 instr_id: 44525258 fetched: 2 scheduled: 0 executed: 0 num_reg_dependent: 0 num_mem_ops: 0 event: 46158110
[cpu0_DISPATCH] entry:  24 instr_id: 44525259 fetched: 2 scheduled: 0 executed: 0 num_reg_dependent: 0 num_mem_ops: 0 event: 46158110
[cpu0_DISPATCH] entry:  25 instr_id: 44525260 fetched: 2 scheduled: 0 executed: 0 num_reg_dependent: 0 num_mem_ops: 1 event: 46158110
[cpu0_DISPATCH] entry:  26 instr_id: 44525261 fetched: 2 scheduled: 0 executed: 0 num_reg_dependent: 0 num_mem_ops: 0 event: 46158111
[cpu0_DISPATCH] entry:  27 instr_id: 44525262 fetched: 2 scheduled: 0 executed: 0 num_reg_dependent: 0 num_mem_ops: 0 event: 46158111
[cpu0_DISPATCH] entry:  28 instr_id: 44525263 fetched: 2 scheduled: 0 executed: 0 num_reg_dependent: 0 num_mem_ops: 1 event: 46158111
[cpu0_DISPATCH] entry:  29 instr_id: 44525264 fetched: 2 scheduled: 0 executed: 0 num_reg_dependent: 0 num_mem_ops: 0 event: 46159960
[cpu0_DISPATCH] entry:  30 instr_id: 44525265 fetched: 2 scheduled: 0 executed: 0 num_reg_dependent: 0 num_mem_ops: 0 event: 46159960
[cpu0_DISPATCH] entry:  31 instr_id: 44525266 fetched: 2 scheduled: 0 executed: 0 num_reg_dependent: 0 num_mem_ops: 0 event: 46159960

[cpu0_ROB] entry:   0 instr_id: 44524723 fetched: 2 scheduled: 2 executed: 1 num_reg_dependent: 0 num_mem_ops: 1 event: 46157973
[cpu0_ROB] entry:   1 instr_id: 44524724 fetched: 2 scheduled: 2 executed: 2 num_reg_dependent: 0 num_mem_ops: 0 event: 46158086
[cpu0_ROB] entry:   2 instr_id: 44524725 fetched: 2 scheduled: 2 executed: 2 num_reg_dependent: 0 num_mem_ops: 0 event: 46157973
[cpu0_ROB] entry:   3 instr_id: 44524726 fetched: 2 scheduled: 2 executed: 2 num_reg_dependent: 0 num_mem_ops: 0 event: 46158087
[cpu0_ROB] entry:   4 instr_id: 44524727 fetched: 2 scheduled: 2 executed: 2 num_reg_dependent: 0 num_mem_ops: 0 event: 46158091
[cpu0_ROB] entry:   5 instr_id: 44524728 fetched: 2 scheduled: 2 executed: 2 num_reg_dependent: 0 num_mem_ops: 0 event: 46158090
[cpu0_ROB] entry:   6 instr_id: 44524729 fetched: 2 scheduled: 2 executed: 2 num_reg_dependent: 0 num_mem_ops: 0 event: 46158090
[cpu0_ROB] entry:   7 instr_id: 44524730 fetched: 2 scheduled: 2 executed: 1 num_reg_dependent: 0 num_mem_ops: 1 event: 46157975
[cpu0_ROB] entry:   8 instr_id: 44524731 fetched: 2 scheduled: 2 executed: 2 num_reg_dependent: 0 num_mem_ops: 0 event: 46158089
[cpu0_ROB] entry:   9 instr_id: 44524732 fetched: 2 scheduled: 2 executed: 2 num_reg_dependent: 0 num_mem_ops: 0 event: 46158091
[cpu0_ROB] entry:  10 instr_id: 44524733 fetched: 2 scheduled: 2 executed: 0 num_reg_dependent: 1 num_mem_ops: 0 event: 46158080
[cpu0_ROB] entry:  11 instr_id: 44524734 fetched: 2 scheduled: 2 executed: 2 num_reg_dependent: 0 num_mem_ops: 0 event: 46158090
[cpu0_ROB] entry:  12 instr_id: 44524735 fetched: 2 scheduled: 2 executed: 2 num_reg_dependent: 0 num_mem_ops: 0 event: 46159959
[cpu0_ROB] entry:  13 instr_id: 44524736 fetched: 2 scheduled: 2 executed: 2 num_reg_dependent: 0 num_mem_ops: 0 event: 46159959
[cpu0_ROB] entry:  14 instr_id: 44524737 fetched: 2 scheduled: 2 executed: 2 num_reg_dependent: 0 num_mem_ops: 0 event: 46159959
[cpu0_ROB] entry:  15 instr_id: 44524738 fetched: 2 scheduled: 2 executed: 2 num_reg_dependent: 0 num_mem_ops: 0 event: 46159959
[cpu0_ROB] entry:  16 instr_id: 44524739 fetched: 2 scheduled: 2 executed: 2 num_reg_dependent: 0 num_mem_ops: 0 event: 46158089
[cpu0_ROB] entry:  17 instr_id: 44524740 fetched: 2 scheduled: 2 executed: 0 num_reg_dependent: 1 num_mem_ops: 0 event: 46158080
[cpu0_ROB] entry:  18 instr_id: 44524741 fetched: 2 scheduled: 2 executed: 2 num_reg_dependent: 0 num_mem_ops: 0 event: 46158092
[cpu0_ROB] entry:  19 instr_id: 44524742 fetched: 2 scheduled: 2 executed: 1 num_reg_dependent: 0 num_mem_ops: 1 event: 46158087
[cpu0_ROB] entry:  20 instr_id: 44524743 fetched: 2 scheduled: 2 executed: 2 num_reg_dependent: 0 num_mem_ops: 0 event: 46159960
[cpu0_ROB] entry:  21 instr_id: 44524744 fetched: 2 scheduled: 2 executed: 2 num_reg_dependent: 0 num_mem_ops: 0 event: 46159959
[cpu0_ROB] entry:  22 instr_id: 44524745 fetched: 2 scheduled: 2 executed: 2 num_reg_dependent: 0 num_mem_ops: 0 event: 46159960
[cpu0_ROB] entry:  23 instr_id: 44524746 fetched: 2 scheduled: 2 executed: 2 num_reg_dependent: 0 num_mem_ops: 0 event: 46158087
[cpu0_ROB] entry:  24 instr_id: 44524747 fetched: 2 scheduled: 2 executed: 0 num_reg_dependent: 1 num_mem_ops: 0 event: 46158081
[cpu0_ROB] entry:  25 instr_id: 44524748 fetched: 2 scheduled: 2 executed: 1 num_reg_dependent: 0 num_mem_ops: 1 event: 46158087
[cpu0_ROB] entry:  26 instr_id: 44524749 fetched: 2 scheduled: 2 executed: 2 num_reg_dependent: 0 num_mem_ops: 0 event: 46158088
[cpu0_ROB] entry:  27 instr_id: 44524750 fetched: 2 scheduled: 2 executed: 1 num_reg_dependent: 0 num_mem_ops: 1 event: 46158088
[cpu0_ROB] entry:  28 instr_id: 44524751 fetched: 2 scheduled: 2 executed: 2 num_reg_dependent: 0 num_mem_ops: 0 event: 46159960
[cpu0_ROB] entry:  29 instr_id: 44524752 fetched: 2 scheduled: 2 executed: 1 num_reg_dependent: 0 num_mem_ops: 1 event: 46158088
[cpu0_ROB] entry:  30 instr_id: 44524753 fetched: 2 scheduled: 2 executed: 0 num_reg_dependent: 1 num_mem_ops: 0 event: 46158081
[cpu0_ROB] entry:  31 instr_id: 44524754 fetched: 2 scheduled: 2 executed: 1 num_reg_dependent: 0 num_mem_ops: 1 event: 46158088
[cpu0_ROB] entry:  32 instr_id: 44524755 fetched: 2 scheduled: 2 executed: 0 num_reg_dependent: 1 num_mem_ops: 0 event: 46158081
[cpu0_ROB] entry:  33 instr_id: 44524756 fetched: 2 scheduled: 2 executed: 0 num_reg_dependent: 1 num_mem_ops: 0 event: 46158082
[cpu0_ROB] entry:  34 instr_id: 44524757 fetched: 2 scheduled: 2 executed: 0 num_reg_dependent: 1 num_mem_ops: 0 event: 46158082
[cpu0_ROB] entry:  35 instr_id: 44524758 fetched: 2 scheduled: 2 executed: 0 num_reg_dependent: 1 num_mem_ops: 0 event: 46158082
[cpu0_ROB] entry:  36 instr_id: 44524759 fetched: 2 scheduled: 2 executed: 0 num_reg_dependent: 1 num_mem_ops: 0 event: 46158082
[cpu0_ROB] entry:  37 instr_id: 44524760 fetched: 2 scheduled: 2 executed: 2 num_reg_dependent: 0 num_mem_ops: 0 event: 46158089
[cpu0_ROB] entry:  38 instr_id: 44524761 fetched: 2 scheduled: 2 executed: 2 num_reg_dependent: 0 num_mem_ops: 0 event: 46159959
[cpu0_ROB] entry:  39 instr_id: 44524762 fetched: 2 scheduled: 2 executed: 2 num_reg_dependent: 0 num_mem_ops: 0 event: 46159959
[cpu0_ROB] entry:  40 instr_id: 44524763 fetched: 2 scheduled: 2 executed: 2 num_reg_dependent: 0 num_mem_ops: 0 event: 46158089
[cpu0_ROB] entry:  41 instr_id: 44524764 fetched: 2 scheduled: 2 executed: 2 num_reg_dependent: 0 num_mem_ops: 0 event: 46158088
[cpu0_ROB] entry:  42 instr_id: 44524765 fetched: 2 scheduled: 2 executed: 2 num_reg_dependent: 0 num_mem_ops: 0 event: 46158088
[cpu0_ROB] entry:  43 instr_id: 44524766 fetched: 2 scheduled: 2 executed: 0 num_reg_dependent: 1 num_mem_ops: 0 event: 46158082
[cpu0_ROB] entry:  44 instr_id: 44524767 fetched: 2 scheduled: 2 executed: 0 num_reg_dependent: 1 num_mem_ops: 0 event: 46158082
[cpu0_ROB] entry:  45 instr_id: 44524768 fetched: 2 scheduled: 2 executed: 2 num_reg_dependent: 0 num_mem_ops: 0 event: 46158090
[cpu0_ROB] entry:  46 instr_id: 44524769 fetched: 2 scheduled: 2 executed: 0 num_reg_dependent: 2 num_mem_ops: 0 event: 46158083
[cpu0_ROB] entry:  47 instr_id: 44524770 fetched: 2 scheduled: 2 executed: 2 num_reg_dependent: 0 num_mem_ops: 0 event: 46159960
[cpu0_ROB] entry:  48 instr_id: 44524771 fetched: 2 scheduled: 2 executed: 2 num_reg_dependent: 0 num_mem_ops: 0 event: 46159960
[cpu0_ROB] entry:  49 instr_id: 44524772 fetched: 2 scheduled: 2 executed: 2 num_reg_dependent: 0 num_mem_ops: 0 event: 46158090
[cpu0_ROB] entry:  50 instr_id: 44524773 fetched: 2 scheduled: 2 executed: 2 num_reg_dependent: 0 num_mem_ops: 0 event: 46158091
[cpu0_ROB] entry:  51 instr_id: 44524774 fetched: 2 scheduled: 2 executed: 2 num_reg_dependent: 0 num_mem_ops: 0 event: 46158091
[cpu0_ROB] entry:  52 instr_id: 44524775 fetched: 2 scheduled: 2 executed: 0 num_reg_dependent: 1 num_mem_ops: 0 event: 46158083
[cpu0_ROB] entry:  53 instr_id: 44524776 fetched: 2 scheduled: 2 executed: 0 num_reg_dependent: 1 num_mem_ops: 0 event: 46158083
[cpu0_ROB] entry:  54 instr_id: 44524777 fetched: 2 scheduled: 2 executed: 0 num_reg_dependent: 1 num_mem_ops: 0 event: 46158083
[cpu0_ROB] entry:  55 instr_id: 44524778 fetched: 2 scheduled: 2 executed: 0 num_reg_dependent: 2 num_mem_ops: 0 event: 46158083
[cpu0_ROB] entry:  56 instr_id: 44524779 fetched: 2 scheduled: 2 executed: 0 num_reg_dependent: 1 num_mem_ops: 0 event: 46158083
[cpu0_ROB] entry:  57 instr_id: 44524780 fetched: 2 scheduled: 2 executed: 0 num_reg_dependent: 1 num_mem_ops: 0 event: 46158084
[cpu0_ROB] entry:  58 instr_id: 44524781 fetched: 2 scheduled: 2 executed: 0 num_reg_dependent: 1 num_mem_ops: 0 event: 46158084
[cpu0_ROB] entry:  59 instr_id: 44524782 fetched: 2 scheduled: 2 executed: 0 num_reg_dependent: 1 num_mem_ops: 0 event: 46158084
[cpu0_ROB] entry:  60 instr_id: 44524783 fetched: 2 scheduled: 2 executed: 0 num_reg_dependent: 1 num_mem_ops: 0 event: 46158084
[cpu0_ROB] entry:  61 instr_id: 44524784 fetched: 2 scheduled: 2 executed: 0 num_reg_dependent: 2 num_mem_ops: 0 event: 46158084
[cpu0_ROB] entry:  62 instr_id: 44524785 fetched: 2 scheduled: 2 executed: 0 num_reg_dependent: 2 num_mem_ops: 0 event: 46158084
[cpu0_ROB] entry:  63 instr_id: 44524786 fetched: 2 scheduled: 2 executed: 0 num_reg_dependent: 2 num_mem_ops: 0 event: 46158084
[cpu0_ROB] entry:  64 instr_id: 44524787 fetched: 2 scheduled: 2 executed: 0 num_reg_dependent: 1 num_mem_ops: 0 event: 46158084
[cpu0_ROB] entry:  65 instr_id: 44524788 fetched: 2 scheduled: 2 executed: 0 num_reg_dependent: 1 num_mem_ops: 0 event: 46158084
[cpu0_ROB] entry:  66 instr_id: 44524789 fetched: 2 scheduled: 2 executed: 0 num_reg_dependent: 1 num_mem_ops: 0 event: 46158084
[cpu0_ROB] entry:  67 instr_id: 44524790 fetched: 2 scheduled: 2 executed: 0 num_reg_dependent: 2 num_mem_ops: 0 event: 46158084
[cpu0_ROB] entry:  68 instr_id: 44524791 fetched: 2 scheduled: 2 executed: 0 num_reg_dependent: 1 num_mem_ops: 0 event: 46158084
[cpu0_ROB] entry:  69 instr_id: 44524792 fetched: 2 scheduled: 2 executed: 1 num_reg_dependent: 0 num_mem_ops: 1 event: 46158088
[cpu0_ROB] entry:  70 instr_id: 44524793 fetched: 2 scheduled: 2 executed: 0 num_reg_dependent: 2 num_mem_ops: 0 event: 46158085
[cpu0_ROB] entry:  71 instr_id: 44524794 fetched: 2 scheduled: 2 executed: 0 num_reg_dependent: 2 num_mem_ops: 0 event: 46158085
[cpu0_ROB] entry:  72 instr_id: 44524795 fetched: 2 scheduled: 2 executed: 0 num_reg_dependent: 1 num_mem_ops: 0 event: 46158085
[cpu0_ROB] entry:  73 instr_id: 44524796 fetched: 2 scheduled: 2 executed: 0 num_reg_dependent: 1 num_mem_ops: 0 event: 46158085
[cpu0_ROB] entry:  74 instr_id: 44524797 fetched: 2 scheduled: 2 executed: 0 num_reg_dependent: 1 num_mem_ops: 0 event: 46158085
[cpu0_ROB] entry:  75 instr_id: 44524798 fetched: 2 scheduled: 2 executed: 0 num_reg_dependent: 1 num_mem_ops: 0 event: 46158085
[cpu0_ROB] entry:  76 instr_id: 44524799 fetched: 2 scheduled: 2 executed: 0 num_reg_dependent: 1 num_mem_ops: 0 event: 46158085
[cpu0_ROB] entry:  77 instr_id: 44524800 fetched: 2 scheduled: 2 executed: 2 num_reg_dependent: 0 num_mem_ops: 0 event: 46158089
[cpu0_ROB] entry:  78 instr_id: 44524801 fetched: 2 scheduled: 2 executed: 2 num_reg_dependent: 0 num_mem_ops: 0 event: 46158091
[cpu0_ROB] entry:  79 instr_id: 44524802 fetched: 2 scheduled: 2 executed: 1 num_reg_dependent: 0 num_mem_ops: 1 event: 46158091
[cpu0_ROB] entry:  80 instr_id: 44524803 fetched: 2 scheduled: 2 executed: 2 num_reg_dependent: 0 num_mem_ops: 0 event: 46158091
[cpu0_ROB] entry:  81 instr_id: 44524804 fetched: 2 scheduled: 2 executed: 1 num_reg_dependent: 0 num_mem_ops: 1 event: 46158091
[cpu0_ROB] entry:  82 instr_id: 44524805 fetched: 2 scheduled: 2 executed: 2 num_reg_dependent: 0 num_mem_ops: 0 event: 46158091
[cpu0_ROB] entry:  83 instr_id: 44524806 fetched: 2 scheduled: 2 executed: 1 num_reg_dependent: 0 num_mem_ops: 1 event: 46158091
[cpu0_ROB] entry:  84 instr_id: 44524807 fetched: 2 scheduled: 2 executed: 0 num_reg_dependent: 1 num_mem_ops: 0 event: 46158086
[cpu0_ROB] entry:  85 instr_id: 44524808 fetched: 2 scheduled: 2 executed: 0 num_reg_dependent: 1 num_mem_ops: 0 event: 46158086
[cpu0_ROB] entry:  86 instr_id: 44524809 fetched: 2 scheduled: 2 executed: 2 num_reg_dependent: 0 num_mem_ops: 0 event: 46158091
[cpu0_ROB] entry:  87 instr_id: 44524810 fetched: 2 scheduled: 2 executed: 2 num_reg_dependent: 0 num_mem_ops: 0 event: 46158091
[cpu0_ROB] entry:  88 instr_id: 44524811 fetched: 2 scheduled: 2 executed: 0 num_reg_dependent: 1 num_mem_ops: 0 event: 46158086
[cpu0_ROB] entry:  89 instr_id: 44524812 fetched: 2 scheduled: 2 executed: 2 num_reg_dependent: 0 num_mem_ops: 0 event: 46158092
[cpu0_ROB] entry:  90 instr_id: 44524813 fetched: 2 scheduled: 2 executed: 1 num_reg_dependent: 0 num_mem_ops: 1 event: 46158092
[cpu0_ROB] entry:  91 instr_id: 44524814 fetched: 2 scheduled: 2 executed: 0 num_reg_dependent: 1 num_mem_ops: 0 event: 46158086
[cpu0_ROB] entry:  92 instr_id: 44524815 fetched: 2 scheduled: 2 executed: 2 num_reg_dependent: 0 num_mem_ops: 0 event: 46158092
[cpu0_ROB] entry:  93 instr_id: 44524816 fetched: 2 scheduled: 2 executed: 0 num_reg_dependent: 2 num_mem_ops: 0 event: 46158087
[cpu0_ROB] entry:  94 instr_id: 44524817 fetched: 2 scheduled: 2 executed: 0 num_reg_dependent: 2 num_mem_ops: 0 event: 46158087
[cpu0_ROB] entry:  95 instr_id: 44524818 fetched: 2 scheduled: 2 executed: 0 num_reg_dependent: 1 num_mem_ops: 0 event: 46158087
[cpu0_ROB] entry:  96 instr_id: 44524819 fetched: 2 scheduled: 2 executed: 0 num_reg_dependent: 1 num_mem_ops: 0 event: 46158087
[cpu0_ROB] entry:  97 instr_id: 44524820 fetched: 2 scheduled: 2 executed: 1 num_reg_dependent: 0 num_mem_ops: 1 event: 46158092
[cpu0_ROB] entry:  98 instr_id: 44524821 fetched: 2 scheduled: 2 executed: 0 num_reg_dependent: 1 num_mem_ops: 0 event: 46158087
[cpu0_ROB] entry:  99 instr_id: 44524822 fetched: 2 scheduled: 2 executed: 0 num_reg_dependent: 2 num_mem_ops: 0 event: 46158087
[cpu0_ROB] entry: 100 instr_id: 44524823 fetched: 2 scheduled: 2 executed: 0 num_reg_dependent: 1 num_mem_ops: 0 event: 46158087
[cpu0_ROB] entry: 101 instr_id: 44524824 fetched: 2 scheduled: 2 executed: 0 num_reg_dependent: 2 num_mem_ops: 0 event: 46158087
[cpu0_ROB] entry: 102 instr_id: 44524825 fetched: 2 scheduled: 2 executed: 0 num_reg_dependent: 1 num_mem_ops: 0 event: 46158087
[cpu0_ROB] entry: 103 instr_id: 44524826 fetched: 2 scheduled: 2 executed: 0 num_reg_dependent: 2 num_mem_ops: 0 event: 46158087
[cpu0_ROB] entry: 104 instr_id: 44524827 fetched: 2 scheduled: 2 executed: 0 num_reg_dependent: 2 num_mem_ops: 0 event: 46158087
[cpu0_ROB] entry: 105 instr_id: 44524828 fetched: 2 scheduled: 2 executed: 0 num_reg_dependent: 2 num_mem_ops: 0 event: 46158088
[cpu0_ROB] entry: 106 instr_id: 44524829 fetched: 2 scheduled: 2 executed: 0 num_reg_dependent: 1 num_mem_ops: 0 event: 46158088
[cpu0_ROB] entry: 107 instr_id: 44524830 fetched: 2 scheduled: 2 executed: 0 num_reg_dependent: 1 num_mem_ops: 0 event: 46158088
[cpu0_ROB] entry: 108 instr_id: 44524831 fetched: 2 scheduled: 2 executed: 0 num_reg_dependent: 2 num_mem_ops: 0 event: 46158088
[cpu0_ROB] entry: 109 instr_id: 44524832 fetched: 2 scheduled: 2 executed: 1 num_reg_dependent: 0 num_mem_ops: 1 event: 46158092
[cpu0_ROB] entry: 110 instr_id: 44524833 fetched: 2 scheduled: 2 executed: 0 num_reg_dependent: 2 num_mem_ops: 0 event: 46158088
[cpu0_ROB] entry: 111 instr_id: 44524834 fetched: 2 scheduled: 2 executed: 0 num_reg_dependent: 2 num_mem_ops: 0 event: 46158088
[cpu0_ROB] entry: 112 instr_id: 44524835 fetched: 2 scheduled: 2 executed: 0 num_reg_dependent: 2 num_mem_ops: 0 event: 46158088
[cpu0_ROB] entry: 113 instr_id: 44524836 fetched: 2 scheduled: 2 executed: 2 num_reg_dependent: 0 num_mem_ops: 0 event: 46158092
[cpu0_ROB] entry: 114 instr_id: 44524837 fetched: 2 scheduled: 2 executed: 0 num_reg_dependent: 2 num_mem_ops: 0 event: 46158088
[cpu0_ROB] entry: 115 instr_id: 44524838 fetched: 2 scheduled: 2 executed: 1 num_reg_dependent: 0 num_mem_ops: 1 event: 46158092
[cpu0_ROB] entry: 116 instr_id: 44524839 fetched: 2 scheduled: 2 executed: 2 num_reg_dependent: 0 num_mem_ops: 0 event: 46158092
[cpu0_ROB] entry: 117 instr_id: 44524840 fetched: 2 scheduled: 2 executed: 1 num_reg_dependent: 0 num_mem_ops: 1 event: 46158092
[cpu0_ROB] entry: 118 instr_id: 44524841 fetched: 2 scheduled: 2 executed: 0 num_reg_dependent: 2 num_mem_ops: 0 event: 46158089
[cpu0_ROB] entry: 119 instr_id: 44524842 fetched: 2 scheduled: 2 executed: 1 num_reg_dependent: 0 num_mem_ops: 1 event: 46158092
[cpu0_ROB] entry: 120 instr_id: 44524843 fetched: 2 scheduled: 2 executed: 0 num_reg_dependent: 2 num_mem_ops: 0 event: 46158089
[cpu0_ROB] entry: 121 instr_id: 44524844 fetched: 2 scheduled: 2 executed: 1 num_reg_dependent: 0 num_mem_ops: 1 event: 46158092
[cpu0_ROB] entry: 122 instr_id: 44524845 fetched: 2 scheduled: 2 executed: 0 num_reg_dependent: 1 num_mem_ops: 0 event: 46158089
[cpu0_ROB] entry: 123 instr_id: 44524846 fetched: 2 scheduled: 2 executed: 0 num_reg_dependent: 1 num_mem_ops: 0 event: 46158089
[cpu0_ROB] entry: 124 instr_id: 44524847 fetched: 2 scheduled: 2 executed: 0 num_reg_dependent: 1 num_mem_ops: 0 event: 46158089
[cpu0_ROB] entry: 125 instr_id: 44524848 fetched: 2 scheduled: 2 executed: 0 num_reg_dependent: 1 num_mem_ops: 0 event: 46158089
[cpu0_ROB] entry: 126 instr_id: 44524849 fetched: 2 scheduled: 2 executed: 0 num_reg_dependent: 2 num_mem_ops: 0 event: 46158089
[cpu0_ROB] entry: 127 instr_id: 44524850 fetched: 2 scheduled: 2 executed: 0 num_reg_dependent: 1 num_mem_ops: 0 event: 46158089
[cpu0_ROB] entry: 128 instr_id: 44524851 fetched: 2 scheduled: 2 executed: 0 num_reg_dependent: 1 num_mem_ops: 0 event: 46158089
[cpu0_ROB] entry: 129 instr_id: 44524852 fetched: 2 scheduled: 2 executed: 0 num_reg_dependent: 1 num_mem_ops: 0 event: 46158090
[cpu0_ROB] entry: 130 instr_id: 44524853 fetched: 2 scheduled: 2 executed: 0 num_reg_dependent: 1 num_mem_ops: 0 event: 46158090
[cpu0_ROB] entry: 131 instr_id: 44524854 fetched: 2 scheduled: 2 executed: 0 num_reg_dependent: 1 num_mem_ops: 0 event: 46158090
[cpu0_ROB] entry: 132 instr_id: 44524855 fetched: 2 scheduled: 2 executed: 0 num_reg_dependent: 1 num_mem_ops: 0 event: 46158090
[cpu0_ROB] entry: 133 instr_id: 44524856 fetched: 2 scheduled: 2 executed: 0 num_reg_dependent: 2 num_mem_ops: 0 event: 46158090
[cpu0_ROB] entry: 134 instr_id: 44524857 fetched: 2 scheduled: 2 executed: 0 num_reg_dependent: 2 num_mem_ops: 0 event: 46158090
[cpu0_ROB] entry: 135 instr_id: 44524858 fetched: 2 scheduled: 2 executed: 0 num_reg_dependent: 2 num_mem_ops: 0 event: 46158090
[cpu0_ROB] entry: 136 instr_id: 44524859 fetched: 2 scheduled: 2 executed: 0 num_reg_dependent: 2 num_mem_ops: 0 event: 46158090
[cpu0_ROB] entry: 137 instr_id: 44524860 fetched: 2 scheduled: 2 executed: 0 num_reg_dependent: 2 num_mem_ops: 0 event: 46158090
[cpu0_ROB] entry: 138 instr_id: 44524861 fetched: 2 scheduled: 2 executed: 0 num_reg_dependent: 2 num_mem_ops: 0 event: 46158090
[cpu0_ROB] entry: 139 instr_id: 44524862 fetched: 2 scheduled: 2 executed: 0 num_reg_dependent: 2 num_mem_ops: 0 event: 46158090
[cpu0_ROB] entry: 140 instr_id: 44524863 fetched: 2 scheduled: 2 executed: 0 num_reg_dependent: 2 num_mem_ops: 0 event: 46158090
[cpu0_ROB] entry: 141 instr_id: 44524864 fetched: 2 scheduled: 2 executed: 0 num_reg_dependent: 2 num_mem_ops: 0 event: 46158091
[cpu0_ROB] entry: 142 instr_id: 44524865 fetched: 2 scheduled: 2 executed: 0 num_reg_dependent: 2 num_mem_ops: 0 event: 46158091
[cpu0_ROB] entry: 143 instr_id: 44524866 fetched: 2 scheduled: 2 executed: 0 num_reg_dependent: 2 num_mem_ops: 0 event: 46158091
[cpu0_ROB] entry: 144 instr_id: 44524867 fetched: 2 scheduled: 2 executed: 0 num_reg_dependent: 2 num_mem_ops: 0 event: 46158091
[cpu0_ROB] entry: 145 instr_id: 44524868 fetched: 2 scheduled: 2 executed: 0 num_reg_dependent: 2 num_mem_ops: 0 event: 46158091
[cpu0_ROB] entry: 146 instr_id: 44524869 fetched: 2 scheduled: 2 executed: 0 num_reg_dependent: 2 num_mem_ops: 0 event: 46158091
[cpu0_ROB] entry: 147 instr_id: 44524870 fetched: 2 scheduled: 2 executed: 0 num_reg_dependent: 1 num_mem_ops: 0 event: 46158091
[cpu0_ROB] entry: 148 instr_id: 44524871 fetched: 2 scheduled: 2 executed: 0 num_reg_dependent: 2 num_mem_ops: 0 event: 46158091
[cpu0_ROB] entry: 149 instr_id: 44524872 fetched: 2 scheduled: 2 executed: 0 num_reg_dependent: 2 num_mem_ops: 0 event: 46158091
[cpu0_ROB] entry: 150 instr_id: 44524873 fetched: 2 scheduled: 2 executed: 0 num_reg_dependent: 1 num_mem_ops: 0 event: 46158091
[cpu0_ROB] entry: 151 instr_id: 44524874 fetched: 2 scheduled: 2 executed: 0 num_reg_dependent: 2 num_mem_ops: 0 event: 46158091
[cpu0_ROB] entry: 152 instr_id: 44524875 fetched: 2 scheduled: 2 executed: 0 num_reg_dependent: 2 num_mem_ops: 0 event: 46158091
[cpu0_ROB] entry: 153 instr_id: 44524876 fetched: 2 scheduled: 2 executed: 0 num_reg_dependent: 2 num_mem_ops: 0 event: 46158092
[cpu0_ROB] entry: 154 instr_id: 44524877 fetched: 2 scheduled: 2 executed: 0 num_reg_dependent: 1 num_mem_ops: 0 event: 46158092
[cpu0_ROB] entry: 155 instr_id: 44524878 fetched: 2 scheduled: 2 executed: 0 num_reg_dependent: 1 num_mem_ops: 0 event: 46158092
[cpu0_ROB] entry: 156 instr_id: 44524879 fetched: 2 scheduled: 2 executed: 0 num_reg_dependent: 1 num_mem_ops: 0 event: 46158092
[cpu0_ROB] entry: 157 instr_id: 44524880 fetched: 2 scheduled: 2 executed: 0 num_reg_dependent: 2 num_mem_ops: 0 event: 46158092
[cpu0_ROB] entry: 158 instr_id: 44524881 fetched: 2 scheduled: 2 executed: 0 num_reg_dependent: 1 num_mem_ops: 0 event: 46158092
[cpu0_ROB] entry: 159 instr_id: 44524882 fetched: 2 scheduled: 2 executed: 1 num_reg_dependent: 0 num_mem_ops: 1 event: 46158093
[cpu0_ROB] entry: 160 instr_id: 44524883 fetched: 2 scheduled: 2 executed: 0 num_reg_dependent: 2 num_mem_ops: 0 event: 46158092
[cpu0_ROB] entry: 161 instr_id: 44524884 fetched: 2 scheduled: 2 executed: 0 num_reg_dependent: 2 num_mem_ops: 0 event: 46158092
[cpu0_ROB] entry: 162 instr_id: 44524885 fetched: 2 scheduled: 2 executed: 0 num_reg_dependent: 1 num_mem_ops: 0 event: 46158092
[cpu0_ROB] entry: 163 instr_id: 44524886 fetched: 2 scheduled: 2 executed: 0 num_reg_dependent: 1 num_mem_ops: 0 event: 46158092
[cpu0_ROB] entry: 164 instr_id: 44524887 fetched: 2 scheduled: 2 executed: 0 num_reg_dependent: 2 num_mem_ops: 0 event: 46158092
[cpu0_ROB] entry: 165 instr_id: 44524888 fetched: 2 scheduled: 2 executed: 0 num_reg_dependent: 1 num_mem_ops: 0 event: 46158093
[cpu0_ROB] entry: 166 instr_id: 44524889 fetched: 2 scheduled: 2 executed: 0 num_reg_dependent: 1 num_mem_ops: 0 event: 46158093
[cpu0_ROB] entry: 167 instr_id: 44524890 fetched: 2 scheduled: 2 executed: 2 num_reg_dependent: 0 num_mem_ops: 0 event: 46158094
[cpu0_ROB] entry: 168 instr_id: 44524891 fetched: 2 scheduled: 2 executed: 2 num_reg_dependent: 0 num_mem_ops: 0 event: 46158094
[cpu0_ROB] entry: 169 instr_id: 44524892 fetched: 2 scheduled: 2 executed: 1 num_reg_dependent: 0 num_mem_ops: 1 event: 46158094
[cpu0_ROB] entry: 170 instr_id: 44524893 fetched: 2 scheduled: 2 executed: 1 num_reg_dependent: 0 num_mem_ops: 1 event: 46158094
[cpu0_ROB] entry: 171 instr_id: 44524894 fetched: 2 scheduled: 2 executed: 1 num_reg_dependent: 0 num_mem_ops: 1 event: 46158094
[cpu0_ROB] entry: 172 instr_id: 44524895 fetched: 2 scheduled: 2 executed: 1 num_reg_dependent: 0 num_mem_ops: 1 event: 46158094
[cpu0_ROB] entry: 173 instr_id: 44524896 fetched: 2 scheduled: 2 executed: 1 num_reg_dependent: 0 num_mem_ops: 1 event: 46158094
[cpu0_ROB] entry: 174 instr_id: 44524897 fetched: 2 scheduled: 2 executed: 0 num_reg_dependent: 2 num_mem_ops: 0 event: 46158093
[cpu0_ROB] entry: 175 instr_id: 44524898 fetched: 2 scheduled: 2 executed: 0 num_reg_dependent: 2 num_mem_ops: 0 event: 46158093
[cpu0_ROB] entry: 176 instr_id: 44524899 fetched: 2 scheduled: 2 executed: 2 num_reg_dependent: 0 num_mem_ops: 0 event: 46158094
[cpu0_ROB] entry: 177 instr_id: 44524900 fetched: 2 scheduled: 2 executed: 1 num_reg_dependent: 0 num_mem_ops: 1 event: 46158095
[cpu0_ROB] entry: 178 instr_id: 44524901 fetched: 2 scheduled: 2 executed: 0 num_reg_dependent: 2 num_mem_ops: 0 event: 46158095
[cpu0_ROB] entry: 179 instr_id: 44524902 fetched: 2 scheduled: 2 executed: 2 num_reg_dependent: 0 num_mem_ops: 0 event: 46158096
[cpu0_ROB] entry: 180 instr_id: 44524903 fetched: 2 scheduled: 2 executed: 1 num_reg_dependent: 0 num_mem_ops: 1 event: 46158096
[cpu0_ROB] entry: 181 instr_id: 44524904 fetched: 2 scheduled: 2 executed: 0 num_reg_dependent: 2 num_mem_ops: 0 event: 46158095
[cpu0_ROB] entry: 182 instr_id: 44524905 fetched: 2 scheduled: 2 executed: 2 num_reg_dependent: 0 num_mem_ops: 0 event: 46158096
[cpu0_ROB] entry: 183 instr_id: 44524906 fetched: 2 scheduled: 2 executed: 0 num_reg_dependent: 3 num_mem_ops: 0 event: 46158095
[cpu0_ROB] entry: 184 instr_id: 44524907 fetched: 2 scheduled: 2 executed: 0 num_reg_dependent: 3 num_mem_ops: 0 event: 46158095
[cpu0_ROB] entry: 185 instr_id: 44524908 fetched: 2 scheduled: 2 executed: 0 num_reg_dependent: 2 num_mem_ops: 0 event: 46158095
[cpu0_ROB] entry: 186 instr_id: 44524909 fetched: 2 scheduled: 2 executed: 0 num_reg_dependent: 2 num_mem_ops: 0 event: 46158096
[...]
[cpu0_LQ] entry:  21 instr_id: 44524842 address: 0xa0b9b50 fetch_issued: true event_cycle: 46158092 waits on -
[cpu0_LQ] entry:  22 instr_id: 44524844 address: 0xa0b9b90 fetch_issued: true event_cycle: 46158092 waits on -
[cpu0_LQ] entry:  23 instr_id: 44524882 address: 0xa0b9b78 fetch_issued: true event_cycle: 46158093 waits on -
[cpu0_LQ] entry:  24 instr_id: 44524892 address: 0x28602f90 fetch_issued: true event_cycle: 46158094 waits on -
[cpu0_LQ] entry:  25 instr_id: 44524893 address: 0x28d56f80 fetch_issued: true event_cycle: 46158094 waits on -
[cpu0_LQ] entry:  26 instr_id: 44524894 address: 0x28602f80 fetch_issued: true event_cycle: 46158094 waits on -
[cpu0_LQ] entry:  27 instr_id: 44524895 address: 0x28d56f90 fetch_issued: true event_cycle: 46158094 waits on -
[cpu0_LQ] entry:  28 instr_id: 44524896 address: 0x28602fa0 fetch_issued: true event_cycle: 46158094 waits on -
[cpu0_LQ] entry:  29 instr_id: 44524900 address: 0x28d56fa0 fetch_issued: true event_cycle: 46158095 waits on -
[cpu0_LQ] entry:  30 instr_id: 44524903 address: 0xa0ba008 fetch_issued: true event_cycle: 46158096 waits on -
[cpu0_LQ] entry:  31 instr_id: 44524910 address: 0xa0ba370 fetch_issued: true event_cycle: 46158098 waits on -
[cpu0_LQ] entry:  32 instr_id: 44524922 address: 0xa0ba380 fetch_issued: true event_cycle: 46159962 waits on -
[cpu0_LQ] entry:  33 instr_id: 44524928 address: 0xa0ba388 fetch_issued: true event_cycle: 0 waits on -
[cpu0_LQ] entry:  34 instr_id: 44524930 address: 0xa0ba360 fetch_issued: true event_cycle: 0 waits on -
[cpu0_LQ] entry:  35 instr_id: 44524932 address: 0xa0ba350 fetch_issued: true event_cycle: 0 waits on -
[cpu0_LQ] entry:  36 instr_id: 44524934 address: 0xa0ba390 fetch_issued: true event_cycle: 0 waits on -
[cpu0_LQ] entry:  37 instr_id: 44524972 address: 0xa0ba378 fetch_issued: true event_cycle: 0 waits on -
[cpu0_LQ] entry:  38 instr_id: 44524982 address: 0x28602fc0 fetch_issued: true event_cycle: 0 waits on -
[cpu0_LQ] entry:  39 instr_id: 44524983 address: 0x28d56fb0 fetch_issued: true event_cycle: 0 waits on -
[cpu0_LQ] entry:  40 instr_id: 44524984 address: 0x28602fb0 fetch_issued: true event_cycle: 0 waits on -
[cpu0_LQ] entry:  41 instr_id: 44524985 address: 0x28d56fc0 fetch_issued: true event_cycle: 0 waits on -
[cpu0_LQ] entry:  42 instr_id: 44524986 address: 0x28602fd0 fetch_issued: true event_cycle: 0 waits on -
[cpu0_LQ] entry:  43 instr_id: 44524990 address: 0x28d56fd0 fetch_issued: true event_cycle: 0 waits on -
[cpu0_LQ] entry:  44 instr_id: 44524993 address: 0xa0ba808 fetch_issued: true event_cycle: 0 waits on -
[cpu0_LQ] entry:  45 instr_id: 44525000 address: 0xa0bab70 fetch_issued: true event_cycle: 0 waits on -
[cpu0_LQ] entry:  46 instr_id: 44525012 address: 0xa0bab80 fetch_issued: true event_cycle: 0 waits on -
[cpu0_LQ] entry:  47 instr_id: 44525072 address: 0x28602ff0 fetch_issued: true event_cycle: 0 waits on -
[cpu0_LQ] entry:  48 instr_id: 44525018 address: 0xa0bab88 fetch_issued: true event_cycle: 0 waits on -
[cpu0_LQ] entry:  49 instr_id: 44525073 address: 0x28d56fe0 fetch_issued: true event_cycle: 0 waits on -
[cpu0_LQ] entry:  50 instr_id: 44525020 address: 0xa0bab60 fetch_issued: true event_cycle: 0 waits on -
[cpu0_LQ] entry:  51 instr_id: 44525074 address: 0x28602fe0 fetch_issued: true event_cycle: 0 waits on -
[cpu0_LQ] entry:  52 instr_id: 44525022 address: 0xa0bab50 fetch_issued: true event_cycle: 0 waits on -
[cpu0_LQ] entry:  53 instr_id: 44525075 address: 0x28d56ff0 fetch_issued: true event_cycle: 0 waits on -
[cpu0_LQ] entry:  54 instr_id: 44525024 address: 0xa0bab90 fetch_issued: true event_cycle: 0 waits on -
[cpu0_LQ] entry:  55 instr_id: 44525076 address: 0x28603000 fetch_issued: true event_cycle: 0 waits on -
[cpu0_LQ] entry:  56 instr_id: 44525080 address: 0x28d57000 fetch_issued: true event_cycle: 0 waits on -
[cpu0_LQ] entry:  57 instr_id: 44525083 address: 0xa0bb008 fetch_issued: true event_cycle: 0 waits on -
[cpu0_LQ] entry:  58 instr_id: 44525090 address: 0xa0bb370 fetch_issued: true event_cycle: 0 waits on -
[cpu0_LQ] entry:  59 instr_id: 44525102 address: 0xa0bb380 fetch_issued: true event_cycle: 0 waits on -
[cpu0_LQ] entry:  60 instr_id: 44525108 address: 0xa0bb388 fetch_issued: true event_cycle: 0 waits on -
[cpu0_LQ] entry:  61 instr_id: 44525110 address: 0xa0bb360 fetch_issued: true event_cycle: 0 waits on -
[cpu0_LQ] entry:  62 instr_id: 44525112 address: 0xa0bb350 fetch_issued: true event_cycle: 0 waits on -
[cpu0_LQ] entry:  63 instr_id: 44525114 address: 0xa0bb390 fetch_issued: true event_cycle: 0 waits on -
[cpu0_LQ] entry:  64 instr_id: 44525152 address: 0xa0bb378 fetch_issued: true event_cycle: 0 waits on -
[cpu0_LQ] entry:  65 instr_id: 44525162 address: 0x28603020 fetch_issued: true event_cycle: 0 waits on -
[cpu0_LQ] entry:  66 instr_id: 44525163 address: 0x28d57010 fetch_issued: true event_cycle: 0 waits on -
[cpu0_LQ] entry:  67 instr_id: 44525164 address: 0x28603010 fetch_issued: true event_cycle: 0 waits on -
[cpu0_LQ] entry:  68 instr_id: 44525165 address: 0x28d57020 fetch_issued: true event_cycle: 0 waits on -
[cpu0_LQ] entry:  69 instr_id: 44525166 address: 0x28603030 fetch_issued: true event_cycle: 0 waits on -
[cpu0_LQ] entry:  70 instr_id: 44525170 address: 0x28d57030 fetch_issued: true event_cycle: 0 waits on -
[cpu0_LQ] entry:  71 instr_id: 44525173 address: 0xa0bb808 fetch_issued: true event_cycle: 0 waits on -
[cpu0_LQ] entry:  72 instr_id: 44525180 address: 0xa0bbb70 fetch_issued: true event_cycle: 0 waits on -
[cpu0_LQ] entry:  73 instr_id: 44525192 address: 0xa0bbb80 fetch_issued: true event_cycle: 0 waits on -
[cpu0_LQ] entry:  74 instr_id: 44525198 address: 0xa0bbb88 fetch_issued: true event_cycle: 0 waits on -
[cpu0_LQ] entry:  75 instr_id: 44525200 address: 0xa0bbb60 fetch_issued: true event_cycle: 0 waits on -
[cpu0_LQ] entry:  76 instr_id: 44525202 address: 0xa0bbb50 fetch_issued: true event_cycle: 0 waits on -
[cpu0_LQ] entry:  77 instr_id: 44525204 address: 0xa0bbb90 fetch_issued: true event_cycle: 0 waits on -
[cpu0_LQ] entry:  78 empty
[cpu0_LQ] entry:  79 empty
[cpu0_LQ] entry:  80 empty
[cpu0_LQ] entry:  81 empty
[cpu0_LQ] entry:  82 empty
[cpu0_LQ] entry:  83 empty
[cpu0_LQ] entry:  84 empty
[cpu0_LQ] entry:  85 empty
[cpu0_LQ] entry:  86 empty
[cpu0_LQ] entry:  87 empty
[cpu0_LQ] entry:  88 empty
[cpu0_LQ] entry:  89 empty
[cpu0_LQ] entry:  90 empty
[cpu0_LQ] entry:  91 empty
[cpu0_LQ] entry:  92 empty
[cpu0_LQ] entry:  93 empty
[cpu0_LQ] entry:  94 empty
[cpu0_LQ] entry:  95 empty
[cpu0_LQ] entry:  96 empty
[cpu0_LQ] entry:  97 empty
[cpu0_LQ] entry:  98 empty
[cpu0_LQ] entry:  99 empty
[cpu0_LQ] entry: 100 empty
[cpu0_LQ] entry: 101 empty
[cpu0_LQ] entry: 102 empty
[cpu0_LQ] entry: 103 empty
[cpu0_LQ] entry: 104 empty
[cpu0_LQ] entry: 105 empty
[cpu0_LQ] entry: 106 empty
[cpu0_LQ] entry: 107 empty
[cpu0_LQ] entry: 108 empty
[cpu0_LQ] entry: 109 empty
[cpu0_LQ] entry: 110 empty
[cpu0_LQ] entry: 111 empty
[cpu0_LQ] entry: 112 empty
[cpu0_LQ] entry: 113 empty
[cpu0_LQ] entry: 114 empty
[cpu0_LQ] entry: 115 empty
[cpu0_LQ] entry: 116 empty
[cpu0_LQ] entry: 117 empty
[cpu0_LQ] entry: 118 empty
[cpu0_LQ] entry: 119 empty
[cpu0_LQ] entry: 120 empty
[cpu0_LQ] entry: 121 empty
[cpu0_LQ] entry: 122 empty
[cpu0_LQ] entry: 123 empty
[cpu0_LQ] entry: 124 empty
[cpu0_LQ] entry: 125 empty
[cpu0_LQ] entry: 126 empty
[cpu0_LQ] entry: 127 empty
[cpu0_LQ] entry: 128 empty
[cpu0_LQ] entry: 129 empty
[cpu0_LQ] entry: 130 empty
[cpu0_LQ] entry: 131 empty
[cpu0_LQ] entry: 132 empty
[cpu0_LQ] entry: 133 empty
[cpu0_LQ] entry: 134 empty
[cpu0_LQ] entry: 135 empty
[cpu0_LQ] entry: 136 empty
[cpu0_LQ] entry: 137 empty
[cpu0_LQ] entry: 138 empty
[cpu0_LQ] entry: 139 empty
[cpu0_LQ] entry: 140 empty
[cpu0_LQ] entry: 141 empty
[cpu0_LQ] entry: 142 empty
[cpu0_LQ] entry: 143 empty
[cpu0_LQ] entry: 144 empty
[cpu0_LQ] entry: 145 empty
[cpu0_LQ] entry: 146 empty
[cpu0_LQ] entry: 147 empty
[cpu0_LQ] entry: 148 empty
[cpu0_LQ] entry: 149 empty
[cpu0_LQ] entry: 150 empty
[cpu0_LQ] entry: 151 empty
[cpu0_LQ] entry: 152 empty
[cpu0_LQ] entry: 153 empty
[cpu0_LQ] entry: 154 empty
[cpu0_LQ] entry: 155 empty
[cpu0_LQ] entry: 156 empty
[cpu0_LQ] entry: 157 empty
[cpu0_LQ] entry: 158 empty
[cpu0_LQ] entry: 159 empty
[cpu0_LQ] entry: 160 empty
[cpu0_LQ] entry: 161 empty
[cpu0_LQ] entry: 162 empty
[cpu0_LQ] entry: 163 empty
[cpu0_LQ] entry: 164 empty
[cpu0_LQ] entry: 165 empty
[cpu0_LQ] entry: 166 empty
[cpu0_LQ] entry: 167 empty
[cpu0_LQ] entry: 168 empty
[cpu0_LQ] entry: 169 empty
[cpu0_LQ] entry: 170 empty
[cpu0_LQ] entry: 171 empty
[cpu0_LQ] entry: 172 empty
[cpu0_LQ] entry: 173 empty
[cpu0_LQ] entry: 174 empty
[cpu0_LQ] entry: 175 empty
[cpu0_LQ] entry: 176 empty
[cpu0_LQ] entry: 177 empty
[cpu0_LQ] entry: 178 empty
[cpu0_LQ] entry: 179 empty
[cpu0_LQ] entry: 180 empty
[cpu0_LQ] entry: 181 empty
[cpu0_LQ] entry: 182 empty
[cpu0_LQ] entry: 183 empty
[cpu0_LQ] entry: 184 empty
[cpu0_LQ] entry: 185 empty
[cpu0_LQ] entry: 186 empty
[cpu0_LQ] entry: 187 empty
[cpu0_LQ] entry: 188 empty
[cpu0_LQ] entry: 189 empty
[cpu0_LQ] entry: 190 empty
[cpu0_LQ] entry: 191 empty

[cpu0_SQ] entry:   0 instr_id: 44524790 address: 0xa0b9380 fetch_issued: true event_cycle: 46157333 LQ waiting: []
[cpu0_SQ] entry:   1 instr_id: 44524791 address: 0xa0b9370 fetch_issued: true event_cycle: 46157333 LQ waiting: []
[cpu0_SQ] entry:   2 instr_id: 44524793 address: 0xa0b9350 fetch_issued: true event_cycle: 46157750 LQ waiting: []
[cpu0_SQ] entry:   3 instr_id: 44524794 address: 0xa0b9360 fetch_issued: true event_cycle: 46157750 LQ waiting: []
[cpu0_SQ] entry:   4 instr_id: 44524795 address: 0xa0b9390 fetch_issued: true event_cycle: 46157751 LQ waiting: []
[cpu0_SQ] entry:   5 instr_id: 44524799 address: 0xa0b9378 fetch_issued: true event_cycle: 46157751 LQ waiting: []
[cpu0_SQ] entry:   6 instr_id: 44524880 address: 0xa0b9b80 fetch_issued: true event_cycle: 46157764 LQ waiting: []
[cpu0_SQ] entry:   7 instr_id: 44524881 address: 0xa0b9b70 fetch_issued: true event_cycle: 46157764 LQ waiting: []
[cpu0_SQ] entry:   8 instr_id: 44524883 address: 0xa0b9b50 fetch_issued: true event_cycle: 46157805 LQ waiting: []
[cpu0_SQ] entry:   9 instr_id: 44524884 address: 0xa0b9b60 fetch_issued: true event_cycle: 46157805 LQ waiting: []
[cpu0_SQ] entry:  10 instr_id: 44524885 address: 0xa0b9b90 fetch_issued: true event_cycle: 46157806 LQ waiting: []
[cpu0_SQ] entry:  11 instr_id: 44524889 address: 0xa0b9b78 fetch_issued: true event_cycle: 46157806 LQ waiting: []
[cpu0_SQ] entry:  12 instr_id: 44524970 address: 0xa0ba380 fetch_issued: true event_cycle: 46157819 LQ waiting: []
[cpu0_SQ] entry:  13 instr_id: 44524971 address: 0xa0ba370 fetch_issued: true event_cycle: 46157819 LQ waiting: []
[cpu0_SQ] entry:  14 instr_id: 44524973 address: 0xa0ba350 fetch_issued: true event_cycle: 46157861 LQ waiting: []
[cpu0_SQ] entry:  15 instr_id: 44524974 address: 0xa0ba360 fetch_issued: true event_cycle: 46157861 LQ waiting: []
[cpu0_SQ] entry:  16 instr_id: 44524975 address: 0xa0ba390 fetch_issued: true event_cycle: 46157862 LQ waiting: []
[cpu0_SQ] entry:  17 instr_id: 44524979 address: 0xa0ba378 fetch_issued: true event_cycle: 46157862 LQ waiting: []
[cpu0_SQ] entry:  18 instr_id: 44525060 address: 0xa0bab80 fetch_issued: true event_cycle: 46158082 LQ waiting: []
[cpu0_SQ] entry:  19 instr_id: 44525061 address: 0xa0bab70 fetch_issued: true event_cycle: 46158083 LQ waiting: []
[cpu0_SQ] entry:  20 instr_id: 44525063 address: 0xa0bab50 fetch_issued: true event_cycle: 46158083 LQ waiting: []
[cpu0_SQ] entry:  21 instr_id: 44525064 address: 0xa0bab60 fetch_issued: true event_cycle: 46158084 LQ waiting: []
[cpu0_SQ] entry:  22 instr_id: 44525065 address: 0xa0bab90 fetch_issued: true event_cycle: 46158084 LQ waiting: []
[cpu0_SQ] entry:  23 instr_id: 44525069 address: 0xa0bab78 fetch_issued: true event_cycle: 46158085 LQ waiting: []
[cpu0_SQ] entry:  24 instr_id: 44525150 address: 0xa0bb380 fetch_issued: true event_cycle: 46158097 LQ waiting: []
[cpu0_SQ] entry:  25 instr_id: 44525151 address: 0xa0bb370 fetch_issued: true event_cycle: 46158098 LQ waiting: []
[cpu0_SQ] entry:  26 instr_id: 44525153 address: 0xa0bb350 fetch_issued: true event_cycle: 46158098 LQ waiting: []
[cpu0_SQ] entry:  27 instr_id: 44525154 address: 0xa0bb360 fetch_issued: true event_cycle: 46158099 LQ waiting: []
[cpu0_SQ] entry:  28 instr_id: 44525155 address: 0xa0bb390 fetch_issued: true event_cycle: 46158099 LQ waiting: []
[cpu0_SQ] entry:  29 instr_id: 44525159 address: 0xa0bb378 fetch_issued: true event_cycle: 46158100 LQ waiting: []

LLC_MSHR empty

LLC_tags empty

LLC_translation empty

LLC_RQ empty

LLC_WQ empty

LLC_PQ empty

[cpu0_DTLB_MSHR] entry:   0 instr_id: 44524750 address: 0xa0b9360 v_addr: 0xa0b9360 type: LOAD event: 18446744073709551615

cpu0_DTLB_tags empty

cpu0_DTLB_translation empty

cpu0_DTLB_RQ empty

cpu0_DTLB_WQ empty

cpu0_DTLB_PQ empty

cpu0_ITLB_MSHR empty

cpu0_ITLB_tags empty

cpu0_ITLB_translation empty

cpu0_ITLB_RQ empty

cpu0_ITLB_WQ empty

cpu0_ITLB_PQ empty

cpu0_L1D_MSHR empty

cpu0_L1D_tags empty

[cpu0_L1D_translation] entry:   0 instr_id: 0 address: 0xa0b9380 v_addr: 0xa0b9380 is_translated: false translate_issued: true event_cycle: 46154733
[cpu0_L1D_translation] entry:   1 instr_id: 0 address: 0xa0b9b40 v_addr: 0xa0b9b40 is_translated: false translate_issued: true event_cycle: 46155813
[cpu0_L1D_translation] entry:   2 instr_id: 0 address: 0xa0b9340 v_addr: 0xa0b9340 is_translated: false translate_issued: true event_cycle: 46155815
[cpu0_L1D_translation] entry:   3 instr_id: 0 address: 0xa0b9000 v_addr: 0xa0b9000 is_translated: false translate_issued: true event_cycle: 46155847
[cpu0_L1D_translation] entry:   4 instr_id: 0 address: 0xa0b9800 v_addr: 0xa0b9800 is_translated: false translate_issued: true event_cycle: 46155847
[cpu0_L1D_translation] entry:   5 instr_id: 0 address: 0xa0b9340 v_addr: 0xa0b9340 is_translated: false translate_issued: true event_cycle: 46155854
[cpu0_L1D_translation] entry:   6 instr_id: 0 address: 0xa0b9380 v_addr: 0xa0b9380 is_translated: false translate_issued: true event_cycle: 46155865
[cpu0_L1D_translation] entry:   7 instr_id: 0 address: 0xa0b9b80 v_addr: 0xa0b9b80 is_translated: false translate_issued: true event_cycle: 46155866
[cpu0_L1D_translation] entry:   8 instr_id: 0 address: 0xa0b9b40 v_addr: 0xa0b9b40 is_translated: false translate_issued: true event_cycle: 46155871
[cpu0_L1D_translation] entry:   9 instr_id: 0 address: 0xa0b9340 v_addr: 0xa0b9340 is_translated: false translate_issued: true event_cycle: 46155880
[cpu0_L1D_translation] entry:  10 instr_id: 0 address: 0xa0b9b40 v_addr: 0xa0b9b40 is_translated: false translate_issued: true event_cycle: 46155880
[cpu0_L1D_translation] entry:  11 instr_id: 0 address: 0xa0b9b40 v_addr: 0xa0b9b40 is_translated: false translate_issued: true event_cycle: 46156162
[cpu0_L1D_translation] entry:  12 instr_id: 44524723 address: 0xa0b9008 v_addr: 0xa0b9008 is_translated: false translate_issued: true event_cycle: 46157326
[cpu0_L1D_translation] entry:  13 instr_id: 44524730 address: 0xa0b9370 v_addr: 0xa0b9370 is_translated: false translate_issued: true event_cycle: 46157327
[cpu0_L1D_translation] entry:  14 instr_id: 44524742 address: 0xa0b9380 v_addr: 0xa0b9380 is_translated: false translate_issued: true event_cycle: 46157330
[cpu0_L1D_translation] entry:  15 instr_id: 44524750 address: 0xa0b9360 v_addr: 0xa0b9360 is_translated: false translate_issued: true event_cycle: 46157331
[cpu0_L1D_translation] entry:  16 instr_id: 44524754 address: 0xa0b9390 v_addr: 0xa0b9390 is_translated: false translate_issued: true event_cycle: 46157332

cpu0_L1D_RQ empty

cpu0_L1D_WQ empty

cpu0_L1D_PQ empty

[cpu0_L1D_RQ] entry:   0 instr_id: 44524792 address: 0xa0b9378 v_addr: 0xa0b9378 type: LOAD translated: false
[cpu0_L1D_RQ] entry:   1 instr_id: 44524802 address: 0x28602f60 v_addr: 0x28602f60 type: LOAD translated: false
[cpu0_L1D_RQ] entry:   2 instr_id: 44524803 address: 0x28d56f50 v_addr: 0x28d56f50 type: LOAD translated: false
[cpu0_L1D_RQ] entry:   3 instr_id: 44524813 address: 0xa0b9808 v_addr: 0xa0b9808 type: LOAD translated: false
[cpu0_L1D_RQ] entry:   4 instr_id: 44524820 address: 0xa0b9b70 v_addr: 0xa0b9b70 type: LOAD translated: false
[cpu0_L1D_RQ] entry:   5 instr_id: 44524832 address: 0xa0b9b80 v_addr: 0xa0b9b80 type: LOAD translated: false
[cpu0_L1D_RQ] entry:   6 instr_id: 44524892 address: 0x28602f90 v_addr: 0x28602f90 type: LOAD translated: false
[cpu0_L1D_RQ] entry:   7 instr_id: 44524893 address: 0x28d56f80 v_addr: 0x28d56f80 type: LOAD translated: false
[cpu0_L1D_RQ] entry:   8 instr_id: 44524903 address: 0xa0ba008 v_addr: 0xa0ba008 type: LOAD translated: false
[cpu0_L1D_RQ] entry:   9 instr_id: 44524910 address: 0xa0ba370 v_addr: 0xa0ba370 type: LOAD translated: false
[cpu0_L1D_RQ] entry:  10 instr_id: 44524922 address: 0xa0ba380 v_addr: 0xa0ba380 type: LOAD translated: false
[cpu0_L1D_RQ] entry:  11 instr_id: 44524982 address: 0x28602fc0 v_addr: 0x28602fc0 type: LOAD translated: false
[cpu0_L1D_RQ] entry:  12 instr_id: 44524985 address: 0x28d56fc0 v_addr: 0x28d56fc0 type: LOAD translated: false
[cpu0_L1D_RQ] entry:  13 instr_id: 44524993 address: 0xa0ba808 v_addr: 0xa0ba808 type: LOAD translated: false
[cpu0_L1D_RQ] entry:  14 instr_id: 44525000 address: 0xa0bab70 v_addr: 0xa0bab70 type: LOAD translated: false
[cpu0_L1D_RQ] entry:  15 instr_id: 44525012 address: 0xa0bab80 v_addr: 0xa0bab80 type: LOAD translated: false
[cpu0_L1D_RQ] entry:  16 instr_id: 44525076 address: 0x28603000 v_addr: 0x28603000 type: LOAD translated: false
[cpu0_L1D_RQ] entry:  17 instr_id: 44525080 address: 0x28d57000 v_addr: 0x28d57000 type: LOAD translated: false
[cpu0_L1D_RQ] entry:  18 instr_id: 44525083 address: 0xa0bb008 v_addr: 0xa0bb008 type: LOAD translated: false
[cpu0_L1D_RQ] entry:  19 instr_id: 44525090 address: 0xa0bb370 v_addr: 0xa0bb370 type: LOAD translated: false
[cpu0_L1D_RQ] entry:  20 instr_id: 44525102 address: 0xa0bb380 v_addr: 0xa0bb380 type: LOAD translated: false
[cpu0_L1D_RQ] entry:  21 instr_id: 44525173 address: 0xa0bb808 v_addr: 0xa0bb808 type: LOAD translated: false
[cpu0_L1D_RQ] entry:  22 instr_id: 44525180 address: 0xa0bbb70 v_addr: 0xa0bbb70 type: LOAD translated: false
[cpu0_L1D_RQ] entry:  23 instr_id: 44525192 address: 0xa0bbb80 v_addr: 0xa0bbb80 type: LOAD translated: false

[cpu0_L1D_WQ] entry:   0 instr_id: 44524340 address: 0xa0b6b80 v_addr: 0xa0b6b80 type: WRITE translated: false
[cpu0_L1D_WQ] entry:   1 instr_id: 44524341 address: 0xa0b6b70 v_addr: 0xa0b6b70 type: WRITE translated: false
[cpu0_L1D_WQ] entry:   2 instr_id: 44524343 address: 0xa0b6b50 v_addr: 0xa0b6b50 type: WRITE translated: false
[cpu0_L1D_WQ] entry:   3 instr_id: 44524344 address: 0xa0b6b60 v_addr: 0xa0b6b60 type: WRITE translated: false
[cpu0_L1D_WQ] entry:   4 instr_id: 44524345 address: 0xa0b6b90 v_addr: 0xa0b6b90 type: WRITE translated: false
[cpu0_L1D_WQ] entry:   5 instr_id: 44524349 address: 0xa0b6b78 v_addr: 0xa0b6b78 type: WRITE translated: false
[cpu0_L1D_WQ] entry:   6 instr_id: 44524430 address: 0xa0b7380 v_addr: 0xa0b7380 type: WRITE translated: false
[cpu0_L1D_WQ] entry:   7 instr_id: 44524431 address: 0xa0b7370 v_addr: 0xa0b7370 type: WRITE translated: false
[cpu0_L1D_WQ] entry:   8 instr_id: 44524433 address: 0xa0b7350 v_addr: 0xa0b7350 type: WRITE translated: false
[cpu0_L1D_WQ] entry:   9 instr_id: 44524434 address: 0xa0b7360 v_addr: 0xa0b7360 type: WRITE translated: false
[cpu0_L1D_WQ] entry:  10 instr_id: 44524435 address: 0xa0b7390 v_addr: 0xa0b7390 type: WRITE translated: false
[cpu0_L1D_WQ] entry:  11 instr_id: 44524439 address: 0xa0b7378 v_addr: 0xa0b7378 type: WRITE translated: false
[cpu0_L1D_WQ] entry:  12 instr_id: 44524520 address: 0xa0b7b80 v_addr: 0xa0b7b80 type: WRITE translated: false
[cpu0_L1D_WQ] entry:  13 instr_id: 44524521 address: 0xa0b7b70 v_addr: 0xa0b7b70 type: WRITE translated: false
[cpu0_L1D_WQ] entry:  14 instr_id: 44524523 address: 0xa0b7b50 v_addr: 0xa0b7b50 t