WARNING: physical memory size is smaller than virtual memory size.

*** ChampSim Multicore Out-of-Order Simulator ***
Warmup Instructions: 30000000
Simulation Instructions: 100000000
Number of CPUs: 1
Page size: 4096

BTB:
Basic BTB sets: 1024 ways: 8
Indirect:
history lengths: 0 0 10 16 27 44 60 96 109 219 449 487 714 1313 2146 3881 
ITTAGE tables: 64768 bytes;Region table: 240 bytes;IUM: 384 bytes;Total Storage= 65392 bytes;
RAS:
RAS size: 64
Berti Prefetcher
CPU 0 Entangling prefetcher
Off-chip DRAM Size: 8 GiB Channels: 2 Width: 64-bit Data Race: 6400 MT/s
Heartbeat CPU 0 instructions: 10000005 cycles: 1909272 heartbeat IPC: 5.238 cumulative IPC: 5.238 (Simulation time: 00 hr 00 min 48 sec)
Heartbeat CPU 0 instructions: 20000000 cycles: 3805937 heartbeat IPC: 5.272 cumulative IPC: 5.255 (Simulation time: 00 hr 01 min 32 sec)
Heartbeat CPU 0 instructions: 30000002 cycles: 5700329 heartbeat IPC: 5.279 cumulative IPC: 5.263 (Simulation time: 00 hr 02 min 14 sec)
Warmup finished CPU 0 instructions: 30000002 cycles: 5700330 cumulative IPC: 5.263 (Simulation time: 00 hr 02 min 14 sec)
Warmup complete CPU 0 instructions: 30000002 cycles: 5700330 cumulative IPC: 5.263 (Simulation time: 00 hr 02 min 14 sec)
Heartbeat CPU 0 instructions: 40000003 cycles: 22346252 heartbeat IPC: 0.6007 cumulative IPC: 0.6007 (Simulation time: 00 hr 05 min 30 sec)
Heartbeat CPU 0 instructions: 50000001 cycles: 35021266 heartbeat IPC: 0.789 cumulative IPC: 0.6821 (Simulation time: 00 hr 08 min 10 sec)
Heartbeat CPU 0 instructions: 60000000 cycles: 51985907 heartbeat IPC: 0.5895 cumulative IPC: 0.6482 (Simulation time: 00 hr 11 min 11 sec)
Heartbeat CPU 0 instructions: 70000011 cycles: 68390994 heartbeat IPC: 0.6096 cumulative IPC: 0.6381 (Simulation time: 00 hr 14 min 09 sec)
Heartbeat CPU 0 instructions: 80000002 cycles: 85130139 heartbeat IPC: 0.5974 cumulative IPC: 0.6295 (Simulation time: 00 hr 17 min 03 sec)
Heartbeat CPU 0 instructions: 90000003 cycles: 98389713 heartbeat IPC: 0.7542 cumulative IPC: 0.6473 (Simulation time: 00 hr 19 min 16 sec)
Heartbeat CPU 0 instructions: 100000002 cycles: 113086991 heartbeat IPC: 0.6804 cumulative IPC: 0.6519 (Simulation time: 00 hr 21 min 22 sec)
*** Reached end of trace: (0, "../traces/secret_traces/compute_fp/compute_fp_97.champsimtrace.xz")
Heartbeat CPU 0 instructions: 110000001 cycles: 130608368 heartbeat IPC: 0.5707 cumulative IPC: 0.6405 (Simulation time: 00 hr 24 min 04 sec)
Heartbeat CPU 0 instructions: 120000007 cycles: 146091609 heartbeat IPC: 0.6459 cumulative IPC: 0.6411 (Simulation time: 00 hr 26 min 24 sec)
Heartbeat CPU 0 instructions: 130000010 cycles: 160048159 heartbeat IPC: 0.7165 cumulative IPC: 0.6479 (Simulation time: 00 hr 28 min 28 sec)
Simulation finished CPU 0 instructions: 100000008 cycles: 154347830 cumulative IPC: 0.6479 (Simulation time: 00 hr 28 min 28 sec)
Simulation complete CPU 0 instructions: 100000008 cycles: 154347830 cumulative IPC: 0.6479 (Simulation time: 00 hr 28 min 28 sec)

ChampSim completed all CPUs

=== Simulation ===
CPU 0 runs ../traces/secret_traces/compute_fp/compute_fp_97.champsimtrace.xz
Region of Interest Statistics

CPU 0 cumulative IPC: 0.6479 instructions: 100000008 cycles: 154347830
CPU 0 Branch Prediction Accuracy: 93.25% MPKI: 11.98 Average ROB Occupancy at Mispredict: 36.52
Branch type MPKI
BRANCH_DIRECT_JUMP: 0.00894
BRANCH_INDIRECT: 0.199
BRANCH_CONDITIONAL: 11.7
BRANCH_DIRECT_CALL: 0.0222
BRANCH_INDIRECT_CALL: 0.00308
BRANCH_RETURN: 0.0124

LLC TOTAL        ACCESS:    6598936 HIT:    2804037 MISS:    3794899
LLC LOAD         ACCESS:    1528434 HIT:     475252 MISS:    1053182
LLC RFO          ACCESS:     882852 HIT:     187520 MISS:     695332
LLC PREFETCH     ACCESS:    2592612 HIT:     625433 MISS:    1967179
LLC WRITE        ACCESS:    1541993 HIT:    1505636 MISS:      36357
LLC TRANSLATION  ACCESS:      53045 HIT:      10196 MISS:      42849
LLC PREFETCH REQUESTED:          0 ISSUED:          0 USEFUL:          0 USELESS:          0
LLC AVERAGE MISS LATENCY: 497.7 cycles
cpu0_DTLB TOTAL        ACCESS:   26196286 HIT:   24795355 MISS:    1400931
cpu0_DTLB LOAD         ACCESS:   26196286 HIT:   24795355 MISS:    1400931
cpu0_DTLB RFO          ACCESS:          0 HIT:          0 MISS:          0
cpu0_DTLB PREFETCH     ACCESS:          0 HIT:          0 MISS:          0
cpu0_DTLB WRITE        ACCESS:          0 HIT:          0 MISS:          0
cpu0_DTLB TRANSLATION  ACCESS:          0 HIT:          0 MISS:          0
cpu0_DTLB PREFETCH REQUESTED:          0 ISSUED:          0 USEFUL:          0 USELESS:          0
cpu0_DTLB AVERAGE MISS LATENCY: 24.19 cycles
cpu0_ITLB TOTAL        ACCESS:     154887 HIT:     153199 MISS:       1688
cpu0_ITLB LOAD         ACCESS:     154887 HIT:     153199 MISS:       1688
cpu0_ITLB RFO          ACCESS:          0 HIT:          0 MISS:          0
cpu0_ITLB PREFETCH     ACCESS:          0 HIT:          0 MISS:          0
cpu0_ITLB WRITE        ACCESS:          0 HIT:          0 MISS:          0
cpu0_ITLB TRANSLATION  ACCESS:          0 HIT:          0 MISS:          0
cpu0_ITLB PREFETCH REQUESTED:          0 ISSUED:          0 USEFUL:          0 USELESS:          0
cpu0_ITLB AVERAGE MISS LATENCY: 65.19 cycles
cpu0_L1D TOTAL        ACCESS:   42971401 HIT:   30573018 MISS:   12398383
cpu0_L1D LOAD         ACCESS:   15708850 HIT:   11068848 MISS:    4640002
cpu0_L1D RFO          ACCESS:          0 HIT:          0 MISS:          0
cpu0_L1D PREFETCH     ACCESS:   17693564 HIT:   13129751 MISS:    4563813
cpu0_L1D WRITE        ACCESS:    9436325 HIT:    6342431 MISS:    3093894
cpu0_L1D TRANSLATION  ACCESS:     132662 HIT:      31988 MISS:     100674
cpu0_L1D PREFETCH REQUESTED:   64702534 ISSUED:   17693585 USEFUL:     494628 USELESS:     119117
cpu0_L1D AVERAGE MISS LATENCY: 86.1 cycles
cpu0_L1I TOTAL        ACCESS:     226872 HIT:     185770 MISS:      41102
cpu0_L1I LOAD         ACCESS:      74845 HIT:      64372 MISS:      10473
cpu0_L1I RFO          ACCESS:          0 HIT:          0 MISS:          0
cpu0_L1I PREFETCH     ACCESS:     152027 HIT:     121398 MISS:      30629
cpu0_L1I WRITE        ACCESS:          0 HIT:          0 MISS:          0
cpu0_L1I TRANSLATION  ACCESS:          0 HIT:          0 MISS:          0
cpu0_L1I PREFETCH REQUESTED:     214969 ISSUED:     152027 USEFUL:      18007 USELESS:      10574
cpu0_L1I AVERAGE MISS LATENCY: 132.4 cycles
cpu0_L2C TOTAL        ACCESS:   18604014 HIT:   11013169 MISS:    7590845
cpu0_L2C LOAD         ACCESS:    3568599 HIT:    1851373 MISS:    1717226
cpu0_L2C RFO          ACCESS:    1221409 HIT:     338463 MISS:     882946
cpu0_L2C PREFETCH     ACCESS:   11370720 HIT:    6433147 MISS:    4937573
cpu0_L2C WRITE        ACCESS:    2343901 HIT:    2343846 MISS:         55
cpu0_L2C TRANSLATION  ACCESS:      99385 HIT:      46340 MISS:      53045
cpu0_L2C PREFETCH REQUESTED:    8103559 ISSUED:    7311468 USEFUL:     779774 USELESS:    1010872
cpu0_L2C AVERAGE MISS LATENCY: 257.7 cycles
cpu0_STLB TOTAL        ACCESS:     953880 HIT:     822478 MISS:     131402
cpu0_STLB LOAD         ACCESS:     953880 HIT:     822478 MISS:     131402
cpu0_STLB RFO          ACCESS:          0 HIT:          0 MISS:          0
cpu0_STLB PREFETCH     ACCESS:          0 HIT:          0 MISS:          0
cpu0_STLB WRITE        ACCESS:          0 HIT:          0 MISS:          0
cpu0_STLB TRANSLATION  ACCESS:          0 HIT:          0 MISS:          0
cpu0_STLB PREFETCH REQUESTED:          0 ISSUED:          0 USEFUL:          0 USELESS:          0
cpu0_STLB AVERAGE MISS LATENCY: 231.9 cycles

DRAM Statistics

Channel 0 RQ ROW_BUFFER_HIT:     559321
  ROW_BUFFER_MISS:    1323210
 AVG DBUS CONGESTED CYCLE: 3.954
WQ ROW_BUFFER_HIT: Channel 0 
  ROW_BUFFER_MISS:      48753
  FULL:     560845

Channel 1 RQ ROW_BUFFER_HIT:     559069
  ROW_BUFFER_MISS:    1311904
 AVG DBUS CONGESTED CYCLE: 3.951
WQ ROW_BUFFER_HIT: Channel 1 
  ROW_BUFFER_MISS:      49689
  FULL:     559767
BERTI TO_L1: 31602438 TO_L2: 44583277 TO_L2_BC_MSHR: 16324341
BERTI AVG_LAT: 178.927 NUM_TRACK_LATENCY: 5370285 NUM_CANT_TRACK_LATENCY: 1134
BERTI CROSS_PAGE 10160509 NO_CROSS_PAGE: 66025206
BERTI FOUND_BERTI: 40910037 NO_FOUND_BERTI: 4432764
BERTI AVERAGE_ISSUED: 3.96209
CPU 0 L1I Entangling prefetcher final stats
IP accesses: 8ba 22e80 634 / 86524
IP misses: 8ba 22e80 595 / 22152
IP hits: 0 0 0 / 0
IP late: 5aed 16bb40 18 / 5064
IP wrong: 5aef 16bbc0 25 / 10513
miss rate: 0.256022
coverage: 0
coverage_late: 0.228603
accuracy: 0
accuracy_late: 0.325095
discarded: 0
evicts entangled j table: 0
evicts entangled k table: 1447
max bb size: 65
formats: 368 0 1367 740 332 692 0 
hist_lookups: 1245 1285 1018 834 721 618 504 376 296 238 174 112 83 38 26 0 12 3230 
hist_lookups_evict: 0.111009 %
hist_lookups_shortlat: 29.8798 %
bb_found_hist: 0 16546 8058 3931 1619 832 352 261 191 64 91 77 12 23 7 0 17 0 0 0 0 0 1 0 0 0 0 0 0 0 0 0 0 0 0 0 0 0 0 0 0 0 0 0 0 0 0 0 0 2 0 0 0 0 0 0 0 0 0 0 0 0 0 0 
bb_found_summary: 63824 32084 1.98928
entangled_found_hist: 0 9587 6129 9914 3409 369 46 0 
entangled_found_summary: 67344 29454 2.28642
bb_ent_found_hist: 0 21649 12241 6151 2605 1744 754 382 444 589 56 133 0 8 5 0 0 0 0 0 0 0 0 0 0 0 0 0 0 0 0 0 0 0 0 0 0 0 0 0 0 0 0 0 0 0 0 0 0 4 0 0 0 0 0 0 0 0 0 0 0 0 0 0 
bb_ent_found_summary: 102168 46765 2.18472
