WARNING: physical memory size is smaller than virtual memory size.

*** ChampSim Multicore Out-of-Order Simulator ***
Warmup Instructions: 30000000
Simulation Instructions: 100000000
Number of CPUs: 1
Page size: 4096

BTB:
Basic BTB sets: 1024 ways: 8
Indirect:
history lengths: 0 0 10 16 27 44 60 96 109 219 449 487 714 1313 2146 3881 
ITTAGE tables: 64768 bytes;Region table: 240 bytes;IUM: 384 bytes;Total Storage= 65392 bytes;
RAS:
RAS size: 64
Berti Prefetcher
CPU 0 Entangling prefetcher
Off-chip DRAM Size: 8 GiB Channels: 2 Width: 64-bit Data Race: 6400 MT/s
Heartbeat CPU 0 instructions: 10000009 cycles: 1908244 heartbeat IPC: 5.24 cumulative IPC: 5.24 (Simulation time: 00 hr 00 min 49 sec)
Heartbeat CPU 0 instructions: 20000009 cycles: 3887628 heartbeat IPC: 5.052 cumulative IPC: 5.145 (Simulation time: 00 hr 01 min 46 sec)
Heartbeat CPU 0 instructions: 30000004 cycles: 5815916 heartbeat IPC: 5.186 cumulative IPC: 5.158 (Simulation time: 00 hr 02 min 53 sec)
Warmup finished CPU 0 instructions: 30000004 cycles: 5815917 cumulative IPC: 5.158 (Simulation time: 00 hr 02 min 53 sec)
Warmup complete CPU 0 instructions: 30000004 cycles: 5815917 cumulative IPC: 5.158 (Simulation time: 00 hr 02 min 53 sec)
Heartbeat CPU 0 instructions: 40000002 cycles: 19913919 heartbeat IPC: 0.7093 cumulative IPC: 0.7093 (Simulation time: 00 hr 05 min 54 sec)
Heartbeat CPU 0 instructions: 50000003 cycles: 34771226 heartbeat IPC: 0.6731 cumulative IPC: 0.6907 (Simulation time: 00 hr 08 min 50 sec)
Heartbeat CPU 0 instructions: 60000005 cycles: 49500847 heartbeat IPC: 0.6789 cumulative IPC: 0.6867 (Simulation time: 00 hr 11 min 40 sec)
[cpu0_PTW_MSHR] entry:   0 address: 0x374a000 v_addr: 0x48f9000 translation_level: 0 event_cycle: 18446744073709551615

DRAM Channel 0
[RQ] entry:   0 empty
[RQ] entry:   1 empty
[RQ] entry:   2 empty
[RQ] entry:   3 empty
[RQ] entry:   4 empty
[RQ] entry:   5 empty
[RQ] entry:   6 empty
[RQ] entry:   7 empty
[RQ] entry:   8 empty
[RQ] entry:   9 empty
[RQ] entry:  10 empty
[RQ] entry:  11 empty
[RQ] entry:  12 empty
[RQ] entry:  13 empty
[RQ] entry:  14 empty
[RQ] entry:  15 empty
[RQ] entry:  16 empty
[RQ] entry:  17 empty
[RQ] entry:  18 empty
[RQ] entry:  19 empty
[RQ] entry:  20 empty
[RQ] entry:  21 empty
[RQ] entry:  22 empty
[RQ] entry:  23 empty
[RQ] entry:  24 empty
[RQ] entry:  25 empty
[RQ] entry:  26 empty
[RQ] entry:  27 empty
[RQ] entry:  28 empty
[RQ] entry:  29 empty
[RQ] entry:  30 empty
[RQ] entry:  31 empty
[RQ] entry:  32 empty
[RQ] entry:  33 empty
[RQ] entry:  34 empty
[RQ] entry:  35 empty
[RQ] entry:  36 empty
[RQ] entry:  37 empty
[RQ] entry:  38 empty
[RQ] entry:  39 empty
[RQ] entry:  40 empty
[RQ] entry:  41 empty
[RQ] entry:  42 empty
[RQ] entry:  43 empty
[RQ] entry:  44 empty
[RQ] entry:  45 empty
[RQ] entry:  46 empty
[RQ] entry:  47 empty
[RQ] entry:  48 empty
[RQ] entry:  49 empty
[RQ] entry:  50 empty
[RQ] entry:  51 empty
[RQ] entry:  52 empty
[RQ] entry:  53 empty
[RQ] entry:  54 empty
[RQ] entry:  55 empty
[RQ] entry:  56 empty
[RQ] entry:  57 empty
[RQ] entry:  58 empty
[RQ] entry:  59 empty
[RQ] entry:  60 empty
[RQ] entry:  61 empty
[RQ] entry:  62 empty
[RQ] entry:  63 empty

[WQ] entry:   0 empty
[WQ] entry:   1 empty
[WQ] entry:   2 empty
[WQ] entry:   3 empty
[WQ] entry:   4 empty
[WQ] entry:   5 empty
[WQ] entry:   6 empty
[WQ] entry:   7 empty
[WQ] entry:   8 empty
[WQ] entry:   9 empty
[WQ] entry:  10 empty
[WQ] entry:  11 empty
[WQ] entry:  12 empty
[WQ] entry:  13 empty
[WQ] entry:  14 empty
[WQ] entry:  15 empty
[WQ] entry:  16 empty
[WQ] entry:  17 empty
[WQ] entry:  18 empty
[WQ] entry:  19 empty
[WQ] entry:  20 empty
[WQ] entry:  21 empty
[WQ] entry:  22 empty
[WQ] entry:  23 empty
[WQ] entry:  24 empty
[WQ] entry:  25 empty
[WQ] entry:  26 empty
[WQ] entry:  27 empty
[WQ] entry:  28 empty
[WQ] entry:  29 empty
[WQ] entry:  30 empty
[WQ] entry:  31 empty
[WQ] entry:  32 empty
[WQ] entry:  33 empty
[WQ] entry:  34 empty
[WQ] entry:  35 empty
[WQ] entry:  36 empty
[WQ] entry:  37 empty
[WQ] entry:  38 empty
[WQ] entry:  39 empty
[WQ] entry:  40 empty
[WQ] entry:  41 empty
[WQ] entry:  42 empty
[WQ] entry:  43 empty
[WQ] entry:  44 empty
[WQ] entry:  45 empty
[WQ] entry:  46 empty
[WQ] entry:  47 empty
[WQ] entry:  48 empty
[WQ] entry:  49 empty
[WQ] entry:  50 empty
[WQ] entry:  51 empty
[WQ] entry:  52 empty
[WQ] entry:  53 empty
[WQ] entry:  54 empty
[WQ] entry:  55 empty
[WQ] entry:  56 empty
[WQ] entry:  57 empty
[WQ] entry:  58 empty
[WQ] entry:  59 empty
[WQ] entry:  60 empty
[WQ] entry:  61 empty
[WQ] entry:  62 empty
[WQ] entry:  63 empty

DRAM Channel 1
[RQ] entry:   0 empty
[RQ] entry:   1 empty
[RQ] entry:   2 empty
[RQ] entry:   3 empty
[RQ] entry:   4 empty
[RQ] entry:   5 empty
[RQ] entry:   6 empty
[RQ] entry:   7 empty
[RQ] entry:   8 empty
[RQ] entry:   9 empty
[RQ] entry:  10 empty
[RQ] entry:  11 empty
[RQ] entry:  12 empty
[RQ] entry:  13 empty
[RQ] entry:  14 empty
[RQ] entry:  15 empty
[RQ] entry:  16 empty
[RQ] entry:  17 empty
[RQ] entry:  18 empty
[RQ] entry:  19 empty
[RQ] entry:  20 empty
[RQ] entry:  21 empty
[RQ] entry:  22 empty
[RQ] entry:  23 empty
[RQ] entry:  24 empty
[RQ] entry:  25 empty
[RQ] entry:  26 empty
[RQ] entry:  27 empty
[RQ] entry:  28 empty
[RQ] entry:  29 empty
[RQ] entry:  30 empty
[RQ] entry:  31 empty
[RQ] entry:  32 empty
[RQ] entry:  33 empty
[RQ] entry:  34 empty
[RQ] entry:  35 empty
[RQ] entry:  36 empty
[RQ] entry:  37 empty
[RQ] entry:  38 empty
[RQ] entry:  39 empty
[RQ] entry:  40 empty
[RQ] entry:  41 empty
[RQ] entry:  42 empty
[RQ] entry:  43 empty
[RQ] entry:  44 empty
[RQ] entry:  45 empty
[RQ] entry:  46 empty
[RQ] entry:  47 empty
[RQ] entry:  48 empty
[RQ] entry:  49 empty
[RQ] entry:  50 empty
[RQ] entry:  51 empty
[RQ] entry:  52 empty
[RQ] entry:  53 empty
[RQ] entry:  54 empty
[RQ] entry:  55 empty
[RQ] entry:  56 empty
[RQ] entry:  57 empty
[RQ] entry:  58 empty
[RQ] entry:  59 empty
[RQ] entry:  60 empty
[RQ] entry:  61 empty
[RQ] entry:  62 empty
[RQ] entry:  63 empty

[WQ] entry:   0 empty
[WQ] entry:   1 empty
[WQ] entry:   2 empty
[WQ] entry:   3 empty
[WQ] entry:   4 empty
[WQ] entry:   5 empty
[WQ] entry:   6 empty
[WQ] entry:   7 empty
[WQ] entry:   8 empty
[WQ] entry:   9 empty
[WQ] entry:  10 empty
[WQ] entry:  11 empty
[WQ] entry:  12 empty
[WQ] entry:  13 empty
[WQ] entry:  14 empty
[WQ] entry:  15 empty
[WQ] entry:  16 empty
[WQ] entry:  17 empty
[WQ] entry:  18 empty
[WQ] entry:  19 empty
[WQ] entry:  20 empty
[WQ] entry:  21 empty
[WQ] entry:  22 empty
[WQ] entry:  23 empty
[WQ] entry:  24 empty
[WQ] entry:  25 empty
[WQ] entry:  26 empty
[WQ] entry:  27 empty
[WQ] entry:  28 empty
[WQ] entry:  29 empty
[WQ] entry:  30 empty
[WQ] entry:  31 empty
[WQ] entry:  32 empty
[WQ] entry:  33 empty
[WQ] entry:  34 empty
[WQ] entry:  35 empty
[WQ] entry:  36 empty
[WQ] entry:  37 empty
[WQ] entry:  38 empty
[WQ] entry:  39 empty
[WQ] entry:  40 empty
[WQ] entry:  41 empty
[WQ] entry:  42 empty
[WQ] entry:  43 empty
[WQ] entry:  44 empty
[WQ] entry:  45 empty
[WQ] entry:  46 empty
[WQ] entry:  47 empty
[WQ] entry:  48 empty
[WQ] entry:  49 empty
[WQ] entry:  50 empty
[WQ] entry:  51 empty
[WQ] entry:  52 empty
[WQ] entry:  53 empty
[WQ] entry:  54 empty
[WQ] entry:  55 empty
[WQ] entry:  56 empty
[WQ] entry:  57 empty
[WQ] entry:  58 empty
[WQ] entry:  59 empty
[WQ] entry:  60 empty
[WQ] entry:  61 empty
[WQ] entry:  62 empty
[WQ] entry:  63 empty

DEADLOCK! CPU 0 cycle 65224044
[cpu0_IFETCH] entry:   0 instr_id: 69537992 fetched: 2 scheduled: 0 executed: 0 num_reg_dependent: 0 num_mem_ops: 0 event: 65220096
[cpu0_IFETCH] entry:   1 instr_id: 69537993 fetched: 2 scheduled: 0 executed: 0 num_reg_dependent: 0 num_mem_ops: 1 event: 65220097
[cpu0_IFETCH] entry:   2 instr_id: 69537994 fetched: 2 scheduled: 0 executed: 0 num_reg_dependent: 0 num_mem_ops: 0 event: 65220097
[cpu0_IFETCH] entry:   3 instr_id: 69537995 fetched: 2 scheduled: 0 executed: 0 num_reg_dependent: 0 num_mem_ops: 0 event: 65220097
[cpu0_IFETCH] entry:   4 instr_id: 69537996 fetched: 2 scheduled: 0 executed: 0 num_reg_dependent: 0 num_mem_ops: 2 event: 65220097
[cpu0_IFETCH] entry:   5 instr_id: 69537997 fetched: 2 scheduled: 0 executed: 0 num_reg_dependent: 0 num_mem_ops: 1 event: 65220097
[cpu0_IFETCH] entry:   6 instr_id: 69537998 fetched: 2 scheduled: 0 executed: 0 num_reg_dependent: 0 num_mem_ops: 2 event: 65220099
[cpu0_IFETCH] entry:   7 instr_id: 69537999 fetched: 2 scheduled: 0 executed: 0 num_reg_dependent: 0 num_mem_ops: 2 event: 65220099
[cpu0_IFETCH] entry:   8 instr_id: 69538000 fetched: 2 scheduled: 0 executed: 0 num_reg_dependent: 0 num_mem_ops: 0 event: 65220099
[cpu0_IFETCH] entry:   9 instr_id: 69538001 fetched: 2 scheduled: 0 executed: 0 num_reg_dependent: 0 num_mem_ops: 0 event: 65220099
[cpu0_IFETCH] entry:  10 instr_id: 69538002 fetched: 2 scheduled: 0 executed: 0 num_reg_dependent: 0 num_mem_ops: 1 event: 65220100
[cpu0_IFETCH] entry:  11 instr_id: 69538003 fetched: 2 scheduled: 0 executed: 0 num_reg_dependent: 0 num_mem_ops: 0 event: 65220100
[cpu0_IFETCH] entry:  12 instr_id: 69538004 fetched: 2 scheduled: 0 executed: 0 num_reg_dependent: 0 num_mem_ops: 0 event: 65220100
[cpu0_IFETCH] entry:  13 instr_id: 69538005 fetched: 2 scheduled: 0 executed: 0 num_reg_dependent: 0 num_mem_ops: 1 event: 65220100
[cpu0_IFETCH] entry:  14 instr_id: 69538006 fetched: 2 scheduled: 0 executed: 0 num_reg_dependent: 0 num_mem_ops: 1 event: 65220102
[cpu0_IFETCH] entry:  15 instr_id: 69538007 fetched: 2 scheduled: 0 executed: 0 num_reg_dependent: 0 num_mem_ops: 1 event: 65220104
[cpu0_IFETCH] entry:  16 instr_id: 69538008 fetched: 2 scheduled: 0 executed: 0 num_reg_dependent: 0 num_mem_ops: 1 event: 65220104
[cpu0_IFETCH] entry:  17 instr_id: 69538009 fetched: 2 scheduled: 0 executed: 0 num_reg_dependent: 0 num_mem_ops: 0 event: 65220104
[cpu0_IFETCH] entry:  18 instr_id: 69538010 fetched: 2 scheduled: 0 executed: 0 num_reg_dependent: 0 num_mem_ops: 0 event: 65220104
[cpu0_IFETCH] entry:  19 instr_id: 69538011 fetched: 2 scheduled: 0 executed: 0 num_reg_dependent: 0 num_mem_ops: 1 event: 65220105
[cpu0_IFETCH] entry:  20 instr_id: 69538012 fetched: 2 scheduled: 0 executed: 0 num_reg_dependent: 0 num_mem_ops: 0 event: 65220105
[cpu0_IFETCH] entry:  21 instr_id: 69538013 fetched: 2 scheduled: 0 executed: 0 num_reg_dependent: 0 num_mem_ops: 0 event: 65220106
[cpu0_IFETCH] entry:  22 instr_id: 69538014 fetched: 2 scheduled: 0 executed: 0 num_reg_dependent: 0 num_mem_ops: 1 event: 65220106
[cpu0_IFETCH] entry:  23 instr_id: 69538015 fetched: 2 scheduled: 0 executed: 0 num_reg_dependent: 0 num_mem_ops: 1 event: 65220106
[cpu0_IFETCH] entry:  24 instr_id: 69538016 fetched: 2 scheduled: 0 executed: 0 num_reg_dependent: 0 num_mem_ops: 1 event: 65220108
[cpu0_IFETCH] entry:  25 instr_id: 69538017 fetched: 2 scheduled: 0 executed: 0 num_reg_dependent: 0 num_mem_ops: 1 event: 65220108
[cpu0_IFETCH] entry:  26 instr_id: 69538018 fetched: 2 scheduled: 0 executed: 0 num_reg_dependent: 0 num_mem_ops: 0 event: 65220108
[cpu0_IFETCH] entry:  27 instr_id: 69538019 fetched: 2 scheduled: 0 executed: 0 num_reg_dependent: 0 num_mem_ops: 0 event: 65220108
[cpu0_IFETCH] entry:  28 instr_id: 69538020 fetched: 2 scheduled: 0 executed: 0 num_reg_dependent: 0 num_mem_ops: 1 event: 65220109
[cpu0_IFETCH] entry:  29 instr_id: 69538021 fetched: 2 scheduled: 0 executed: 0 num_reg_dependent: 0 num_mem_ops: 0 event: 65220109
[cpu0_IFETCH] entry:  30 instr_id: 69538022 fetched: 2 scheduled: 0 executed: 0 num_reg_dependent: 0 num_mem_ops: 0 event: 65220109
[cpu0_IFETCH] entry:  31 instr_id: 69538023 fetched: 2 scheduled: 0 executed: 0 num_reg_dependent: 0 num_mem_ops: 1 event: 65220109
[cpu0_IFETCH] entry:  32 instr_id: 69538024 fetched: 2 scheduled: 0 executed: 0 num_reg_dependent: 0 num_mem_ops: 1 event: 65220109
[cpu0_IFETCH] entry:  33 instr_id: 69538025 fetched: 2 scheduled: 0 executed: 0 num_reg_dependent: 0 num_mem_ops: 1 event: 65220111
[cpu0_IFETCH] entry:  34 instr_id: 69538026 fetched: 2 scheduled: 0 executed: 0 num_reg_dependent: 0 num_mem_ops: 1 event: 65220111
[cpu0_IFETCH] entry:  35 instr_id: 69538027 fetched: 2 scheduled: 0 executed: 0 num_reg_dependent: 0 num_mem_ops: 0 event: 65220111
[cpu0_IFETCH] entry:  36 instr_id: 69538028 fetched: 2 scheduled: 0 executed: 0 num_reg_dependent: 0 num_mem_ops: 0 event: 65220111
[cpu0_IFETCH] entry:  37 instr_id: 69538029 fetched: 2 scheduled: 0 executed: 0 num_reg_dependent: 0 num_mem_ops: 1 event: 65220112
[cpu0_IFETCH] entry:  38 instr_id: 69538030 fetched: 2 scheduled: 0 executed: 0 num_reg_dependent: 0 num_mem_ops: 0 event: 65220112
[cpu0_IFETCH] entry:  39 instr_id: 69538031 fetched: 2 scheduled: 0 executed: 0 num_reg_dependent: 0 num_mem_ops: 0 event: 65220112
[cpu0_IFETCH] entry:  40 instr_id: 69538032 fetched: 2 scheduled: 0 executed: 0 num_reg_dependent: 0 num_mem_ops: 2 event: 65220112
[cpu0_IFETCH] entry:  41 instr_id: 69538033 fetched: 2 scheduled: 0 executed: 0 num_reg_dependent: 0 num_mem_ops: 1 event: 65220112
[cpu0_IFETCH] entry:  42 instr_id: 69538034 fetched: 2 scheduled: 0 executed: 0 num_reg_dependent: 0 num_mem_ops: 2 event: 65220114
[cpu0_IFETCH] entry:  43 instr_id: 69538035 fetched: 2 scheduled: 0 executed: 0 num_reg_dependent: 0 num_mem_ops: 2 event: 65220114
[cpu0_IFETCH] entry:  44 instr_id: 69538036 fetched: 2 scheduled: 0 executed: 0 num_reg_dependent: 0 num_mem_ops: 0 event: 65220114
[cpu0_IFETCH] entry:  45 instr_id: 69538037 fetched: 2 scheduled: 0 executed: 0 num_reg_dependent: 0 num_mem_ops: 0 event: 65220114
[cpu0_IFETCH] entry:  46 instr_id: 69538038 fetched: 2 scheduled: 0 executed: 0 num_reg_dependent: 0 num_mem_ops: 1 event: 65220115
[cpu0_IFETCH] entry:  47 instr_id: 69538039 fetched: 2 scheduled: 0 executed: 0 num_reg_dependent: 0 num_mem_ops: 0 event: 65220115
[cpu0_IFETCH] entry:  48 instr_id: 69538040 fetched: 2 scheduled: 0 executed: 0 num_reg_dependent: 0 num_mem_ops: 0 event: 65220115
[cpu0_IFETCH] entry:  49 instr_id: 69538041 fetched: 2 scheduled: 0 executed: 0 num_reg_dependent: 0 num_mem_ops: 1 event: 65220115
[cpu0_IFETCH] entry:  50 instr_id: 69538042 fetched: 2 scheduled: 0 executed: 0 num_reg_dependent: 0 num_mem_ops: 1 event: 65220117
[cpu0_IFETCH] entry:  51 instr_id: 69538043 fetched: 2 scheduled: 0 executed: 0 num_reg_dependent: 0 num_mem_ops: 1 event: 65220119
[cpu0_IFETCH] entry:  52 instr_id: 69538044 fetched: 2 scheduled: 0 executed: 0 num_reg_dependent: 0 num_mem_ops: 1 event: 65220119
[cpu0_IFETCH] entry:  53 instr_id: 69538045 fetched: 2 scheduled: 0 executed: 0 num_reg_dependent: 0 num_mem_ops: 0 event: 65220119
[cpu0_IFETCH] entry:  54 instr_id: 69538046 fetched: 2 scheduled: 0 executed: 0 num_reg_dependent: 0 num_mem_ops: 0 event: 65220119
[cpu0_IFETCH] entry:  55 instr_id: 69538047 fetched: 2 scheduled: 0 executed: 0 num_reg_dependent: 0 num_mem_ops: 1 event: 65220120
[cpu0_IFETCH] entry:  56 instr_id: 69538048 fetched: 2 scheduled: 0 executed: 0 num_reg_dependent: 0 num_mem_ops: 0 event: 65220120
[cpu0_IFETCH] entry:  57 instr_id: 69538049 fetched: 2 scheduled: 0 executed: 0 num_reg_dependent: 0 num_mem_ops: 0 event: 65220121
[cpu0_IFETCH] entry:  58 instr_id: 69538050 fetched: 2 scheduled: 0 executed: 0 num_reg_dependent: 0 num_mem_ops: 1 event: 65220121
[cpu0_IFETCH] entry:  59 instr_id: 69538051 fetched: 2 scheduled: 0 executed: 0 num_reg_dependent: 0 num_mem_ops: 1 event: 65220121
[cpu0_IFETCH] entry:  60 instr_id: 69538052 fetched: 2 scheduled: 0 executed: 0 num_reg_dependent: 0 num_mem_ops: 1 event: 65220123
[cpu0_IFETCH] entry:  61 instr_id: 69538053 fetched: 2 scheduled: 0 executed: 0 num_reg_dependent: 0 num_mem_ops: 1 event: 65220123
[cpu0_IFETCH] entry:  62 instr_id: 69538054 fetched: 2 scheduled: 0 executed: 0 num_reg_dependent: 0 num_mem_ops: 0 event: 65220123
[cpu0_IFETCH] entry:  63 instr_id: 69538055 fetched: 2 scheduled: 0 executed: 0 num_reg_dependent: 0 num_mem_ops: 0 event: 65220123
[cpu0_IFETCH] entry:  64 instr_id: 69538056 fetched: 2 scheduled: 0 executed: 0 num_reg_dependent: 0 num_mem_ops: 1 event: 65220124
[cpu0_IFETCH] entry:  65 instr_id: 69538057 fetched: 2 scheduled: 0 executed: 0 num_reg_dependent: 0 num_mem_ops: 0 event: 65220124
[cpu0_IFETCH] entry:  66 instr_id: 69538058 fetched: 2 scheduled: 0 executed: 0 num_reg_dependent: 0 num_mem_ops: 0 event: 65220124
[cpu0_IFETCH] entry:  67 instr_id: 69538059 fetched: 2 scheduled: 0 executed: 0 num_reg_dependent: 0 num_mem_ops: 1 event: 65220124
[cpu0_IFETCH] entry:  68 instr_id: 69538060 fetched: 2 scheduled: 0 executed: 0 num_reg_dependent: 0 num_mem_ops: 1 event: 65220124
[cpu0_IFETCH] entry:  69 instr_id: 69538061 fetched: 2 scheduled: 0 executed: 0 num_reg_dependent: 0 num_mem_ops: 1 event: 65220126
[cpu0_IFETCH] entry:  70 instr_id: 69538062 fetched: 2 scheduled: 0 executed: 0 num_reg_dependent: 0 num_mem_ops: 1 event: 65220126
[cpu0_IFETCH] entry:  71 instr_id: 69538063 fetched: 2 scheduled: 0 executed: 0 num_reg_dependent: 0 num_mem_ops: 0 event: 65220126
[cpu0_IFETCH] entry:  72 instr_id: 69538064 fetched: 2 scheduled: 0 executed: 0 num_reg_dependent: 0 num_mem_ops: 0 event: 65220126
[cpu0_IFETCH] entry:  73 instr_id: 69538065 fetched: 2 scheduled: 0 executed: 0 num_reg_dependent: 0 num_mem_ops: 1 event: 65220127
[cpu0_IFETCH] entry:  74 instr_id: 69538066 fetched: 2 scheduled: 0 executed: 0 num_reg_dependent: 0 num_mem_ops: 0 event: 65220127
[cpu0_IFETCH] entry:  75 instr_id: 69538067 fetched: 2 scheduled: 0 executed: 0 num_reg_dependent: 0 num_mem_ops: 0 event: 65220127
[cpu0_IFETCH] entry:  76 instr_id: 69538068 fetched: 2 scheduled: 0 executed: 0 num_reg_dependent: 0 num_mem_ops: 2 event: 65220127
[cpu0_IFETCH] entry:  77 instr_id: 69538069 fetched: 2 scheduled: 0 executed: 0 num_reg_dependent: 0 num_mem_ops: 1 event: 65220127
[cpu0_IFETCH] entry:  78 instr_id: 69538070 fetched: 2 scheduled: 0 executed: 0 num_reg_dependent: 0 num_mem_ops: 2 event: 65220129
[cpu0_IFETCH] entry:  79 instr_id: 69538071 fetched: 2 scheduled: 0 executed: 0 num_reg_dependent: 0 num_mem_ops: 2 event: 65220129
[cpu0_IFETCH] entry:  80 instr_id: 69538072 fetched: 2 scheduled: 0 executed: 0 num_reg_dependent: 0 num_mem_ops: 0 event: 65220129
[cpu0_IFETCH] entry:  81 instr_id: 69538073 fetched: 2 scheduled: 0 executed: 0 num_reg_dependent: 0 num_mem_ops: 0 event: 65220129
[cpu0_IFETCH] entry:  82 instr_id: 69538074 fetched: 2 scheduled: 0 executed: 0 num_reg_dependent: 0 num_mem_ops: 1 event: 65220130
[cpu0_IFETCH] entry:  83 instr_id: 69538075 fetched: 2 scheduled: 0 executed: 0 num_reg_dependent: 0 num_mem_ops: 0 event: 65220130
[cpu0_IFETCH] entry:  84 instr_id: 69538076 fetched: 2 scheduled: 0 executed: 0 num_reg_dependent: 0 num_mem_ops: 0 event: 65220130
[cpu0_IFETCH] entry:  85 instr_id: 69538077 fetched: 2 scheduled: 0 executed: 0 num_reg_dependent: 0 num_mem_ops: 1 event: 65220130
[cpu0_IFETCH] entry:  86 instr_id: 69538078 fetched: 2 scheduled: 0 executed: 0 num_reg_dependent: 0 num_mem_ops: 1 event: 65220132
[cpu0_IFETCH] entry:  87 instr_id: 69538079 fetched: 2 scheduled: 0 executed: 0 num_reg_dependent: 0 num_mem_ops: 1 event: 65220134
[cpu0_IFETCH] entry:  88 instr_id: 69538080 fetched: 2 scheduled: 0 executed: 0 num_reg_dependent: 0 num_mem_ops: 1 event: 65220134
[cpu0_IFETCH] entry:  89 instr_id: 69538081 fetched: 2 scheduled: 0 executed: 0 num_reg_dependent: 0 num_mem_ops: 0 event: 65220134
[cpu0_IFETCH] entry:  90 instr_id: 69538082 fetched: 2 scheduled: 0 executed: 0 num_reg_dependent: 0 num_mem_ops: 0 event: 65220134
[cpu0_IFETCH] entry:  91 instr_id: 69538083 fetched: 2 scheduled: 0 executed: 0 num_reg_dependent: 0 num_mem_ops: 1 event: 65220135
[cpu0_IFETCH] entry:  92 instr_id: 69538084 fetched: 2 scheduled: 0 executed: 0 num_reg_dependent: 0 num_mem_ops: 0 event: 65220135
[cpu0_IFETCH] entry:  93 instr_id: 69538085 fetched: 2 scheduled: 0 executed: 0 num_reg_dependent: 0 num_mem_ops: 0 event: 65220136
[cpu0_IFETCH] entry:  94 instr_id: 69538086 fetched: 2 scheduled: 0 executed: 0 num_reg_dependent: 0 num_mem_ops: 1 event: 65220136
[cpu0_IFETCH] entry:  95 instr_id: 69538087 fetched: 2 scheduled: 0 executed: 0 num_reg_dependent: 0 num_mem_ops: 1 event: 65220136
[cpu0_IFETCH] entry:  96 instr_id: 69538088 fetched: 2 scheduled: 0 executed: 0 num_reg_dependent: 0 num_mem_ops: 1 event: 65220138
[cpu0_IFETCH] entry:  97 instr_id: 69538089 fetched: 2 scheduled: 0 executed: 0 num_reg_dependent: 0 num_mem_ops: 1 event: 65220138
[cpu0_IFETCH] entry:  98 instr_id: 69538090 fetched: 2 scheduled: 0 executed: 0 num_reg_dependent: 0 num_mem_ops: 0 event: 65220138
[cpu0_IFETCH] entry:  99 instr_id: 69538091 fetched: 2 scheduled: 0 executed: 0 num_reg_dependent: 0 num_mem_ops: 0 event: 65220138
[cpu0_IFETCH] entry: 100 instr_id: 69538092 fetched: 2 scheduled: 0 executed: 0 num_reg_dependent: 0 num_mem_ops: 1 event: 65220139
[cpu0_IFETCH] entry: 101 instr_id: 69538093 fetched: 2 scheduled: 0 executed: 0 num_reg_dependent: 0 num_mem_ops: 0 event: 65220139
[cpu0_IFETCH] entry: 102 instr_id: 69538094 fetched: 2 scheduled: 0 executed: 0 num_reg_dependent: 0 num_mem_ops: 0 event: 65220139
[cpu0_IFETCH] entry: 103 instr_id: 69538095 fetched: 2 scheduled: 0 executed: 0 num_reg_dependent: 0 num_mem_ops: 1 event: 65220139
[cpu0_IFETCH] entry: 104 instr_id: 69538096 fetched: 2 scheduled: 0 executed: 0 num_reg_dependent: 0 num_mem_ops: 1 event: 65220139
[cpu0_IFETCH] entry: 105 instr_id: 69538097 fetched: 2 scheduled: 0 executed: 0 num_reg_dependent: 0 num_mem_ops: 1 event: 65220141
[cpu0_IFETCH] entry: 106 instr_id: 69538098 fetched: 2 scheduled: 0 executed: 0 num_reg_dependent: 0 num_mem_ops: 1 event: 65220141
[cpu0_IFETCH] entry: 107 instr_id: 69538099 fetched: 2 scheduled: 0 executed: 0 num_reg_dependent: 0 num_mem_ops: 0 event: 65220141
[cpu0_IFETCH] entry: 108 instr_id: 69538100 fetched: 2 scheduled: 0 executed: 0 num_reg_dependent: 0 num_mem_ops: 0 event: 65220141
[cpu0_IFETCH] entry: 109 instr_id: 69538101 fetched: 2 scheduled: 0 executed: 0 num_reg_dependent: 0 num_mem_ops: 1 event: 65220142
[cpu0_IFETCH] entry: 110 instr_id: 69538102 fetched: 2 scheduled: 0 executed: 0 num_reg_dependent: 0 num_mem_ops: 0 event: 65220142
[cpu0_IFETCH] entry: 111 instr_id: 69538103 fetched: 2 scheduled: 0 executed: 0 num_reg_dependent: 0 num_mem_ops: 0 event: 65220142
[cpu0_IFETCH] entry: 112 instr_id: 69538104 fetched: 2 scheduled: 0 executed: 0 num_reg_dependent: 0 num_mem_ops: 2 event: 65220142
[cpu0_IFETCH] entry: 113 instr_id: 69538105 fetched: 2 scheduled: 0 executed: 0 num_reg_dependent: 0 num_mem_ops: 1 event: 65220142
[cpu0_IFETCH] entry: 114 instr_id: 69538106 fetched: 2 scheduled: 0 executed: 0 num_reg_dependent: 0 num_mem_ops: 2 event: 65220144
[cpu0_IFETCH] entry: 115 instr_id: 69538107 fetched: 2 scheduled: 0 executed: 0 num_reg_dependent: 0 num_mem_ops: 2 event: 65220144
[cpu0_IFETCH] entry: 116 instr_id: 69538108 fetched: 2 scheduled: 0 executed: 0 num_reg_dependent: 0 num_mem_ops: 0 event: 65220144
[cpu0_IFETCH] entry: 117 instr_id: 69538109 fetched: 2 scheduled: 0 executed: 0 num_reg_dependent: 0 num_mem_ops: 0 event: 65220144
[cpu0_IFETCH] entry: 118 instr_id: 69538110 fetched: 2 scheduled: 0 executed: 0 num_reg_dependent: 0 num_mem_ops: 1 event: 65220145
[cpu0_IFETCH] entry: 119 instr_id: 69538111 fetched: 2 scheduled: 0 executed: 0 num_reg_dependent: 0 num_mem_ops: 0 event: 65220145
[cpu0_IFETCH] entry: 120 instr_id: 69538112 fetched: 2 scheduled: 0 executed: 0 num_reg_dependent: 0 num_mem_ops: 0 event: 65220933
[cpu0_IFETCH] entry: 121 instr_id: 69538113 fetched: 2 scheduled: 0 executed: 0 num_reg_dependent: 0 num_mem_ops: 1 event: 65220933
[cpu0_IFETCH] entry: 122 instr_id: 69538114 fetched: 2 scheduled: 0 executed: 0 num_reg_dependent: 0 num_mem_ops: 1 event: 65220935
[cpu0_IFETCH] entry: 123 instr_id: 69538115 fetched: 2 scheduled: 0 executed: 0 num_reg_dependent: 0 num_mem_ops: 1 event: 65220937
[cpu0_IFETCH] entry: 124 instr_id: 69538116 fetched: 2 scheduled: 0 executed: 0 num_reg_dependent: 0 num_mem_ops: 1 event: 65220937
[cpu0_IFETCH] entry: 125 instr_id: 69538117 fetched: 2 scheduled: 0 executed: 0 num_reg_dependent: 0 num_mem_ops: 0 event: 65220937
[cpu0_IFETCH] entry: 126 instr_id: 69538118 fetched: 2 scheduled: 0 executed: 0 num_reg_dependent: 0 num_mem_ops: 0 event: 65220937
[cpu0_IFETCH] entry: 127 instr_id: 69538119 fetched: 2 scheduled: 0 executed: 0 num_reg_dependent: 0 num_mem_ops: 1 event: 65220938
[cpu0_IFETCH] entry: 128 instr_id: 69538120 fetched: 2 scheduled: 0 executed: 0 num_reg_dependent: 0 num_mem_ops: 0 event: 65220938
[cpu0_IFETCH] entry: 129 instr_id: 69538121 fetched: 2 scheduled: 0 executed: 0 num_reg_dependent: 0 num_mem_ops: 0 event: 65220939
[cpu0_IFETCH] entry: 130 instr_id: 69538122 fetched: 2 scheduled: 0 executed: 0 num_reg_dependent: 0 num_mem_ops: 1 event: 65220939
[cpu0_IFETCH] entry: 131 instr_id: 69538123 fetched: 2 scheduled: 0 executed: 0 num_reg_dependent: 0 num_mem_ops: 1 event: 65220939
[cpu0_IFETCH] entry: 132 instr_id: 69538124 fetched: 2 scheduled: 0 executed: 0 num_reg_dependent: 0 num_mem_ops: 1 event: 65220941
[cpu0_IFETCH] entry: 133 instr_id: 69538125 fetched: 2 scheduled: 0 executed: 0 num_reg_dependent: 0 num_mem_ops: 1 event: 65220941
[cpu0_IFETCH] entry: 134 instr_id: 69538126 fetched: 2 scheduled: 0 executed: 0 num_reg_dependent: 0 num_mem_ops: 0 event: 65220941
[cpu0_IFETCH] entry: 135 instr_id: 69538127 fetched: 2 scheduled: 0 executed: 0 num_reg_dependent: 0 num_mem_ops: 0 event: 65220941
[cpu0_IFETCH] entry: 136 instr_id: 69538128 fetched: 2 scheduled: 0 executed: 0 num_reg_dependent: 0 num_mem_ops: 1 event: 65220942
[cpu0_IFETCH] entry: 137 instr_id: 69538129 fetched: 2 scheduled: 0 executed: 0 num_reg_dependent: 0 num_mem_ops: 0 event: 65220942
[cpu0_IFETCH] entry: 138 instr_id: 69538130 fetched: 2 scheduled: 0 executed: 0 num_reg_dependent: 0 num_mem_ops: 0 event: 65220942
[cpu0_IFETCH] entry: 139 instr_id: 69538131 fetched: 2 scheduled: 0 executed: 0 num_reg_dependent: 0 num_mem_ops: 1 event: 65220942
[cpu0_IFETCH] entry: 140 instr_id: 69538132 fetched: 2 scheduled: 0 executed: 0 num_reg_dependent: 0 num_mem_ops: 1 event: 65220942
[cpu0_IFETCH] entry: 141 instr_id: 69538133 fetched: 2 scheduled: 0 executed: 0 num_reg_dependent: 0 num_mem_ops: 1 event: 65220944
[cpu0_IFETCH] entry: 142 instr_id: 69538134 fetched: 2 scheduled: 0 executed: 0 num_reg_dependent: 0 num_mem_ops: 1 event: 65220944
[cpu0_IFETCH] entry: 143 instr_id: 69538135 fetched: 2 scheduled: 0 executed: 0 num_reg_dependent: 0 num_mem_ops: 0 event: 65220944
[cpu0_IFETCH] entry: 144 instr_id: 69538136 fetched: 2 scheduled: 0 executed: 0 num_reg_dependent: 0 num_mem_ops: 0 event: 65220944
[cpu0_IFETCH] entry: 145 instr_id: 69538137 fetched: 2 scheduled: 0 executed: 0 num_reg_dependent: 0 num_mem_ops: 1 event: 65220945
[cpu0_IFETCH] entry: 146 instr_id: 69538138 fetched: 2 scheduled: 0 executed: 0 num_reg_dependent: 0 num_mem_ops: 0 event: 65220945
[cpu0_IFETCH] entry: 147 instr_id: 69538139 fetched: 2 scheduled: 0 executed: 0 num_reg_dependent: 0 num_mem_ops: 0 event: 65220945
[cpu0_IFETCH] entry: 148 instr_id: 69538140 fetched: 2 scheduled: 0 executed: 0 num_reg_dependent: 0 num_mem_ops: 2 event: 65220945
[cpu0_IFETCH] entry: 149 instr_id: 69538141 fetched: 2 scheduled: 0 executed: 0 num_reg_dependent: 0 num_mem_ops: 1 event: 65220945
[cpu0_IFETCH] entry: 150 instr_id: 69538142 fetched: 2 scheduled: 0 executed: 0 num_reg_dependent: 0 num_mem_ops: 2 event: 65220947
[cpu0_IFETCH] entry: 151 instr_id: 69538143 fetched: 2 scheduled: 0 executed: 0 num_reg_dependent: 0 num_mem_ops: 2 event: 65220947
[cpu0_IFETCH] entry: 152 instr_id: 69538144 fetched: 2 scheduled: 0 executed: 0 num_reg_dependent: 0 num_mem_ops: 0 event: 65220947
[cpu0_IFETCH] entry: 153 instr_id: 69538145 fetched: 2 scheduled: 0 executed: 0 num_reg_dependent: 0 num_mem_ops: 0 event: 65220947
[cpu0_IFETCH] entry: 154 instr_id: 69538146 fetched: 2 scheduled: 0 executed: 0 num_reg_dependent: 0 num_mem_ops: 1 event: 65220948
[cpu0_IFETCH] entry: 155 instr_id: 69538147 fetched: 2 scheduled: 0 executed: 0 num_reg_dependent: 0 num_mem_ops: 0 event: 65220948
[cpu0_IFETCH] entry: 156 instr_id: 69538148 fetched: 2 scheduled: 0 executed: 0 num_reg_dependent: 0 num_mem_ops: 0 event: 65220948
[cpu0_IFETCH] entry: 157 instr_id: 69538149 fetched: 2 scheduled: 0 executed: 0 num_reg_dependent: 0 num_mem_ops: 1 event: 65220948
[cpu0_IFETCH] entry: 158 instr_id: 69538150 fetched: 2 scheduled: 0 executed: 0 num_reg_dependent: 0 num_mem_ops: 1 event: 65220950
[cpu0_IFETCH] entry: 159 instr_id: 69538151 fetched: 2 scheduled: 0 executed: 0 num_reg_dependent: 0 num_mem_ops: 1 event: 65220952
[cpu0_IFETCH] entry: 160 instr_id: 69538152 fetched: 2 scheduled: 0 executed: 0 num_reg_dependent: 0 num_mem_ops: 1 event: 65220952
[cpu0_IFETCH] entry: 161 instr_id: 69538153 fetched: 2 scheduled: 0 executed: 0 num_reg_dependent: 0 num_mem_ops: 0 event: 65220952
[cpu0_IFETCH] entry: 162 instr_id: 69538154 fetched: 2 scheduled: 0 executed: 0 num_reg_dependent: 0 num_mem_ops: 0 event: 65220952
[cpu0_IFETCH] entry: 163 instr_id: 69538155 fetched: 2 scheduled: 0 executed: 0 num_reg_dependent: 0 num_mem_ops: 1 event: 65220953
[cpu0_IFETCH] entry: 164 instr_id: 69538156 fetched: 2 scheduled: 0 executed: 0 num_reg_dependent: 0 num_mem_ops: 0 event: 65220953
[cpu0_IFETCH] entry: 165 instr_id: 69538157 fetched: 2 scheduled: 0 executed: 0 num_reg_dependent: 0 num_mem_ops: 0 event: 65220954
[cpu0_IFETCH] entry: 166 instr_id: 69538158 fetched: 2 scheduled: 0 executed: 0 num_reg_dependent: 0 num_mem_ops: 1 event: 65220954
[cpu0_IFETCH] entry: 167 instr_id: 69538159 fetched: 2 scheduled: 0 executed: 0 num_reg_dependent: 0 num_mem_ops: 1 event: 65220954
[cpu0_IFETCH] entry: 168 instr_id: 69538160 fetched: 2 scheduled: 0 executed: 0 num_reg_dependent: 0 num_mem_ops: 1 event: 65220956
[cpu0_IFETCH] entry: 169 instr_id: 69538161 fetched: 2 scheduled: 0 executed: 0 num_reg_dependent: 0 num_mem_ops: 1 event: 65220956
[cpu0_IFETCH] entry: 170 instr_id: 69538162 fetched: 2 scheduled: 0 executed: 0 num_reg_dependent: 0 num_mem_ops: 0 event: 65220956
[cpu0_IFETCH] entry: 171 instr_id: 69538163 fetched: 2 scheduled: 0 executed: 0 num_reg_dependent: 0 num_mem_ops: 0 event: 65220956
[cpu0_IFETCH] entry: 172 instr_id: 69538164 fetched: 2 scheduled: 0 executed: 0 num_reg_dependent: 0 num_mem_ops: 1 event: 65220957
[cpu0_IFETCH] entry: 173 instr_id: 69538165 fetched: 2 scheduled: 0 executed: 0 num_reg_dependent: 0 num_mem_ops: 0 event: 65220957
[cpu0_IFETCH] entry: 174 instr_id: 69538166 fetched: 2 scheduled: 0 executed: 0 num_reg_dependent: 0 num_mem_ops: 0 event: 65220957
[cpu0_IFETCH] entry: 175 instr_id: 69538167 fetched: 2 scheduled: 0 executed: 0 num_reg_dependent: 0 num_mem_ops: 1 event: 65220957
[cpu0_IFETCH] entry: 176 instr_id: 69538168 fetched: 2 scheduled: 0 executed: 0 num_reg_dependent: 0 num_mem_ops: 1 event: 65220957
[cpu0_IFETCH] entry: 177 instr_id: 69538169 fetched: 2 scheduled: 0 executed: 0 num_reg_dependent: 0 num_mem_ops: 1 event: 65220959
[cpu0_IFETCH] entry: 178 instr_id: 69538170 fetched: 2 scheduled: 0 executed: 0 num_reg_dependent: 0 num_mem_ops: 1 event: 65220959
[cpu0_IFETCH] entry: 179 instr_id: 69538171 fetched: 2 scheduled: 0 executed: 0 num_reg_dependent: 0 num_mem_ops: 0 event: 65220959
[cpu0_IFETCH] entry: 180 instr_id: 69538172 fetched: 2 scheduled: 0 executed: 0 num_reg_dependent: 0 num_mem_ops: 0 event: 65220959
[cpu0_IFETCH] entry: 181 instr_id: 69538173 fetched: 2 scheduled: 0 executed: 0 num_reg_dependent: 0 num_mem_ops: 1 event: 65220960
[cpu0_IFETCH] entry: 182 instr_id: 69538174 fetched: 2 scheduled: 0 executed: 0 num_reg_dependent: 0 num_mem_ops: 0 event: 65220960
[cpu0_IFETCH] entry: 183 instr_id: 69538175 fetched: 2 scheduled: 0 executed: 0 num_reg_dependent: 0 num_mem_ops: 0 event: 65220960
[cpu0_IFETCH] entry: 184 instr_id: 69538176 fetched: 2 scheduled: 0 executed: 0 num_reg_dependent: 0 num_mem_ops: 2 event: 65220960
[cpu0_IFETCH] entry: 185 instr_id: 69538177 fetched: 2 scheduled: 0 executed: 0 num_reg_dependent: 0 num_mem_ops: 1 event: 65220960
[cpu0_IFETCH] entry: 186 instr_id: 69538178 fetched: 2 scheduled: 0 executed: 0 num_reg_dependent: 0 num_mem_ops: 2 event: 65220962
[cpu0_IFETCH] entry: 187 instr_id: 69538179 fetched: 2 scheduled: 0 executed: 0 num_reg_dependent: 0 num_mem_ops: 2 event: 65220962
[cpu0_IFETCH] entry: 188 instr_id: 69538180 fetched: 2 scheduled: 0 executed: 0 num_reg_dependent: 0 num_mem_ops: 0 event: 65220962
[cpu0_IFETCH] entry: 189 instr_id: 69538181 fetched: 2 scheduled: 0 executed: 0 num_reg_dependent: 0 num_mem_ops: 0 event: 65220962
[cpu0_IFETCH] entry: 190 instr_id: 69538182 fetched: 2 scheduled: 0 executed: 0 num_reg_dependent: 0 num_mem_ops: 1 event: 65220963
[cpu0_IFETCH] entry: 191 instr_id: 69538183 fetched: 2 scheduled: 0 executed: 0 num_reg_dependent: 0 num_mem_ops: 0 event: 65220963

[cpu0_DECODE] entry:   0 instr_id: 69537848 fetched: 2 scheduled: 0 executed: 0 num_reg_dependent: 0 num_mem_ops: 0 event: 65220114
[cpu0_DECODE] entry:   1 instr_id: 69537849 fetched: 2 scheduled: 0 executed: 0 num_reg_dependent: 0 num_mem_ops: 1 event: 65220114
[cpu0_DECODE] entry:   2 instr_id: 69537850 fetched: 2 scheduled: 0 executed: 0 num_reg_dependent: 0 num_mem_ops: 0 event: 65220116
[cpu0_DECODE] entry:   3 instr_id: 69537851 fetched: 2 scheduled: 0 executed: 0 num_reg_dependent: 0 num_mem_ops: 0 event: 65220118
[cpu0_DECODE] entry:   4 instr_id: 69537852 fetched: 2 scheduled: 0 executed: 0 num_reg_dependent: 0 num_mem_ops: 2 event: 65220118
[cpu0_DECODE] entry:   5 instr_id: 69537853 fetched: 2 scheduled: 0 executed: 0 num_reg_dependent: 0 num_mem_ops: 1 event: 65220118
[cpu0_DECODE] entry:   6 instr_id: 69537854 fetched: 2 scheduled: 0 executed: 0 num_reg_dependent: 0 num_mem_ops: 2 event: 65220118
[cpu0_DECODE] entry:   7 instr_id: 69537855 fetched: 2 scheduled: 0 executed: 0 num_reg_dependent: 0 num_mem_ops: 2 event: 65220118
[cpu0_DECODE] entry:   8 instr_id: 69537856 fetched: 2 scheduled: 0 executed: 0 num_reg_dependent: 0 num_mem_ops: 0 event: 65220118
[cpu0_DECODE] entry:   9 instr_id: 69537857 fetched: 2 scheduled: 0 executed: 0 num_reg_dependent: 0 num_mem_ops: 0 event: 65220120
[cpu0_DECODE] entry:  10 instr_id: 69537858 fetched: 2 scheduled: 0 executed: 0 num_reg_dependent: 0 num_mem_ops: 1 event: 65220120
[cpu0_DECODE] entry:  11 instr_id: 69537859 fetched: 2 scheduled: 0 executed: 0 num_reg_dependent: 0 num_mem_ops: 0 event: 65220120
[cpu0_DECODE] entry:  12 instr_id: 69537860 fetched: 2 scheduled: 0 executed: 0 num_reg_dependent: 0 num_mem_ops: 0 event: 65220122
[cpu0_DECODE] entry:  13 instr_id: 69537861 fetched: 2 scheduled: 0 executed: 0 num_reg_dependent: 0 num_mem_ops: 1 event: 65220122
[cpu0_DECODE] entry:  14 instr_id: 69537862 fetched: 2 scheduled: 0 executed: 0 num_reg_dependent: 0 num_mem_ops: 1 event: 65220122
[cpu0_DECODE] entry:  15 instr_id: 69537863 fetched: 2 scheduled: 0 executed: 0 num_reg_dependent: 0 num_mem_ops: 1 event: 65220122
[cpu0_DECODE] entry:  16 instr_id: 69537864 fetched: 2 scheduled: 0 executed: 0 num_reg_dependent: 0 num_mem_ops: 1 event: 65220122
[cpu0_DECODE] entry:  17 instr_id: 69537865 fetched: 2 scheduled: 0 executed: 0 num_reg_dependent: 0 num_mem_ops: 0 event: 65220122
[cpu0_DECODE] entry:  18 instr_id: 69537866 fetched: 2 scheduled: 0 executed: 0 num_reg_dependent: 0 num_mem_ops: 0 event: 65220123
[cpu0_DECODE] entry:  19 instr_id: 69537867 fetched: 2 scheduled: 0 executed: 0 num_reg_dependent: 0 num_mem_ops: 1 event: 65220123
[cpu0_DECODE] entry:  20 instr_id: 69537868 fetched: 2 scheduled: 0 executed: 0 num_reg_dependent: 0 num_mem_ops: 0 event: 65220123
[cpu0_DECODE] entry:  21 instr_id: 69537869 fetched: 2 scheduled: 0 executed: 0 num_reg_dependent: 0 num_mem_ops: 0 event: 65220125
[cpu0_DECODE] entry:  22 instr_id: 69537870 fetched: 2 scheduled: 0 executed: 0 num_reg_dependent: 0 num_mem_ops: 1 event: 65220125
[cpu0_DECODE] entry:  23 instr_id: 69537871 fetched: 2 scheduled: 0 executed: 0 num_reg_dependent: 0 num_mem_ops: 1 event: 65220125
[cpu0_DECODE] entry:  24 instr_id: 69537872 fetched: 2 scheduled: 0 executed: 0 num_reg_dependent: 0 num_mem_ops: 1 event: 65220125
[cpu0_DECODE] entry:  25 instr_id: 69537873 fetched: 2 scheduled: 0 executed: 0 num_reg_dependent: 0 num_mem_ops: 1 event: 65220125
[cpu0_DECODE] entry:  26 instr_id: 69537874 fetched: 2 scheduled: 0 executed: 0 num_reg_dependent: 0 num_mem_ops: 0 event: 65220125
[cpu0_DECODE] entry:  27 instr_id: 69537875 fetched: 2 scheduled: 0 executed: 0 num_reg_dependent: 0 num_mem_ops: 0 event: 65220126
[cpu0_DECODE] entry:  28 instr_id: 69537876 fetched: 2 scheduled: 0 executed: 0 num_reg_dependent: 0 num_mem_ops: 1 event: 65220126
[cpu0_DECODE] entry:  29 instr_id: 69537877 fetched: 2 scheduled: 0 executed: 0 num_reg_dependent: 0 num_mem_ops: 0 event: 65220126
[cpu0_DECODE] entry:  30 instr_id: 69537878 fetched: 2 scheduled: 0 executed: 0 num_reg_dependent: 0 num_mem_ops: 0 event: 65220128
[cpu0_DECODE] entry:  31 instr_id: 69537879 fetched: 2 scheduled: 0 executed: 0 num_reg_dependent: 0 num_mem_ops: 1 event: 65220128
[cpu0_DECODE] entry:  32 instr_id: 69537880 fetched: 2 scheduled: 0 executed: 0 num_reg_dependent: 0 num_mem_ops: 1 event: 65220128
[cpu0_DECODE] entry:  33 instr_id: 69537881 fetched: 2 scheduled: 0 executed: 0 num_reg_dependent: 0 num_mem_ops: 1 event: 65220128
[cpu0_DECODE] entry:  34 instr_id: 69537882 fetched: 2 scheduled: 0 executed: 0 num_reg_dependent: 0 num_mem_ops: 1 event: 65220128
[cpu0_DECODE] entry:  35 instr_id: 69537883 fetched: 2 scheduled: 0 executed: 0 num_reg_dependent: 0 num_mem_ops: 0 event: 65220128
[cpu0_DECODE] entry:  36 instr_id: 69537884 fetched: 2 scheduled: 0 executed: 0 num_reg_dependent: 0 num_mem_ops: 0 event: 65220129
[cpu0_DECODE] entry:  37 instr_id: 69537885 fetched: 2 scheduled: 0 executed: 0 num_reg_dependent: 0 num_mem_ops: 1 event: 65220129
[cpu0_DECODE] entry:  38 instr_id: 69537886 fetched: 2 scheduled: 0 executed: 0 num_reg_dependent: 0 num_mem_ops: 0 event: 65220131
[cpu0_DECODE] entry:  39 instr_id: 69537887 fetched: 2 scheduled: 0 executed: 0 num_reg_dependent: 0 num_mem_ops: 0 event: 65220133
[cpu0_DECODE] entry:  40 instr_id: 69537888 fetched: 2 scheduled: 0 executed: 0 num_reg_dependent: 0 num_mem_ops: 2 event: 65220133
[cpu0_DECODE] entry:  41 instr_id: 69537889 fetched: 2 scheduled: 0 executed: 0 num_reg_dependent: 0 num_mem_ops: 1 event: 65220133
[cpu0_DECODE] entry:  42 instr_id: 69537890 fetched: 2 scheduled: 0 executed: 0 num_reg_dependent: 0 num_mem_ops: 2 event: 65220133
[cpu0_DECODE] entry:  43 instr_id: 69537891 fetched: 2 scheduled: 0 executed: 0 num_reg_dependent: 0 num_mem_ops: 2 event: 65220133
[cpu0_DECODE] entry:  44 instr_id: 69537892 fetched: 2 scheduled: 0 executed: 0 num_reg_dependent: 0 num_mem_ops: 0 event: 65220133
[cpu0_DECODE] entry:  45 instr_id: 69537893 fetched: 2 scheduled: 0 executed: 0 num_reg_dependent: 0 num_mem_ops: 0 event: 65220135
[cpu0_DECODE] entry:  46 instr_id: 69537894 fetched: 2 scheduled: 0 executed: 0 num_reg_dependent: 0 num_mem_ops: 1 event: 65220135
[cpu0_DECODE] entry:  47 instr_id: 69537895 fetched: 2 scheduled: 0 executed: 0 num_reg_dependent: 0 num_mem_ops: 0 event: 65220135
[cpu0_DECODE] entry:  48 instr_id: 69537896 fetched: 2 scheduled: 0 executed: 0 num_reg_dependent: 0 num_mem_ops: 0 event: 65220137
[cpu0_DECODE] entry:  49 instr_id: 69537897 fetched: 2 scheduled: 0 executed: 0 num_reg_dependent: 0 num_mem_ops: 1 event: 65220137
[cpu0_DECODE] entry:  50 instr_id: 69537898 fetched: 2 scheduled: 0 executed: 0 num_reg_dependent: 0 num_mem_ops: 1 event: 65220137
[cpu0_DECODE] entry:  51 instr_id: 69537899 fetched: 2 scheduled: 0 executed: 0 num_reg_dependent: 0 num_mem_ops: 1 event: 65220137
[cpu0_DECODE] entry:  52 instr_id: 69537900 fetched: 2 scheduled: 0 executed: 0 num_reg_dependent: 0 num_mem_ops: 1 event: 65220137
[cpu0_DECODE] entry:  53 instr_id: 69537901 fetched: 2 scheduled: 0 executed: 0 num_reg_dependent: 0 num_mem_ops: 0 event: 65220137
[cpu0_DECODE] entry:  54 instr_id: 69537902 fetched: 2 scheduled: 0 executed: 0 num_reg_dependent: 0 num_mem_ops: 0 event: 65220138
[cpu0_DECODE] entry:  55 instr_id: 69537903 fetched: 2 scheduled: 0 executed: 0 num_reg_dependent: 0 num_mem_ops: 1 event: 65220138
[cpu0_DECODE] entry:  56 instr_id: 69537904 fetched: 2 scheduled: 0 executed: 0 num_reg_dependent: 0 num_mem_ops: 0 event: 65220138
[cpu0_DECODE] entry:  57 instr_id: 69537905 fetched: 2 scheduled: 0 executed: 0 num_reg_dependent: 0 num_mem_ops: 0 event: 65220140
[cpu0_DECODE] entry:  58 instr_id: 69537906 fetched: 2 scheduled: 0 executed: 0 num_reg_dependent: 0 num_mem_ops: 1 event: 65220140
[cpu0_DECODE] entry:  59 instr_id: 69537907 fetched: 2 scheduled: 0 executed: 0 num_reg_dependent: 0 num_mem_ops: 1 event: 65220140
[cpu0_DECODE] entry:  60 instr_id: 69537908 fetched: 2 scheduled: 0 executed: 0 num_reg_dependent: 0 num_mem_ops: 1 event: 65220140
[cpu0_DECODE] entry:  61 instr_id: 69537909 fetched: 2 scheduled: 0 executed: 0 num_reg_dependent: 0 num_mem_ops: 1 event: 65220140
[cpu0_DECODE] entry:  62 instr_id: 69537910 fetched: 2 scheduled: 0 executed: 0 num_reg_dependent: 0 num_mem_ops: 0 event: 65220140
[cpu0_DECODE] entry:  63 instr_id: 69537911 fetched: 2 scheduled: 0 executed: 0 num_reg_dependent: 0 num_mem_ops: 0 event: 65220141
[cpu0_DECODE] entry:  64 instr_id: 69537912 fetched: 2 scheduled: 0 executed: 0 num_reg_dependent: 0 num_mem_ops: 1 event: 65220141
[cpu0_DECODE] entry:  65 instr_id: 69537913 fetched: 2 scheduled: 0 executed: 0 num_reg_dependent: 0 num_mem_ops: 0 event: 65220141
[cpu0_DECODE] entry:  66 instr_id: 69537914 fetched: 2 scheduled: 0 executed: 0 num_reg_dependent: 0 num_mem_ops: 0 event: 65220143
[cpu0_DECODE] entry:  67 instr_id: 69537915 fetched: 2 scheduled: 0 executed: 0 num_reg_dependent: 0 num_mem_ops: 1 event: 65220143
[cpu0_DECODE] entry:  68 instr_id: 69537916 fetched: 2 scheduled: 0 executed: 0 num_reg_dependent: 0 num_mem_ops: 1 event: 65220143
[cpu0_DECODE] entry:  69 instr_id: 69537917 fetched: 2 scheduled: 0 executed: 0 num_reg_dependent: 0 num_mem_ops: 1 event: 65220143
[cpu0_DECODE] entry:  70 instr_id: 69537918 fetched: 2 scheduled: 0 executed: 0 num_reg_dependent: 0 num_mem_ops: 1 event: 65220143
[cpu0_DECODE] entry:  71 instr_id: 69537919 fetched: 2 scheduled: 0 executed: 0 num_reg_dependent: 0 num_mem_ops: 0 event: 65220143
[cpu0_DECODE] entry:  72 instr_id: 69537920 fetched: 2 scheduled: 0 executed: 0 num_reg_dependent: 0 num_mem_ops: 0 event: 65220932
[cpu0_DECODE] entry:  73 instr_id: 69537921 fetched: 2 scheduled: 0 executed: 0 num_reg_dependent: 0 num_mem_ops: 1 event: 65220932
[cpu0_DECODE] entry:  74 instr_id: 69537922 fetched: 2 scheduled: 0 executed: 0 num_reg_dependent: 0 num_mem_ops: 0 event: 65220934
[cpu0_DECODE] entry:  75 instr_id: 69537923 fetched: 2 scheduled: 0 executed: 0 num_reg_dependent: 0 num_mem_ops: 0 event: 65220936
[cpu0_DECODE] entry:  76 instr_id: 69537924 fetched: 2 scheduled: 0 executed: 0 num_reg_dependent: 0 num_mem_ops: 2 event: 65220936
[cpu0_DECODE] entry:  77 instr_id: 69537925 fetched: 2 scheduled: 0 executed: 0 num_reg_dependent: 0 num_mem_ops: 1 event: 65220936
[cpu0_DECODE] entry:  78 instr_id: 69537926 fetched: 2 scheduled: 0 executed: 0 num_reg_dependent: 0 num_mem_ops: 2 event: 65220936
[cpu0_DECODE] entry:  79 instr_id: 69537927 fetched: 2 scheduled: 0 executed: 0 num_reg_dependent: 0 num_mem_ops: 2 event: 65220936
[cpu0_DECODE] entry:  80 instr_id: 69537928 fetched: 2 scheduled: 0 executed: 0 num_reg_dependent: 0 num_mem_ops: 0 event: 65220936
[cpu0_DECODE] entry:  81 instr_id: 69537929 fetched: 2 scheduled: 0 executed: 0 num_reg_dependent: 0 num_mem_ops: 0 event: 65220938
[cpu0_DECODE] entry:  82 instr_id: 69537930 fetched: 2 scheduled: 0 executed: 0 num_reg_dependent: 0 num_mem_ops: 1 event: 65220938
[cpu0_DECODE] entry:  83 instr_id: 69537931 fetched: 2 scheduled: 0 executed: 0 num_reg_dependent: 0 num_mem_ops: 0 event: 65220938
[cpu0_DECODE] entry:  84 instr_id: 69537932 fetched: 2 scheduled: 0 executed: 0 num_reg_dependent: 0 num_mem_ops: 0 event: 65220940
[cpu0_DECODE] entry:  85 instr_id: 69537933 fetched: 2 scheduled: 0 executed: 0 num_reg_dependent: 0 num_mem_ops: 1 event: 65220940
[cpu0_DECODE] entry:  86 instr_id: 69537934 fetched: 2 scheduled: 0 executed: 0 num_reg_dependent: 0 num_mem_ops: 1 event: 65220940
[cpu0_DECODE] entry:  87 instr_id: 69537935 fetched: 2 scheduled: 0 executed: 0 num_reg_dependent: 0 num_mem_ops: 1 event: 65220940
[cpu0_DECODE] entry:  88 instr_id: 69537936 fetched: 2 scheduled: 0 executed: 0 num_reg_dependent: 0 num_mem_ops: 1 event: 65220940
[cpu0_DECODE] entry:  89 instr_id: 69537937 fetched: 2 scheduled: 0 executed: 0 num_reg_dependent: 0 num_mem_ops: 0 event: 65220940
[cpu0_DECODE] entry:  90 instr_id: 69537938 fetched: 2 scheduled: 0 executed: 0 num_reg_dependent: 0 num_mem_ops: 0 event: 65220941
[cpu0_DECODE] entry:  91 instr_id: 69537939 fetched: 2 scheduled: 0 executed: 0 num_reg_dependent: 0 num_mem_ops: 1 event: 65220941
[cpu0_DECODE] entry:  92 instr_id: 69537940 fetched: 2 scheduled: 0 executed: 0 num_reg_dependent: 0 num_mem_ops: 0 event: 65220941
[cpu0_DECODE] entry:  93 instr_id: 69537941 fetched: 2 scheduled: 0 executed: 0 num_reg_dependent: 0 num_mem_ops: 0 event: 65220943
[cpu0_DECODE] entry:  94 instr_id: 69537942 fetched: 2 scheduled: 0 executed: 0 num_reg_dependent: 0 num_mem_ops: 1 event: 65220943
[cpu0_DECODE] entry:  95 instr_id: 69537943 fetched: 2 scheduled: 0 executed: 0 num_reg_dependent: 0 num_mem_ops: 1 event: 65220943
[cpu0_DECODE] entry:  96 instr_id: 69537944 fetched: 2 scheduled: 0 executed: 0 num_reg_dependent: 0 num_mem_ops: 1 event: 65220943
[cpu0_DECODE] entry:  97 instr_id: 69537945 fetched: 2 scheduled: 0 executed: 0 num_reg_dependent: 0 num_mem_ops: 1 event: 65220943
[cpu0_DECODE] entry:  98 instr_id: 69537946 fetched: 2 scheduled: 0 executed: 0 num_reg_dependent: 0 num_mem_ops: 0 event: 65220943
[cpu0_DECODE] entry:  99 instr_id: 69537947 fetched: 2 scheduled: 0 executed: 0 num_reg_dependent: 0 num_mem_ops: 0 event: 65220944
[cpu0_DECODE] entry: 100 instr_id: 69537948 fetched: 2 scheduled: 0 executed: 0 num_reg_dependent: 0 num_mem_ops: 1 event: 65220944
[cpu0_DECODE] entry: 101 instr_id: 69537949 fetched: 2 scheduled: 0 executed: 0 num_reg_dependent: 0 num_mem_ops: 0 event: 65220944
[cpu0_DECODE] entry: 102 instr_id: 69537950 fetched: 2 scheduled: 0 executed: 0 num_reg_dependent: 0 num_mem_ops: 0 event: 65220946
[cpu0_DECODE] entry: 103 instr_id: 69537951 fetched: 2 scheduled: 0 executed: 0 num_reg_dependent: 0 num_mem_ops: 1 event: 65220946
[cpu0_DECODE] entry: 104 instr_id: 69537952 fetched: 2 scheduled: 0 executed: 0 num_reg_dependent: 0 num_mem_ops: 1 event: 65220946
[cpu0_DECODE] entry: 105 instr_id: 69537953 fetched: 2 scheduled: 0 executed: 0 num_reg_dependent: 0 num_mem_ops: 1 event: 65220946
[cpu0_DECODE] entry: 106 instr_id: 69537954 fetched: 2 scheduled: 0 executed: 0 num_reg_dependent: 0 num_mem_ops: 1 event: 65220946
[cpu0_DECODE] entry: 107 instr_id: 69537955 fetched: 2 scheduled: 0 executed: 0 num_reg_dependent: 0 num_mem_ops: 0 event: 65220946
[cpu0_DECODE] entry: 108 instr_id: 69537956 fetched: 2 scheduled: 0 executed: 0 num_reg_dependent: 0 num_mem_ops: 0 event: 65220947
[cpu0_DECODE] entry: 109 instr_id: 69537957 fetched: 2 scheduled: 0 executed: 0 num_reg_dependent: 0 num_mem_ops: 1 event: 65220947
[cpu0_DECODE] entry: 110 instr_id: 69537958 fetched: 2 scheduled: 0 executed: 0 num_reg_dependent: 0 num_mem_ops: 0 event: 65220949
[cpu0_DECODE] entry: 111 instr_id: 69537959 fetched: 2 scheduled: 0 executed: 0 num_reg_dependent: 0 num_mem_ops: 0 event: 65220951
[cpu0_DECODE] entry: 112 instr_id: 69537960 fetched: 2 scheduled: 0 executed: 0 num_reg_dependent: 0 num_mem_ops: 2 event: 65220951
[cpu0_DECODE] entry: 113 instr_id: 69537961 fetched: 2 scheduled: 0 executed: 0 num_reg_dependent: 0 num_mem_ops: 1 event: 65220951
[cpu0_DECODE] entry: 114 instr_id: 69537962 fetched: 2 scheduled: 0 executed: 0 num_reg_dependent: 0 num_mem_ops: 2 event: 65220951
[cpu0_DECODE] entry: 115 instr_id: 69537963 fetched: 2 scheduled: 0 executed: 0 num_reg_dependent: 0 num_mem_ops: 2 event: 65220951
[cpu0_DECODE] entry: 116 instr_id: 69537964 fetched: 2 scheduled: 0 executed: 0 num_reg_dependent: 0 num_mem_ops: 0 event: 65220951
[cpu0_DECODE] entry: 117 instr_id: 69537965 fetched: 2 scheduled: 0 executed: 0 num_reg_dependent: 0 num_mem_ops: 0 event: 65220953
[cpu0_DECODE] entry: 118 instr_id: 69537966 fetched: 2 scheduled: 0 executed: 0 num_reg_dependent: 0 num_mem_ops: 1 event: 65220953
[cpu0_DECODE] entry: 119 instr_id: 69537967 fetched: 2 scheduled: 0 executed: 0 num_reg_dependent: 0 num_mem_ops: 0 event: 65220953
[cpu0_DECODE] entry: 120 instr_id: 69537968 fetched: 2 scheduled: 0 executed: 0 num_reg_dependent: 0 num_mem_ops: 0 event: 65220955
[cpu0_DECODE] entry: 121 instr_id: 69537969 fetched: 2 scheduled: 0 executed: 0 num_reg_dependent: 0 num_mem_ops: 1 event: 65220955
[cpu0_DECODE] entry: 122 instr_id: 69537970 fetched: 2 scheduled: 0 executed: 0 num_reg_dependent: 0 num_mem_ops: 1 event: 65220955
[cpu0_DECODE] entry: 123 instr_id: 69537971 fetched: 2 scheduled: 0 executed: 0 num_reg_dependent: 0 num_mem_ops: 1 event: 65220955
[cpu0_DECODE] entry: 124 instr_id: 69537972 fetched: 2 scheduled: 0 executed: 0 num_reg_dependent: 0 num_mem_ops: 1 event: 65220955
[cpu0_DECODE] entry: 125 instr_id: 69537973 fetched: 2 scheduled: 0 executed: 0 num_reg_dependent: 0 num_mem_ops: 0 event: 65220955
[cpu0_DECODE] entry: 126 instr_id: 69537974 fetched: 2 scheduled: 0 executed: 0 num_reg_dependent: 0 num_mem_ops: 0 event: 65220956
[cpu0_DECODE] entry: 127 instr_id: 69537975 fetched: 2 scheduled: 0 executed: 0 num_reg_dependent: 0 num_mem_ops: 1 event: 65220956
[cpu0_DECODE] entry: 128 instr_id: 69537976 fetched: 2 scheduled: 0 executed: 0 num_reg_dependent: 0 num_mem_ops: 0 event: 65220956
[cpu0_DECODE] entry: 129 instr_id: 69537977 fetched: 2 scheduled: 0 executed: 0 num_reg_dependent: 0 num_mem_ops: 0 event: 65220958
[cpu0_DECODE] entry: 130 instr_id: 69537978 fetched: 2 scheduled: 0 executed: 0 num_reg_dependent: 0 num_mem_ops: 1 event: 65220958
[cpu0_DECODE] entry: 131 instr_id: 69537979 fetched: 2 scheduled: 0 executed: 0 num_reg_dependent: 0 num_mem_ops: 1 event: 65220958
[cpu0_DECODE] entry: 132 instr_id: 69537980 fetched: 2 scheduled: 0 executed: 0 num_reg_dependent: 0 num_mem_ops: 1 event: 65220958
[cpu0_DECODE] entry: 133 instr_id: 69537981 fetched: 2 scheduled: 0 executed: 0 num_reg_dependent: 0 num_mem_ops: 1 event: 65220958
[cpu0_DECODE] entry: 134 instr_id: 69537982 fetched: 2 scheduled: 0 executed: 0 num_reg_dependent: 0 num_mem_ops: 0 event: 65220958
[cpu0_DECODE] entry: 135 instr_id: 69537983 fetched: 2 scheduled: 0 executed: 0 num_reg_dependent: 0 num_mem_ops: 0 event: 65220959
[cpu0_DECODE] entry: 136 instr_id: 69537984 fetched: 2 scheduled: 0 executed: 0 num_reg_dependent: 0 num_mem_ops: 1 event: 65220959
[cpu0_DECODE] entry: 137 instr_id: 69537985 fetched: 2 scheduled: 0 executed: 0 num_reg_dependent: 0 num_mem_ops: 0 event: 65220959
[cpu0_DECODE] entry: 138 instr_id: 69537986 fetched: 2 scheduled: 0 executed: 0 num_reg_dependent: 0 num_mem_ops: 0 event: 65220961
[cpu0_DECODE] entry: 139 instr_id: 69537987 fetched: 2 scheduled: 0 executed: 0 num_reg_dependent: 0 num_mem_ops: 1 event: 65220961
[cpu0_DECODE] entry: 140 instr_id: 69537988 fetched: 2 scheduled: 0 executed: 0 num_reg_dependent: 0 num_mem_ops: 1 event: 65220961
[cpu0_DECODE] entry: 141 instr_id: 69537989 fetched: 2 scheduled: 0 executed: 0 num_reg_dependent: 0 num_mem_ops: 1 event: 65220961
[cpu0_DECODE] entry: 142 instr_id: 69537990 fetched: 2 scheduled: 0 executed: 0 num_reg_dependent: 0 num_mem_ops: 1 event: 65220961
[cpu0_DECODE] entry: 143 instr_id: 69537991 fetched: 2 scheduled: 0 executed: 0 num_reg_dependent: 0 num_mem_ops: 0 event: 65220961

[cpu0_DISPATCH] entry:   0 instr_id: 69537816 fetched: 2 scheduled: 0 executed: 0 num_reg_dependent: 0 num_mem_ops: 2 event: 65220952
[cpu0_DISPATCH] entry:   1 instr_id: 69537817 fetched: 2 scheduled: 0 executed: 0 num_reg_dependent: 0 num_mem_ops: 1 event: 65220952
[cpu0_DISPATCH] entry:   2 instr_id: 69537818 fetched: 2 scheduled: 0 executed: 0 num_reg_dependent: 0 num_mem_ops: 2 event: 65220952
[cpu0_DISPATCH] entry:   3 instr_id: 69537819 fetched: 2 scheduled: 0 executed: 0 num_reg_dependent: 0 num_mem_ops: 2 event: 65220952
[cpu0_DISPATCH] entry:   4 instr_id: 69537820 fetched: 2 scheduled: 0 executed: 0 num_reg_dependent: 0 num_mem_ops: 0 event: 65220952
[cpu0_DISPATCH] entry:   5 instr_id: 69537821 fetched: 2 scheduled: 0 executed: 0 num_reg_dependent: 0 num_mem_ops: 0 event: 65220954
[cpu0_DISPATCH] entry:   6 instr_id: 69537822 fetched: 2 scheduled: 0 executed: 0 num_reg_dependent: 0 num_mem_ops: 1 event: 65220954
[cpu0_DISPATCH] entry:   7 instr_id: 69537823 fetched: 2 scheduled: 0 executed: 0 num_reg_dependent: 0 num_mem_ops: 0 event: 65220954
[cpu0_DISPATCH] entry:   8 instr_id: 69537824 fetched: 2 scheduled: 0 executed: 0 num_reg_dependent: 0 num_mem_ops: 0 event: 65220956
[cpu0_DISPATCH] entry:   9 instr_id: 69537825 fetched: 2 scheduled: 0 executed: 0 num_reg_dependent: 0 num_mem_ops: 1 event: 65220956
[cpu0_DISPATCH] entry:  10 instr_id: 69537826 fetched: 2 scheduled: 0 executed: 0 num_reg_dependent: 0 num_mem_ops: 1 event: 65220956
[cpu0_DISPATCH] entry:  11 instr_id: 69537827 fetched: 2 scheduled: 0 executed: 0 num_reg_dependent: 0 num_mem_ops: 1 event: 65220956
[cpu0_DISPATCH] entry:  12 instr_id: 69537828 fetched: 2 scheduled: 0 executed: 0 num_reg_dependent: 0 num_mem_ops: 1 event: 65220956
[cpu0_DISPATCH] entry:  13 instr_id: 69537829 fetched: 2 scheduled: 0 executed: 0 num_reg_dependent: 0 num_mem_ops: 0 event: 65220956
[cpu0_DISPATCH] entry:  14 instr_id: 69537830 fetched: 2 scheduled: 0 executed: 0 num_reg_dependent: 0 num_mem_ops: 0 event: 65220957
[cpu0_DISPATCH] entry:  15 instr_id: 69537831 fetched: 2 scheduled: 0 executed: 0 num_reg_dependent: 0 num_mem_ops: 1 event: 65220957
[cpu0_DISPATCH] entry:  16 instr_id: 69537832 fetched: 2 scheduled: 0 executed: 0 num_reg_dependent: 0 num_mem_ops: 0 event: 65220957
[cpu0_DISPATCH] entry:  17 instr_id: 69537833 fetched: 2 scheduled: 0 executed: 0 num_reg_dependent: 0 num_mem_ops: 0 event: 65220959
[cpu0_DISPATCH] entry:  18 instr_id: 69537834 fetched: 2 scheduled: 0 executed: 0 num_reg_dependent: 0 num_mem_ops: 1 event: 65220959
[cpu0_DISPATCH] entry:  19 instr_id: 69537835 fetched: 2 scheduled: 0 executed: 0 num_reg_dependent: 0 num_mem_ops: 1 event: 65220959
[cpu0_DISPATCH] entry:  20 instr_id: 69537836 fetched: 2 scheduled: 0 executed: 0 num_reg_dependent: 0 num_mem_ops: 1 event: 65220959
[cpu0_DISPATCH] entry:  21 instr_id: 69537837 fetched: 2 scheduled: 0 executed: 0 num_reg_dependent: 0 num_mem_ops: 1 event: 65220959
[cpu0_DISPATCH] entry:  22 instr_id: 69537838 fetched: 2 scheduled: 0 executed: 0 num_reg_dependent: 0 num_mem_ops: 0 event: 65220959
[cpu0_DISPATCH] entry:  23 instr_id: 69537839 fetched: 2 scheduled: 0 executed: 0 num_reg_dependent: 0 num_mem_ops: 0 event: 65220960
[cpu0_DISPATCH] entry:  24 instr_id: 69537840 fetched: 2 scheduled: 0 executed: 0 num_reg_dependent: 0 num_mem_ops: 1 event: 65220960
[cpu0_DISPATCH] entry:  25 instr_id: 69537841 fetched: 2 scheduled: 0 executed: 0 num_reg_dependent: 0 num_mem_ops: 0 event: 65220960
[cpu0_DISPATCH] entry:  26 instr_id: 69537842 fetched: 2 scheduled: 0 executed: 0 num_reg_dependent: 0 num_mem_ops: 0 event: 65220962
[cpu0_DISPATCH] entry:  27 instr_id: 69537843 fetched: 2 scheduled: 0 executed: 0 num_reg_dependent: 0 num_mem_ops: 1 event: 65220962
[cpu0_DISPATCH] entry:  28 instr_id: 69537844 fetched: 2 scheduled: 0 executed: 0 num_reg_dependent: 0 num_mem_ops: 1 event: 65220962
[cpu0_DISPATCH] entry:  29 instr_id: 69537845 fetched: 2 scheduled: 0 executed: 0 num_reg_dependent: 0 num_mem_ops: 1 event: 65220962
[cpu0_DISPATCH] entry:  30 instr_id: 69537846 fetched: 2 scheduled: 0 executed: 0 num_reg_dependent: 0 num_mem_ops: 1 event: 65220962
[cpu0_DISPATCH] entry:  31 instr_id: 69537847 fetched: 2 scheduled: 0 executed: 0 num_reg_dependent: 0 num_mem_ops: 0 event: 65220962

[cpu0_ROB] entry:   0 instr_id: 69537534 fetched: 2 scheduled: 2 executed: 1 num_reg_dependent: 0 num_mem_ops: 1 event: 65220063
[cpu0_ROB] entry:   1 instr_id: 69537535 fetched: 2 scheduled: 2 executed: 2 num_reg_dependent: 0 num_mem_ops: 0 event: 65220062
[cpu0_ROB] entry:   2 instr_id: 69537536 fetched: 2 scheduled: 2 executed: 2 num_reg_dependent: 0 num_mem_ops: 0 event: 65220063
[cpu0_ROB] entry:   3 instr_id: 69537537 fetched: 2 scheduled: 2 executed: 0 num_reg_dependent: 1 num_mem_ops: 0 event: 65220063
[cpu0_ROB] entry:   4 instr_id: 69537538 fetched: 2 scheduled: 2 executed: 1 num_reg_dependent: 0 num_mem_ops: 1 event: 65220064
[cpu0_ROB] entry:   5 instr_id: 69537539 fetched: 2 scheduled: 2 executed: 0 num_reg_dependent: 1 num_mem_ops: 0 event: 65220063
[cpu0_ROB] entry:   6 instr_id: 69537540 fetched: 2 scheduled: 2 executed: 2 num_reg_dependent: 0 num_mem_ops: 0 event: 65220066
[cpu0_ROB] entry:   7 instr_id: 69537541 fetched: 2 scheduled: 2 executed: 2 num_reg_dependent: 0 num_mem_ops: 0 event: 65220066
[cpu0_ROB] entry:   8 instr_id: 69537542 fetched: 2 scheduled: 2 executed: 2 num_reg_dependent: 0 num_mem_ops: 0 event: 65220066
[cpu0_ROB] entry:   9 instr_id: 69537543 fetched: 2 scheduled: 2 executed: 1 num_reg_dependent: 0 num_mem_ops: 1 event: 65220067
[cpu0_ROB] entry:  10 instr_id: 69537544 fetched: 2 scheduled: 2 executed: 2 num_reg_dependent: 0 num_mem_ops: 0 event: 65220066
[cpu0_ROB] entry:  11 instr_id: 69537545 fetched: 2 scheduled: 2 executed: 2 num_reg_dependent: 0 num_mem_ops: 0 event: 65220067
[cpu0_ROB] entry:  12 instr_id: 69537546 fetched: 2 scheduled: 2 executed: 0 num_reg_dependent: 1 num_mem_ops: 0 event: 65220066
[cpu0_ROB] entry:  13 instr_id: 69537547 fetched: 2 scheduled: 2 executed: 1 num_reg_dependent: 0 num_mem_ops: 1 event: 65220067
[cpu0_ROB] entry:  14 instr_id: 69537548 fetched: 2 scheduled: 2 executed: 0 num_reg_dependent: 1 num_mem_ops: 0 event: 65220066
[cpu0_ROB] entry:  15 instr_id: 69537549 fetched: 2 scheduled: 2 executed: 2 num_reg_dependent: 0 num_mem_ops: 0 event: 65220069
[cpu0_ROB] entry:  16 instr_id: 69537550 fetched: 2 scheduled: 2 executed: 2 num_reg_dependent: 0 num_mem_ops: 0 event: 65220069
[cpu0_ROB] entry:  17 instr_id: 69537551 fetched: 2 scheduled: 2 executed: 2 num_reg_dependent: 0 num_mem_ops: 0 event: 65220069
[cpu0_ROB] entry:  18 instr_id: 69537552 fetched: 2 scheduled: 2 executed: 1 num_reg_dependent: 0 num_mem_ops: 1 event: 65220070
[cpu0_ROB] entry:  19 instr_id: 69537553 fetched: 2 scheduled: 2 executed: 2 num_reg_dependent: 0 num_mem_ops: 0 event: 65220069
[cpu0_ROB] entry:  20 instr_id: 69537554 fetched: 2 scheduled: 2 executed: 2 num_reg_dependent: 0 num_mem_ops: 0 event: 65220070
[cpu0_ROB] entry:  21 instr_id: 69537555 fetched: 2 scheduled: 2 executed: 0 num_reg_dependent: 1 num_mem_ops: 0 event: 65220069
[cpu0_ROB] entry:  22 instr_id: 69537556 fetched: 2 scheduled: 2 executed: 1 num_reg_dependent: 0 num_mem_ops: 1 event: 65220070
[cpu0_ROB] entry:  23 instr_id: 69537557 fetched: 2 scheduled: 2 executed: 0 num_reg_dependent: 1 num_mem_ops: 0 event: 65220069
[cpu0_ROB] entry:  24 instr_id: 69537558 fetched: 2 scheduled: 2 executed: 2 num_reg_dependent: 0 num_mem_ops: 0 event: 65220072
[cpu0_ROB] entry:  25 instr_id: 69537559 fetched: 2 scheduled: 2 executed: 2 num_reg_dependent: 0 num_mem_ops: 0 event: 65220072
[cpu0_ROB] entry:  26 instr_id: 69537560 fetched: 2 scheduled: 2 executed: 2 num_reg_dependent: 0 num_mem_ops: 0 event: 65220072
[cpu0_ROB] entry:  27 instr_id: 69537561 fetched: 2 scheduled: 2 executed: 1 num_reg_dependent: 0 num_mem_ops: 1 event: 65220073
[cpu0_ROB] entry:  28 instr_id: 69537562 fetched: 2 scheduled: 2 executed: 2 num_reg_dependent: 0 num_mem_ops: 0 event: 65220072
[cpu0_ROB] entry:  29 instr_id: 69537563 fetched: 2 scheduled: 2 executed: 2 num_reg_dependent: 0 num_mem_ops: 0 event: 65220073
[cpu0_ROB] entry:  30 instr_id: 69537564 fetched: 2 scheduled: 2 executed: 0 num_reg_dependent: 1 num_mem_ops: 0 event: 65220072
[cpu0_ROB] entry:  31 instr_id: 69537565 fetched: 2 scheduled: 2 executed: 1 num_reg_dependent: 0 num_mem_ops: 1 event: 65220073
[cpu0_ROB] entry:  32 instr_id: 69537566 fetched: 2 scheduled: 2 executed: 0 num_reg_dependent: 1 num_mem_ops: 0 event: 65220074
[cpu0_ROB] entry:  33 instr_id: 69537567 fetched: 2 scheduled: 2 executed: 2 num_reg_dependent: 0 num_mem_ops: 0 event: 65220077
[cpu0_ROB] entry:  34 instr_id: 69537568 fetched: 2 scheduled: 2 executed: 2 num_reg_dependent: 0 num_mem_ops: 0 event: 65220077
[cpu0_ROB] entry:  35 instr_id: 69537569 fetched: 2 scheduled: 2 executed: 2 num_reg_dependent: 0 num_mem_ops: 0 event: 65220077
[cpu0_ROB] entry:  36 instr_id: 69537570 fetched: 2 scheduled: 2 executed: 1 num_reg_dependent: 0 num_mem_ops: 1 event: 65220078
[cpu0_ROB] entry:  37 instr_id: 69537571 fetched: 2 scheduled: 2 executed: 2 num_reg_dependent: 0 num_mem_ops: 0 event: 65220077
[cpu0_ROB] entry:  38 instr_id: 69537572 fetched: 2 scheduled: 2 executed: 2 num_reg_dependent: 0 num_mem_ops: 0 event: 65220078
[cpu0_ROB] entry:  39 instr_id: 69537573 fetched: 2 scheduled: 2 executed: 0 num_reg_dependent: 1 num_mem_ops: 0 event: 65220078
[cpu0_ROB] entry:  40 instr_id: 69537574 fetched: 2 scheduled: 2 executed: 1 num_reg_dependent: 0 num_mem_ops: 1 event: 65220079
[cpu0_ROB] entry:  41 instr_id: 69537575 fetched: 2 scheduled: 2 executed: 0 num_reg_dependent: 1 num_mem_ops: 0 event: 65220078
[cpu0_ROB] entry:  42 instr_id: 69537576 fetched: 2 scheduled: 2 executed: 2 num_reg_dependent: 0 num_mem_ops: 0 event: 65220081
[cpu0_ROB] entry:  43 instr_id: 69537577 fetched: 2 scheduled: 2 executed: 2 num_reg_dependent: 0 num_mem_ops: 0 event: 65220081
[cpu0_ROB] entry:  44 instr_id: 69537578 fetched: 2 scheduled: 2 executed: 2 num_reg_dependent: 0 num_mem_ops: 0 event: 65220081
[cpu0_ROB] entry:  45 instr_id: 69537579 fetched: 2 scheduled: 2 executed: 1 num_reg_dependent: 0 num_mem_ops: 1 event: 65220082
[cpu0_ROB] entry:  46 instr_id: 69537580 fetched: 2 scheduled: 2 executed: 2 num_reg_dependent: 0 num_mem_ops: 0 event: 65220081
[cpu0_ROB] entry:  47 instr_id: 69537581 fetched: 2 scheduled: 2 executed: 2 num_reg_dependent: 0 num_mem_ops: 0 event: 65220082
[cpu0_ROB] entry:  48 instr_id: 69537582 fetched: 2 scheduled: 2 executed: 0 num_reg_dependent: 1 num_mem_ops: 0 event: 65220081
[cpu0_ROB] entry:  49 instr_id: 69537583 fetched: 2 scheduled: 2 executed: 1 num_reg_dependent: 0 num_mem_ops: 1 event: 65220082
[cpu0_ROB] entry:  50 instr_id: 69537584 fetched: 2 scheduled: 2 executed: 0 num_reg_dependent: 1 num_mem_ops: 0 event: 65220081
[cpu0_ROB] entry:  51 instr_id: 69537585 fetched: 2 scheduled: 2 executed: 2 num_reg_dependent: 0 num_mem_ops: 0 event: 65220084
[cpu0_ROB] entry:  52 instr_id: 69537586 fetched: 2 scheduled: 2 executed: 2 num_reg_dependent: 0 num_mem_ops: 0 event: 65220084
[cpu0_ROB] entry:  53 instr_id: 69537587 fetched: 2 scheduled: 2 executed: 2 num_reg_dependent: 0 num_mem_ops: 0 event: 65220084
[cpu0_ROB] entry:  54 instr_id: 69537588 fetched: 2 scheduled: 2 executed: 1 num_reg_dependent: 0 num_mem_ops: 1 event: 65220085
[cpu0_ROB] entry:  55 instr_id: 69537589 fetched: 2 scheduled: 2 executed: 2 num_reg_dependent: 0 num_mem_ops: 0 event: 65220084
[cpu0_ROB] entry:  56 instr_id: 69537590 fetched: 2 scheduled: 2 executed: 2 num_reg_dependent: 0 num_mem_ops: 0 event: 65220085
[cpu0_ROB] entry:  57 instr_id: 69537591 fetched: 2 scheduled: 2 executed: 0 num_reg_dependent: 1 num_mem_ops: 0 event: 65220084
[cpu0_ROB] entry:  58 instr_id: 69537592 fetched: 2 scheduled: 2 executed: 1 num_reg_dependent: 0 num_mem_ops: 1 event: 65220085
[cpu0_ROB] entry:  59 instr_id: 69537593 fetched: 2 scheduled: 2 executed: 0 num_reg_dependent: 1 num_mem_ops: 0 event: 65220084
[cpu0_ROB] entry:  60 instr_id: 69537594 fetched: 2 scheduled: 2 executed: 2 num_reg_dependent: 0 num_mem_ops: 0 event: 65220087
[cpu0_ROB] entry:  61 instr_id: 69537595 fetched: 2 scheduled: 2 executed: 2 num_reg_dependent: 0 num_mem_ops: 0 event: 65220087
[cpu0_ROB] entry:  62 instr_id: 69537596 fetched: 2 scheduled: 2 executed: 2 num_reg_dependent: 0 num_mem_ops: 0 event: 65220087
[cpu0_ROB] entry:  63 instr_id: 69537597 fetched: 2 scheduled: 2 executed: 1 num_reg_dependent: 0 num_mem_ops: 1 event: 65220088
[cpu0_ROB] entry:  64 instr_id: 69537598 fetched: 2 scheduled: 2 executed: 2 num_reg_dependent: 0 num_mem_ops: 0 event: 65220087
[cpu0_ROB] entry:  65 instr_id: 69537599 fetched: 2 scheduled: 2 executed: 2 num_reg_dependent: 0 num_mem_ops: 0 event: 65220088
[cpu0_ROB] entry:  66 instr_id: 69537600 fetched: 2 scheduled: 2 executed: 0 num_reg_dependent: 1 num_mem_ops: 0 event: 65220087
[cpu0_ROB] entry:  67 instr_id: 69537601 fetched: 2 scheduled: 2 executed: 1 num_reg_dependent: 0 num_mem_ops: 1 event: 65220088
[cpu0_ROB] entry:  68 instr_id: 69537602 fetched: 2 scheduled: 2 executed: 0 num_reg_dependent: 1 num_mem_ops: 0 event: 65220089
[cpu0_ROB] entry:  69 instr_id: 69537603 fetched: 2 scheduled: 2 executed: 2 num_reg_dependent: 0 num_mem_ops: 0 event: 65220092
[cpu0_ROB] entry:  70 instr_id: 69537604 fetched: 2 scheduled: 2 executed: 2 num_reg_dependent: 0 num_mem_ops: 0 event: 65220092
[cpu0_ROB] entry:  71 instr_id: 69537605 fetched: 2 scheduled: 2 executed: 2 num_reg_dependent: 0 num_mem_ops: 0 event: 65220092
[cpu0_ROB] entry:  72 instr_id: 69537606 fetched: 2 scheduled: 2 executed: 1 num_reg_dependent: 0 num_mem_ops: 1 event: 65220093
[cpu0_ROB] entry:  73 instr_id: 69537607 fetched: 2 scheduled: 2 executed: 2 num_reg_dependent: 0 num_mem_ops: 0 event: 65220092
[cpu0_ROB] entry:  74 instr_id: 69537608 fetched: 2 scheduled: 2 executed: 2 num_reg_dependent: 0 num_mem_ops: 0 event: 65220093
[cpu0_ROB] entry:  75 instr_id: 69537609 fetched: 2 scheduled: 2 executed: 0 num_reg_dependent: 1 num_mem_ops: 0 event: 65220093
[cpu0_ROB] entry:  76 instr_id: 69537610 fetched: 2 scheduled: 2 executed: 1 num_reg_dependent: 0 num_mem_ops: 1 event: 65220094
[cpu0_ROB] entry:  77 instr_id: 69537611 fetched: 2 scheduled: 2 executed: 0 num_reg_dependent: 1 num_mem_ops: 0 event: 65220093
[cpu0_ROB] entry:  78 instr_id: 69537612 fetched: 2 scheduled: 2 executed: 2 num_reg_dependent: 0 num_mem_ops: 0 event: 65220096
[cpu0_ROB] entry:  79 instr_id: 69537613 fetched: 2 scheduled: 2 executed: 2 num_reg_dependent: 0 num_mem_ops: 0 event: 65220096
[cpu0_ROB] entry:  80 instr_id: 69537614 fetched: 2 scheduled: 2 executed: 2 num_reg_dependent: 0 num_mem_ops: 0 event: 65220096
[cpu0_ROB] entry:  81 instr_id: 69537615 fetched: 2 scheduled: 2 executed: 1 num_reg_dependent: 0 num_mem_ops: 1 event: 65220097
[cpu0_ROB] entry:  82 instr_id: 69537616 fetched: 2 scheduled: 2 executed: 2 num_reg_dependent: 0 num_mem_ops: 0 event: 65220096
[cpu0_ROB] entry:  83 instr_id: 69537617 fetched: 2 scheduled: 2 executed: 2 num_reg_dependent: 0 num_mem_ops: 0 event: 65220097
[cpu0_ROB] entry:  84 instr_id: 69537618 fetched: 2 scheduled: 2 executed: 0 num_reg_dependent: 1 num_mem_ops: 0 event: 65220096
[cpu0_ROB] entry:  85 instr_id: 69537619 fetched: 2 scheduled: 2 executed: 1 num_reg_dependent: 0 num_mem_ops: 1 event: 65220097
[cpu0_ROB] entry:  86 instr_id: 69537620 fetched: 2 scheduled: 2 executed: 0 num_reg_dependent: 1 num_mem_ops: 0 event: 65220096
[cpu0_ROB] entry:  87 instr_id: 69537621 fetched: 2 scheduled: 2 executed: 2 num_reg_dependent: 0 num_mem_ops: 0 event: 65220099
[cpu0_ROB] entry:  88 instr_id: 69537622 fetched: 2 scheduled: 2 executed: 2 num_reg_dependent: 0 num_mem_ops: 0 event: 65220099
[cpu0_ROB] entry:  89 instr_id: 69537623 fetched: 2 scheduled: 2 executed: 2 num_reg_dependent: 0 num_mem_ops: 0 event: 65220099
[cpu0_ROB] entry:  90 instr_id: 69537624 fetched: 2 scheduled: 2 executed: 1 num_reg_dependent: 0 num_mem_ops: 1 event: 65220100
[cpu0_ROB] entry:  91 instr_id: 69537625 fetched: 2 scheduled: 2 executed: 2 num_reg_dependent: 0 num_mem_ops: 0 event: 65220099
[cpu0_ROB] entry:  92 instr_id: 69537626 fetched: 2 scheduled: 2 executed: 2 num_reg_dependent: 0 num_mem_ops: 0 event: 65220100
[cpu0_ROB] entry:  93 instr_id: 69537627 fetched: 2 scheduled: 2 executed: 0 num_reg_dependent: 1 num_mem_ops: 0 event: 65220099
[cpu0_ROB] entry:  94 instr_id: 69537628 fetched: 2 scheduled: 2 executed: 1 num_reg_dependent: 0 num_mem_ops: 1 event: 65220100
[cpu0_ROB] entry:  95 instr_id: 69537629 fetched: 2 scheduled: 2 executed: 0 num_reg_dependent: 1 num_mem_ops: 0 event: 65220099
[cpu0_ROB] entry:  96 instr_id: 69537630 fetched: 2 scheduled: 2 executed: 2 num_reg_dependent: 0 num_mem_ops: 0 event: 65220102
[cpu0_ROB] entry:  97 instr_id: 69537631 fetched: 2 scheduled: 2 executed: 2 num_reg_dependent: 0 num_mem_ops: 0 event: 65220102
[cpu0_ROB] entry:  98 instr_id: 69537632 fetched: 2 scheduled: 2 executed: 2 num_reg_dependent: 0 num_mem_ops: 0 event: 65220102
[cpu0_ROB] entry:  99 instr_id: 69537633 fetched: 2 scheduled: 2 executed: 1 num_reg_dependent: 0 num_mem_ops: 1 event: 65220103
[cpu0_ROB] entry: 100 instr_id: 69537634 fetched: 2 scheduled: 2 executed: 2 num_reg_dependent: 0 num_mem_ops: 0 event: 65220102
[cpu0_ROB] entry: 101 instr_id: 69537635 fetched: 2 scheduled: 2 executed: 2 num_reg_dependent: 0 num_mem_ops: 0 event: 65220103
[cpu0_ROB] entry: 102 instr_id: 69537636 fetched: 2 scheduled: 2 executed: 0 num_reg_dependent: 1 num_mem_ops: 0 event: 65220102
[cpu0_ROB] entry: 103 instr_id: 69537637 fetched: 2 scheduled: 2 executed: 1 num_reg_dependent: 0 num_mem_ops: 1 event: 65220103
[cpu0_ROB] entry: 104 instr_id: 69537638 fetched: 2 scheduled: 2 executed: 0 num_reg_dependent: 1 num_mem_ops: 0 event: 65220104
[cpu0_ROB] entry: 105 instr_id: 69537639 fetched: 2 scheduled: 2 executed: 2 num_reg_dependent: 0 num_mem_ops: 0 event: 65220107
[cpu0_ROB] entry: 106 instr_id: 69537640 fetched: 2 scheduled: 2 executed: 2 num_reg_dependent: 0 num_mem_ops: 0 event: 65220107
[cpu0_ROB] entry: 107 instr_id: 69537641 fetched: 2 scheduled: 2 executed: 2 num_reg_dependent: 0 num_mem_ops: 0 event: 65220107
[cpu0_ROB] entry: 108 instr_id: 69537642 fetched: 2 scheduled: 2 executed: 1 num_reg_dependent: 0 num_mem_ops: 1 event: 65220108
[cpu0_ROB] entry: 109 instr_id: 69537643 fetched: 2 scheduled: 2 executed: 2 num_reg_dependent: 0 num_mem_ops: 0 event: 65220107
[cpu0_ROB] entry: 110 instr_id: 69537644 fetched: 2 scheduled: 2 executed: 2 num_reg_dependent: 0 num_mem_ops: 0 event: 65220108
[cpu0_ROB] entry: 111 instr_id: 69537645 fetched: 2 scheduled: 2 executed: 0 num_reg_dependent: 1 num_mem_ops: 0 event: 65220108
[cpu0_ROB] entry: 112 instr_id: 69537646 fetched: 2 scheduled: 2 executed: 1 num_reg_dependent: 0 num_mem_ops: 1 event: 65220109
[cpu0_ROB] entry: 113 instr_id: 69537647 fetched: 2 scheduled: 2 executed: 0 num_reg_dependent: 1 num_mem_ops: 0 event: 65220108
[cpu0_ROB] entry: 114 instr_id: 69537648 fetched: 2 scheduled: 2 executed: 2 num_reg_dependent: 0 num_mem_ops: 0 event: 65220111
[cpu0_ROB] entry: 115 instr_id: 69537649 fetched: 2 scheduled: 2 executed: 2 num_reg_dependent: 0 num_mem_ops: 0 event: 65220111
[cpu0_ROB] entry: 116 instr_id: 69537650 fetched: 2 scheduled: 2 executed: 2 num_reg_dependent: 0 num_mem_ops: 0 event: 65220111
[cpu0_ROB] entry: 117 instr_id: 69537651 fetched: 2 scheduled: 2 executed: 1 num_reg_dependent: 0 num_mem_ops: 1 event: 65220112
[cpu0_ROB] entry: 118 instr_id: 69537652 fetched: 2 scheduled: 2 executed: 2 num_reg_dependent: 0 num_mem_ops: 0 event: 65220111
[cpu0_ROB] entry: 119 instr_id: 69537653 fetched: 2 scheduled: 2 executed: 2 num_reg_dependent: 0 num_mem_ops: 0 event: 65220112
[cpu0_ROB] entry: 120 instr_id: 69537654 fetched: 2 scheduled: 2 executed: 0 num_reg_dependent: 1 num_mem_ops: 0 event: 65220111
[cpu0_ROB] entry: 121 instr_id: 69537655 fetched: 2 scheduled: 2 executed: 1 num_reg_dependent: 0 num_mem_ops: 1 event: 65220112
[cpu0_ROB] entry: 122 instr_id: 69537656 fetched: 2 scheduled: 2 executed: 0 num_reg_dependent: 1 num_mem_ops: 0 event: 65220111
[cpu0_ROB] entry: 123 instr_id: 69537657 fetched: 2 scheduled: 2 executed: 2 num_reg_dependent: 0 num_mem_ops: 0 event: 65220114
[cpu0_ROB] entry: 124 instr_id: 69537658 fetched: 2 scheduled: 2 executed: 2 num_reg_dependent: 0 num_mem_ops: 0 event: 65220114
[cpu0_ROB] entry: 125 instr_id: 69537659 fetched: 2 scheduled: 2 executed: 2 num_reg_dependent: 0 num_mem_ops: 0 event: 65220114
[cpu0_ROB] entry: 126 instr_id: 69537660 fetched: 2 scheduled: 2 executed: 1 num_reg_dependent: 0 num_mem_ops: 1 event: 65220115
[cpu0_ROB] entry: 127 instr_id: 69537661 fetched: 2 scheduled: 2 executed: 2 num_reg_dependent: 0 num_mem_ops: 0 event: 65220114
[cpu0_ROB] entry: 128 instr_id: 69537662 fetched: 2 scheduled: 2 executed: 2 num_reg_dependent: 0 num_mem_ops: 0 event: 65220115
[cpu0_ROB] entry: 129 instr_id: 69537663 fetched: 2 scheduled: 2 executed: 0 num_reg_dependent: 1 num_mem_ops: 0 event: 65220114
[cpu0_ROB] entry: 130 instr_id: 69537664 fetched: 2 scheduled: 2 executed: 1 num_reg_dependent: 0 num_mem_ops: 1 event: 65220115
[cpu0_ROB] entry: 131 instr_id: 69537665 fetched: 2 scheduled: 2 executed: 0 num_reg_dependent: 1 num_mem_ops: 0 event: 65220114
[cpu0_ROB] entry: 132 instr_id: 69537666 fetched: 2 scheduled: 2 executed: 2 num_reg_dependent: 0 num_mem_ops: 0 event: 65220117
[cpu0_ROB] entry: 133 instr_id: 69537667 fetched: 2 scheduled: 2 executed: 2 num_reg_dependent: 0 num_mem_ops: 0 event: 65220117
[cpu0_ROB] entry: 134 instr_id: 69537668 fetched: 2 scheduled: 2 executed: 2 num_reg_dependent: 0 num_mem_ops: 0 event: 65220117
[cpu0_ROB] entry: 135 instr_id: 69537669 fetched: 2 scheduled: 2 executed: 1 num_reg_dependent: 0 num_mem_ops: 1 event: 65220118
[cpu0_ROB] entry: 136 instr_id: 69537670 fetched: 2 scheduled: 2 executed: 2 num_reg_dependent: 0 num_mem_ops: 0 event: 65220117
[cpu0_ROB] entry: 137 instr_id: 69537671 fetched: 2 scheduled: 2 executed: 2 num_reg_dependent: 0 num_mem_ops: 0 event: 65220118
[cpu0_ROB] entry: 138 instr_id: 69537672 fetched: 2 scheduled: 2 executed: 0 num_reg_dependent: 1 num_mem_ops: 0 event: 65220117
[cpu0_ROB] entry: 139 instr_id: 69537673 fetched: 2 scheduled: 2 executed: 1 num_reg_dependent: 0 num_mem_ops: 1 event: 65220118
[cpu0_ROB] entry: 140 instr_id: 69537674 fetched: 2 scheduled: 2 executed: 0 num_reg_dependent: 1 num_mem_ops: 0 event: 65220119
[cpu0_ROB] entry: 141 instr_id: 69537675 fetched: 2 scheduled: 2 executed: 2 num_reg_dependent: 0 num_mem_ops: 0 event: 65220122
[cpu0_ROB] entry: 142 instr_id: 69537676 fetched: 2 scheduled: 2 executed: 2 num_reg_dependent: 0 num_mem_ops: 0 event: 65220122
[cpu0_ROB] entry: 143 instr_id: 69537677 fetched: 2 scheduled: 2 executed: 2 num_reg_dependent: 0 num_mem_ops: 0 event: 65220122
[cpu0_ROB] entry: 144 instr_id: 69537678 fetched: 2 scheduled: 2 executed: 1 num_reg_dependent: 0 num_mem_ops: 1 event: 65220123
[cpu0_ROB] entry: 145 instr_id: 69537679 fetched: 2 scheduled: 2 executed: 2 num_reg_dependent: 0 num_mem_ops: 0 event: 65220122
[cpu0_ROB] entry: 146 instr_id: 69537680 fetched: 2 scheduled: 2 executed: 2 num_reg_dependent: 0 num_mem_ops: 0 event: 65220123
[cpu0_ROB] entry: 147 instr_id: 69537681 fetched: 2 scheduled: 2 executed: 0 num_reg_dependent: 1 num_mem_ops: 0 event: 65220123
[cpu0_ROB] entry: 148 instr_id: 69537682 fetched: 2 scheduled: 2 executed: 1 num_reg_dependent: 0 num_mem_ops: 1 event: 65220124
[cpu0_ROB] entry: 149 instr_id: 69537683 fetched: 2 scheduled: 2 executed: 0 num_reg_dependent: 1 num_mem_ops: 0 event: 65220123
[cpu0_ROB] entry: 150 instr_id: 69537684 fetched: 2 scheduled: 2 executed: 2 num_reg_dependent: 0 num_mem_ops: 0 event: 65220126
[cpu0_ROB] entry: 151 instr_id: 69537685 fetched: 2 scheduled: 2 executed: 2 num_reg_dependent: 0 num_mem_ops: 0 event: 65220126
[cpu0_ROB] entry: 152 instr_id: 69537686 fetched: 2 scheduled: 2 executed: 2 num_reg_dependent: 0 num_mem_ops: 0 event: 65220126
[cpu0_ROB] entry: 153 instr_id: 69537687 fetched: 2 scheduled: 2 executed: 1 num_reg_dependent: 0 num_mem_ops: 1 event: 65220127
[cpu0_ROB] entry: 154 instr_id: 69537688 fetched: 2 scheduled: 2 executed: 2 num_reg_dependent: 0 num_mem_ops: 0 event: 65220126
[cpu0_ROB] entry: 155 instr_id: 69537689 fetched: 2 scheduled: 2 executed: 2 num_reg_dependent: 0 num_mem_ops: 0 event: 65220127
[cpu0_ROB] entry: 156 instr_id: 69537690 fetched: 2 scheduled: 2 executed: 0 num_reg_dependent: 1 num_mem_ops: 0 event: 65220126
[cpu0_ROB] entry: 157 instr_id: 69537691 fetched: 2 scheduled: 2 executed: 1 num_reg_dependent: 0 num_mem_ops: 1 event: 65220127
[cpu0_ROB] entry: 158 instr_id: 69537692 fetched: 2 scheduled: 2 executed: 0 num_reg_dependent: 1 num_mem_ops: 0 event: 65220126
[cpu0_ROB] entry: 159 instr_id: 69537693 fetched: 2 scheduled: 2 executed: 2 num_reg_dependent: 0 num_mem_ops: 0 event: 65220129
[cpu0_ROB] entry: 160 instr_id: 69537694 fetched: 2 scheduled: 2 executed: 2 num_reg_dependent: 0 num_mem_ops: 0 event: 65220129
[cpu0_ROB] entry: 161 instr_id: 69537695 fetched: 2 scheduled: 2 executed: 2 num_reg_dependent: 0 num_mem_ops: 0 event: 65220129
[cpu0_ROB] entry: 162 instr_id: 69537696 fetched: 2 scheduled: 2 executed: 1 num_reg_dependent: 0 num_mem_ops: 1 event: 65220130
[cpu0_ROB] entry: 163 instr_id: 69537697 fetched: 2 scheduled: 2 executed: 2 num_reg_dependent: 0 num_mem_ops: 0 event: 65220129
[cpu0_ROB] entry: 164 instr_id: 69537698 fetched: 2 scheduled: 2 executed: 2 num_reg_dependent: 0 num_mem_ops: 0 event: 65220130
[cpu0_ROB] entry: 165 instr_id: 69537699 fetched: 2 scheduled: 2 executed: 0 num_reg_dependent: 1 num_mem_ops: 0 event: 65220129
[cpu0_ROB] entry: 166 instr_id: 69537700 fetched: 2 scheduled: 2 executed: 1 num_reg_dependent: 0 num_mem_ops: 1 event: 65220130
[cpu0_ROB] entry: 167 instr_id: 69537701 fetched: 2 scheduled: 2 executed: 0 num_reg_dependent: 1 num_mem_ops: 0 event: 65220129
[cpu0_ROB] entry: 168 instr_id: 69537702 fetched: 2 scheduled: 2 executed: 2 num_reg_dependent: 0 num_mem_ops: 0 event: 65220132
[cpu0_ROB] entry: 169 instr_id: 69537703 fetched: 2 scheduled: 2 executed: 2 num_reg_dependent: 0 num_mem_ops: 0 event: 65220132
[cpu0_ROB] entry: 170 instr_id: 69537704 fetched: 2 scheduled: 2 executed: 2 num_reg_dependent: 0 num_mem_ops: 0 event: 65220132
[cpu0_ROB] entry: 171 instr_id: 69537705 fetched: 2 scheduled: 2 executed: 1 num_reg_dependent: 0 num_mem_ops: 1 event: 65220133
[cpu0_ROB] entry: 172 instr_id: 69537706 fetched: 2 scheduled: 2 executed: 2 num_reg_dependent: 0 num_mem_ops: 0 event: 65220132
[cpu0_ROB] entry: 173 instr_id: 69537707 fetched: 2 scheduled: 2 executed: 2 num_reg_dependent: 0 num_mem_ops: 0 event: 65220133
[cpu0_ROB] entry: 174 instr_id: 69537708 fetched: 2 scheduled: 2 executed: 0 num_reg_dependent: 1 num_mem_ops: 0 event: 65220132
[cpu0_ROB] entry: 175 instr_id: 69537709 fetched: 2 scheduled: 2 executed: 1 num_reg_dependent: 0 num_mem_ops: 1 event: 65220133
[cpu0_ROB] entry: 176 instr_id: 69537710 fetched: 2 scheduled: 2 executed: 0 num_reg_dependent: 1 num_mem_ops: 0 event: 65220134
[cpu0_ROB] entry: 177 instr_id: 69537711 fetched: 2 scheduled: 2 executed: 2 num_reg_dependent: 0 num_mem_ops: 0 event: 65220137
[cpu0_ROB] entry: 178 instr_id: 69537712 fetched: 2 scheduled: 2 executed: 2 num_reg_dependent: 0 num_mem_ops: 0 event: 65220137
[cpu0_ROB] entry: 179 instr_id: 69537713 fetched: 2 scheduled: 2 executed: 2 num_reg_dependent: 0 num_mem_ops: 0 event: 65220137
[cpu0_ROB] entry: 180 instr_id: 69537714 fetched: 2 scheduled: 2 executed: 1 num_reg_dependent: 0 num_mem_ops: 1 event: 65220138
[cpu0_ROB] entry: 181 instr_id: 69537715 fetched: 2 scheduled: 2 executed: 2 num_reg_dependent: 0 num_mem_ops: 0 event: 65220137
[cpu0_ROB] entry: 182 instr_id: 69537716 fetched: 2 scheduled: 2 executed: 2 num_reg_dependent: 0 num_mem_ops: 0 event: 65220138
[cpu0_ROB] entry: 183 instr_id: 69537717 fetched: 2 scheduled: 2 executed: 0 num_reg_dependent: 1 num_mem_ops: 0 event: 65220138
[cpu0_ROB] entry: 184 instr_id: 69537718 fetched: 2 scheduled: 2 executed: 1 num_reg_dependent: 0 num_mem_ops: 1 event: 65220139
[...]
[cpu0_SQ] entry:  75 instr_id: 69537717 address: 0x48d3440 fetch_issued: true event_cycle: 65220136 LQ waiting: []
[cpu0_SQ] entry:  76 instr_id: 69537719 address: 0x48ad440 fetch_issued: true event_cycle: 65220136 LQ waiting: []
[cpu0_SQ] entry:  77 instr_id: 69537720 address: 0x48f9440 fetch_issued: true event_cycle: 65220141 LQ waiting: []
[cpu0_SQ] entry:  78 instr_id: 69537726 address: 0x48d3450 fetch_issued: true event_cycle: 65220139 LQ waiting: []
[cpu0_SQ] entry:  79 instr_id: 69537728 address: 0x48ad450 fetch_issued: true event_cycle: 65220139 LQ waiting: []
[cpu0_SQ] entry:  80 instr_id: 69537729 address: 0x48f9450 fetch_issued: true event_cycle: 65220144 LQ waiting: []
[cpu0_SQ] entry:  81 instr_id: 69537735 address: 0x48d3460 fetch_issued: true event_cycle: 65220142 LQ waiting: []
[cpu0_SQ] entry:  82 instr_id: 69537737 address: 0x48ad460 fetch_issued: true event_cycle: 65220142 LQ waiting: []
[cpu0_SQ] entry:  83 instr_id: 69537738 address: 0x48f9460 fetch_issued: true event_cycle: 65220147 LQ waiting: []
[cpu0_SQ] entry:  84 instr_id: 69537744 address: 0x48d3470 fetch_issued: true event_cycle: 65220933 LQ waiting: []
[cpu0_SQ] entry:  85 instr_id: 69537744 address: 0x48d3480 fetch_issued: true event_cycle: 65220933 LQ waiting: []
[cpu0_SQ] entry:  86 instr_id: 69537746 address: 0x48ad470 fetch_issued: true event_cycle: 65220935 LQ waiting: []
[cpu0_SQ] entry:  87 instr_id: 69537746 address: 0x48ad480 fetch_issued: true event_cycle: 65220935 LQ waiting: []
[cpu0_SQ] entry:  88 instr_id: 69537747 address: 0x48f9470 fetch_issued: true event_cycle: 65220940 LQ waiting: []
[cpu0_SQ] entry:  89 instr_id: 69537747 address: 0x48f9480 fetch_issued: true event_cycle: 65220940 LQ waiting: []
[cpu0_SQ] entry:  90 instr_id: 69537753 address: 0x48d3480 fetch_issued: true event_cycle: 65220939 LQ waiting: []
[cpu0_SQ] entry:  91 instr_id: 69537755 address: 0x48ad480 fetch_issued: true event_cycle: 65220939 LQ waiting: []
[cpu0_SQ] entry:  92 instr_id: 69537756 address: 0x48f9480 fetch_issued: true event_cycle: 65220944 LQ waiting: []
[cpu0_SQ] entry:  93 instr_id: 69537762 address: 0x48d3490 fetch_issued: true event_cycle: 65220942 LQ waiting: []
[cpu0_SQ] entry:  94 instr_id: 69537764 address: 0x48ad490 fetch_issued: true event_cycle: 65220942 LQ waiting: []
[cpu0_SQ] entry:  95 instr_id: 69537765 address: 0x48f9490 fetch_issued: true event_cycle: 65220947 LQ waiting: []
[cpu0_SQ] entry:  96 instr_id: 69537771 address: 0x48d34a0 fetch_issued: true event_cycle: 65220945 LQ waiting: []
[cpu0_SQ] entry:  97 instr_id: 69537773 address: 0x48ad4a0 fetch_issued: true event_cycle: 65220945 LQ waiting: []
[cpu0_SQ] entry:  98 instr_id: 69537774 address: 0x48f94a0 fetch_issued: true event_cycle: 65220950 LQ waiting: []
[cpu0_SQ] entry:  99 instr_id: 69537780 address: 0x48d34b0 fetch_issued: true event_cycle: 65220948 LQ waiting: []
[cpu0_SQ] entry: 100 instr_id: 69537780 address: 0x48d34c0 fetch_issued: true event_cycle: 65220948 LQ waiting: []
[cpu0_SQ] entry: 101 instr_id: 69537782 address: 0x48ad4b0 fetch_issued: true event_cycle: 65220950 LQ waiting: []
[cpu0_SQ] entry: 102 instr_id: 69537782 address: 0x48ad4c0 fetch_issued: true event_cycle: 65220950 LQ waiting: []
[cpu0_SQ] entry: 103 instr_id: 69537783 address: 0x48f94b0 fetch_issued: true event_cycle: 65220955 LQ waiting: []
[cpu0_SQ] entry: 104 instr_id: 69537783 address: 0x48f94c0 fetch_issued: true event_cycle: 65220955 LQ waiting: []
[cpu0_SQ] entry: 105 instr_id: 69537789 address: 0x48d34c0 fetch_issued: true event_cycle: 65220954 LQ waiting: []
[cpu0_SQ] entry: 106 instr_id: 69537791 address: 0x48ad4c0 fetch_issued: true event_cycle: 65220954 LQ waiting: []
[cpu0_SQ] entry: 107 instr_id: 69537792 address: 0x48f94c0 fetch_issued: true event_cycle: 65220959 LQ waiting: []
[cpu0_SQ] entry: 108 instr_id: 69537798 address: 0x48d34d0 fetch_issued: true event_cycle: 65220957 LQ waiting: []
[cpu0_SQ] entry: 109 instr_id: 69537800 address: 0x48ad4d0 fetch_issued: true event_cycle: 65220957 LQ waiting: []
[cpu0_SQ] entry: 110 instr_id: 69537801 address: 0x48f94d0 fetch_issued: true event_cycle: 65220962 LQ waiting: []
[cpu0_SQ] entry: 111 instr_id: 69537807 address: 0x48d34e0 fetch_issued: true event_cycle: 65220960 LQ waiting: []
[cpu0_SQ] entry: 112 instr_id: 69537809 address: 0x48ad4e0 fetch_issued: true event_cycle: 65220960 LQ waiting: []
[cpu0_SQ] entry: 113 instr_id: 69537810 address: 0x48f94e0 fetch_issued: true event_cycle: 65220965 LQ waiting: []

LLC_MSHR empty

LLC_tags empty

LLC_translation empty

LLC_RQ empty

LLC_WQ empty

LLC_PQ empty

[cpu0_DTLB_MSHR] entry:   0 instr_id: 69537243 address: 0x48f90f0 v_addr: 0x48f90f0 type: LOAD event: 18446744073709551615

cpu0_DTLB_tags empty

cpu0_DTLB_translation empty

cpu0_DTLB_RQ empty

cpu0_DTLB_WQ empty

cpu0_DTLB_PQ empty

cpu0_ITLB_MSHR empty

cpu0_ITLB_tags empty

cpu0_ITLB_translation empty

cpu0_ITLB_RQ empty

cpu0_ITLB_WQ empty

cpu0_ITLB_PQ empty

cpu0_L1D_MSHR empty

cpu0_L1D_tags empty

[cpu0_L1D_translation] entry:   0 instr_id: 69537099 address: 0x48f9000 v_addr: 0x48f9000 is_translated: false translate_issued: true event_cycle: 65219409
[cpu0_L1D_translation] entry:   1 instr_id: 69537117 address: 0x48f9010 v_addr: 0x48f9010 is_translated: false translate_issued: true event_cycle: 65219410
[cpu0_L1D_translation] entry:   2 instr_id: 69537126 address: 0x48f9020 v_addr: 0x48f9020 is_translated: false translate_issued: true event_cycle: 65219415
[cpu0_L1D_translation] entry:   3 instr_id: 69537135 address: 0x48f9030 v_addr: 0x48f9030 is_translated: false translate_issued: true event_cycle: 65219420
[cpu0_L1D_translation] entry:   4 instr_id: 69537135 address: 0x48f9040 v_addr: 0x48f9040 is_translated: false translate_issued: true event_cycle: 65219420
[cpu0_L1D_translation] entry:   5 instr_id: 69537144 address: 0x48f9040 v_addr: 0x48f9040 is_translated: false translate_issued: true event_cycle: 65219731
[cpu0_L1D_translation] entry:   6 instr_id: 69537153 address: 0x48f9050 v_addr: 0x48f9050 is_translated: false translate_issued: true event_cycle: 65219732
[cpu0_L1D_translation] entry:   7 instr_id: 69537162 address: 0x48f9060 v_addr: 0x48f9060 is_translated: false translate_issued: true event_cycle: 65219733
[cpu0_L1D_translation] entry:   8 instr_id: 69537171 address: 0x48f9070 v_addr: 0x48f9070 is_translated: false translate_issued: true event_cycle: 65219736
[cpu0_L1D_translation] entry:   9 instr_id: 69537171 address: 0x48f9080 v_addr: 0x48f9080 is_translated: false translate_issued: true event_cycle: 65219737
[cpu0_L1D_translation] entry:  10 instr_id: 69537189 address: 0x48f9090 v_addr: 0x48f9090 is_translated: false translate_issued: true event_cycle: 65219738
[cpu0_L1D_translation] entry:  11 instr_id: 69537198 address: 0x48f90a0 v_addr: 0x48f90a0 is_translated: false translate_issued: true event_cycle: 65219739
[cpu0_L1D_translation] entry:  12 instr_id: 69537207 address: 0x48f90b0 v_addr: 0x48f90b0 is_translated: false translate_issued: true event_cycle: 65219743
[cpu0_L1D_translation] entry:  13 instr_id: 69537207 address: 0x48f90c0 v_addr: 0x48f90c0 is_translated: false translate_issued: true event_cycle: 65219744
[cpu0_L1D_translation] entry:  14 instr_id: 69537216 address: 0x48f90c0 v_addr: 0x48f90c0 is_translated: false translate_issued: true event_cycle: 65219937
[cpu0_L1D_translation] entry:  15 instr_id: 69537225 address: 0x48f90d0 v_addr: 0x48f90d0 is_translated: false translate_issued: true event_cycle: 65219938
[cpu0_L1D_translation] entry:  16 instr_id: 69537234 address: 0x48f90e0 v_addr: 0x48f90e0 is_translated: false translate_issued: true event_cycle: 65219939
[cpu0_L1D_translation] entry:  17 instr_id: 69537243 address: 0x48f90f0 v_addr: 0x48f90f0 is_translated: false translate_issued: true event_cycle: 65219943

cpu0_L1D_RQ empty

cpu0_L1D_WQ empty

cpu0_L1D_PQ empty

[cpu0_L1D_RQ] entry:   0 instr_id: 69537516 address: 0x3a572e0 v_addr: 0x3a572e0 type: LOAD translated: false
[cpu0_L1D_RQ] entry:   1 instr_id: 69537529 address: 0x34432f0 v_addr: 0x34432f0 type: LOAD translated: false
[cpu0_L1D_RQ] entry:   2 instr_id: 69537534 address: 0x3a57300 v_addr: 0x3a57300 type: LOAD translated: false
[cpu0_L1D_RQ] entry:   3 instr_id: 69537538 address: 0x3443300 v_addr: 0x3443300 type: LOAD translated: false
[cpu0_L1D_RQ] entry:   4 instr_id: 69537570 address: 0x3a57340 v_addr: 0x3a57340 type: LOAD translated: false
[cpu0_L1D_RQ] entry:   5 instr_id: 69537574 address: 0x3443340 v_addr: 0x3443340 type: LOAD translated: false
[cpu0_L1D_RQ] entry:   6 instr_id: 69537606 address: 0x3a57380 v_addr: 0x3a57380 type: LOAD translated: false
[cpu0_L1D_RQ] entry:   7 instr_id: 69537610 address: 0x3443380 v_addr: 0x3443380 type: LOAD translated: false
[cpu0_L1D_RQ] entry:   8 instr_id: 69537642 address: 0x3a573c0 v_addr: 0x3a573c0 type: LOAD translated: false
[cpu0_L1D_RQ] entry:   9 instr_id: 69537646 address: 0x34433c0 v_addr: 0x34433c0 type: LOAD translated: false
[cpu0_L1D_RQ] entry:  10 instr_id: 69537678 address: 0x3a57400 v_addr: 0x3a57400 type: LOAD translated: false
[cpu0_L1D_RQ] entry:  11 instr_id: 69537682 address: 0x3443400 v_addr: 0x3443400 type: LOAD translated: false
[cpu0_L1D_RQ] entry:  12 instr_id: 69537714 address: 0x3a57440 v_addr: 0x3a57440 type: LOAD translated: false
[cpu0_L1D_RQ] entry:  13 instr_id: 69537718 address: 0x3443440 v_addr: 0x3443440 type: LOAD translated: false
[cpu0_L1D_RQ] entry:  14 instr_id: 69537750 address: 0x3a57480 v_addr: 0x3a57480 type: LOAD translated: false
[cpu0_L1D_RQ] entry:  15 instr_id: 69537754 address: 0x3443480 v_addr: 0x3443480 type: LOAD translated: false
[cpu0_L1D_RQ] entry:  16 instr_id: 69537786 address: 0x3a574c0 v_addr: 0x3a574c0 type: LOAD translated: false
[cpu0_L1D_RQ] entry:  17 instr_id: 69537790 address: 0x34434c0 v_addr: 0x34434c0 type: LOAD translated: false

[cpu0_L1D_WQ] entry:   0 instr_id: 69537243 address: 0x48f9100 v_addr: 0x48f9100 type: WRITE translated: false
[cpu0_L1D_WQ] entry:   1 instr_id: 69537249 address: 0x48d3100 v_addr: 0x48d3100 type: WRITE translated: false
[cpu0_L1D_WQ] entry:   2 instr_id: 69537251 address: 0x48ad100 v_addr: 0x48ad100 type: WRITE translated: false
[cpu0_L1D_WQ] entry:   3 instr_id: 69537258 address: 0x48d3110 v_addr: 0x48d3110 type: WRITE translated: false
[cpu0_L1D_WQ] entry:   4 instr_id: 69537260 address: 0x48ad110 v_addr: 0x48ad110 type: WRITE translated: false
[cpu0_L1D_WQ] entry:   5 instr_id: 69537261 address: 0x48f9110 v_addr: 0x48f9110 type: WRITE translated: false
[cpu0_L1D_WQ] entry:   6 instr_id: 69537267 address: 0x48d3120 v_addr: 0x48d3120 type: WRITE translated: false
[cpu0_L1D_WQ] entry:   7 instr_id: 69537269 address: 0x48ad120 v_addr: 0x48ad120 type: WRITE translated: false
[cpu0_L1D_WQ] entry:   8 instr_id: 69537270 address: 0x48f9120 v_addr: 0x48f9120 type: WRITE translated: false
[cpu0_L1D_WQ] entry:   9 instr_id: 69537276 address: 0x48d3130 v_addr: 0x48d3130 type: WRITE translated: false
[cpu0_L1D_WQ] entry:  10 instr_id: 69537276 address: 0x48d3140 v_addr: 0x48d3140 type: WRITE translated: false
[cpu0_L1D_WQ] entry:  11 instr_id: 69537278 address: 0x48ad130 v_addr: 0x48ad130 type: WRITE translated: false
[cpu0_L1D_WQ] entry:  12 instr_id: 69537278 address: 0x48ad140 v_addr: 0x48ad140 type: WRITE translated: false
[cpu0_L1D_WQ] entry:  13 instr_id: 69537279 address: 0x48f9130 v_addr: 0x48f9130 type: WRITE translated: false
[cpu0_L1D_WQ] entry:  14 instr_id: 69537279 address: 0x48f9140 v_addr: 0x48f9140 type: WRITE translated: false
[cpu0_L1D_WQ] entry:  15 instr_id: 69537294 address: 0x48d3150 v_addr: 0x48d3150 type: WRITE translated: false
[cpu0_L1D_WQ] entry:  16 instr_id: 69537296 address: 0x48ad150 v_addr: 0x48ad150 type: WRITE translated: false
[cpu0_L1D_WQ] entry:  17 instr_id: 69537297 address: 0x48f9150 v_addr: 0x48f9150 type: WRITE translated: false
[cpu0_L1D_WQ] entry:  18 instr_id: 69537303 address: 0x48d3160 v_addr: 0x48d3160 type: WRITE translated: false
[cpu0_L1D_WQ] entry:  19 instr_id: 69537305 address: 0x48ad160 v_addr: 0x48ad160 type: WRITE translated: false
[cpu0_L1D_WQ] entry:  20 instr_id: 69537306 address: 0x48f9160 v_addr: 0x48f9160 type: WRITE translated: false
[cpu0_L1D_WQ] entry:  21 instr_id: 69537312 address: 0x48d3170 v_addr: 0x48d3170 type: WRITE translated: false
[cpu0_L1D_WQ] entry:  22 instr_id: 69537312 address: 0x48d3180 v_addr: 0x48d3180 type: WRITE translated: false
[cpu0_L1D_WQ] entry:  23 instr_id: 69537314 address: 0x48ad170 v_addr: 0x48ad170 type: WRITE translated: false
[cpu0_L1D_WQ] entry:  24 instr_id: 69537314 address: 0x48ad180 v_addr: 0x48ad180 type: WRITE translated: false
[cpu0_L1D_WQ] entry:  25 instr_id: 69537315 address: 0x48f9170 v_addr: 0x48f9170 type: WRITE translated: false
[cpu0_L1D_WQ] entry:  26 instr_id: 69537315 address: 0x48f9180 v_addr: 0x48f9180 type: WRITE translated: false
[cpu0_L1D_WQ] entry:  27 instr_id: 69537330 address: 0x48d3190 v_addr: 0x48d3190 type: WRITE translated: false
[cpu0_L1D_WQ] entry:  28 instr_id: 69537332 address: 0x48ad190 v_addr: 0x48ad190 type: WRITE translated: false
[cpu0_L1D_WQ] entry:  29 instr_id: 69537333 address: 0x48f9190 v_addr: 0x48f9190 type: WRITE translated: false
[cpu0_L1D_WQ] entry:  30 instr_id: 69537339 address: 0x48d31a0 v_addr: 0x48d31a0 type: WRITE translated: false
[cpu0_L1D_WQ] entry:  31 instr_id: 69537341 address: 0x48ad1a0 v_addr: 0x48ad1a0 type: WRITE translated: false
[cpu0_L1D_WQ] entry:  32 instr_id: 69537342 address: 0x48f91a0 v_addr: 0x48f91a0 type: WRITE translated: false
[cpu0_L1D_WQ] entry:  33 instr_id: 69537348 address: 0x48d31b0 v_addr: 0x48d31b0 type: WRITE translated: false
[cpu0_L1D_WQ] entry:  34 instr_id: 69537348 address: 0x48d31c0 v_addr: 0x48d31c0 type: WRITE translated: false
[cpu0_L1D_WQ] entry:  35 instr_id: 69537350 address: 0x48ad1b0 v_addr: 0x48ad1b0 type: WRITE translated: false
[cpu0_L1D_WQ] entry:  36 instr_id: 69537350 address: 0x48ad1c0 v_addr: 0x48ad1c0 type: WRITE translated: false
[cpu0_L1D_WQ] entry:  37 instr_id: 69537351 address: 0x48f91b0 v_addr: 0x48f91b0 type: WRITE translated: false
[cpu0_L1D_WQ] entry:  38 instr_id: 69537351 address: 0x48f91c0 v_addr: 0x48f91c0 type: WRITE translated: false
[cpu0_L1D_WQ] entry:  39 instr_id: 69537366 address: 0x48d31d0 v_addr: 0x48d31d0 type: WRITE translated: false
[cpu0_L1D_WQ] entry:  40 instr_id: 69537368 address: 0x48ad1d0 v_addr: 0x48ad1d0 type: WRITE translated: false
[cpu0_L1D_WQ] entry:  41 instr_id: 69537369 address: 0x48f91d0 v_addr: 0x48f91d0 type: WRITE translated: false
[cpu0_L1D_WQ] entry:  42 instr_id: 69537375 address: 0x48d31e0 v_addr: 0x48d31e0 type: WRITE translated: false
[cpu0_L1D_WQ] entry:  43 instr_id: 69537377 address: 0x48ad1e0 v_addr: 0x48ad1e0 type: WRITE translated: false
[cpu0_L1D_WQ] entry:  44 instr_id: 69537378 address: 0x48f91e0 v_addr: 0x48f91e0 type: WRITE translated: false
[cpu0_L1D_WQ] entry:  45 instr_id: 69537384 address: 0x48d31f0 v_addr: 0x48d31f0 type: WRITE translated: false
[cpu0_L1D_WQ] entry:  46 instr_id: 69537384 address: 0x48d3200 v_addr: 0x48d3200 type: WRITE translated: false
[cpu0_L1D_WQ] entry:  47 instr_id: 69537386 address: 0x48ad1f0 v_addr: 0x48ad1f0 type: WRITE translated: false
[cpu0_L1D_WQ] entry:  48 instr_id: 69537386 address: 0x48ad200 v_addr: 0x48ad200 type: WRITE translated: false
[cpu0_L1D_WQ] entry:  49 instr_id: 69537387 address: 0x48f91f0 v_addr: 0x48f91f0 type: WRITE translated: false
[cpu0_L1D_WQ] entry:  50 instr_id: 69537387 address: 0x48f9200 v_addr: 0x48f9200 type: WRITE translated: false
[cpu0_L1D_WQ] entry:  51 instr_id: 69537402 address: 0x48d3210 v_addr: 0x48d3210 type: WRITE translated: false
[cpu0_L1D_WQ] entry:  52 instr_id: 69537404 address: 0x48ad210 v_addr: 0x48ad210 type: WRITE translated: false
[cpu0_L1D_WQ] entry:  53 instr_id: 69537405 address: 0x48f9210 v_addr: 0x48f9210 type: WRITE translated: false
[cpu0_L1D_WQ] entry:  54 instr_id: 69537411 address: 0x48d3220 v_addr: 0x48d3220 type: WRITE translated: false
[cpu0_L1D_WQ] entry:  55 instr_id: 69537413 address: 0x48ad220 v_addr: 0x48ad220 type: WRITE translated: false
[cpu0_L1D_WQ] entry:  56 instr_id: 69537414 address: 0x48f9220 v_addr: 0x48f9220 type: WRITE translated: false
[cpu0_L1D_WQ] entry:  57 instr_id: 69537420 address: 0x48d3230 v_addr: 0x48d3230 type: WRITE translated: false
[cpu0_L1D_WQ] entry:  58 instr_id: 69537420 address: 0x48d3240 v_addr: 0x48d3240 type: WRITE translated: false
[cpu0_L1D_WQ] entry:  59 instr_id: 69537422 address: 0x48ad230 v_addr: 0x48ad230 type: WRITE translated: false
[cpu0_L1D_WQ] entry:  60 instr_id: 69537422 address: 0x48ad240 v_addr: 0x48ad240 type: WRITE translated: false
[cpu0_L1D_WQ] entry:  61 instr_id: 69537423 address: 0x48f9230 v_addr: 0x48f9230 type: WRITE translated: false
[cpu0_L1D_WQ] entry:  62 instr_id: 69537423 address: 0x48f9240 v_addr: 0x48f9240 type: WRITE translated: false
[cpu0_L1D_WQ] entry:  63 instr_id: 69537438 address: 0x48d3250 v_addr: 0x48d3250 type: WRITE translated: false
[cpu0_L1D_WQ] entry:  64 instr_id: 69537440 address: 0x48ad250 v_addr: 0x48ad250 type: WRITE translated: false
[cpu0_L1D_WQ] entry:  65 instr_id: 69537441 address: 0x48f9250 v_addr: 0x48f9250 type: WRITE translated: false
[cpu0_L1D_WQ] entry:  66 instr_id: 69537447 address: 0x48d3260 v_addr: 0x48d3260 type: WRITE translated: false
[cpu0_L1D_WQ] entry:  67 instr_id: 69537449 address: 0x48ad260 v_addr: 0x48ad260 type: WRITE translated: false
[cpu0_L1D_WQ] entry:  68 instr_id: 69537450 address: 0x48f9260 v_addr: 0x48f9260 type: WRITE translated: false
[cpu0_L1D_WQ] entry:  69 instr_id: 69537456 address: 0x48d3270 v_addr: 0x48d3270 type: WRITE translated: false
[cpu0_L1D_WQ] entry:  70 instr_id: 69537456 address: 0x48d3280 v_addr: 0x48d3280 type: WRITE translated: false
[cpu0_L1D_WQ] entry:  71 instr_id: 69537458 address: 0x48ad270 v_addr: 0x48ad270 type: WRITE translated: false
[cpu0_L1D_WQ] entry:  72 instr_id: 69537458 address: 0x48ad280 v_addr: 0x48ad280 type: WRITE translated: false
[cpu0_L1D_WQ] entry:  73 instr_id: 69537459 address: 0x48f9270 v_addr: 0x48f9270 type: WRITE translated: false
[cpu0_L1D_WQ] entry:  74 instr_id: 69537459 address: 0x48f9280 v_addr: 0x48f9280 type: WRITE translated: false
[cpu0_L1D_WQ] entry:  75 instr_id: 69537474 address: 0x48d3290 v_addr: 0x48d3290 type: WRITE translated: false
[cpu0_L1D_WQ] entry:  76 instr_id: 69537476 address: 0x48ad290 v_addr: 0x48ad290 type: WRITE translated: false
[cpu0_L1D_WQ] entry:  77 instr_id: 69537477 address: 0x48f9290 v_addr: 0x48f9290 type: WRITE translated: false
[cpu0_L1D_WQ] entry:  78 instr_id: 69537483 address: 0x48d32a0 v_addr: 0x48d32a0 type: WRITE translated: false
[cpu0_L1D_WQ] entry:  79 instr_id: 69537485 address: 0x48ad2a0 v_addr: 0x48ad2a0 type: WRITE translated: false
[cpu0_L1D_WQ] entry:  80 instr_id: 69537486 address: 0x48f92a0 v_addr: 0x48f92a0 type: WRITE translated: false
[cpu0_L1D_WQ] entry:  81 instr_id: 69537492 address: 0x48d32b0 v_addr: 0x48d32b0 type: WRITE translated: false
[cpu0_L1D_WQ] entry:  82 instr_id: 69537492 address: 0x48d32c0 v_addr: 0x48d32c0 type: WRITE translated: false
[cpu0_L1D_WQ] entry:  83 instr_id: 69537494 address: 0x48ad2b0 v_addr: 0x48ad2b0 type: WRITE translated: false
[cpu0_L1D_WQ] entry:  84 instr_id: 69537494 address: 0x48ad2c0 v_addr: 0x48ad2c0 type: WRITE translated: false
[cpu0_L1D_WQ] entry:  85 instr_id: 69537495 address: 0x48f92b0 v_addr: 0x48f92b0 type: WRITE translated: false
[cpu0_L1D_WQ] entry:  86 instr_id: 69537495 address: 0x48f92c0 v_addr: 0x48f92c0 type: WRITE translated: false
[cpu0_L1D_WQ] entry:  87 instr_id: 69537510 address: 0x48d32d0 v_addr: 0x48d32d0 type: WRITE translated: false
[cpu0_L1D_WQ] entry:  88 instr_id: 69537512 address: 0x48ad2d0 v_addr: 0x48ad2d0 type: WRITE translated: false
[cpu0_L1D_WQ] entry:  89 instr_id: 69537513 address: 0x48f92d0 v_addr: 0x48f92d0 type: WRITE translated: false
[cpu0_L1D_WQ] entry:  90 instr_id: 69537519 address: 0x48d32e0 v_addr: 0x48d32e0 type: WRITE translated: false
[cpu0_L1D_WQ] entry:  91 instr_id: 69537521 