WARNING: physical memory size is smaller than virtual memory size.

*** ChampSim Multicore Out-of-Order Simulator ***
Warmup Instructions: 30000000
Simulation Instructions: 100000000
Number of CPUs: 1
Page size: 4096

BTB:
Basic BTB sets: 1024 ways: 8
Indirect:
history lengths: 0 0 10 16 27 44 60 96 109 219 449 487 714 1313 2146 3881 
ITTAGE tables: 64768 bytes;Region table: 240 bytes;IUM: 384 bytes;Total Storage= 65392 bytes;
RAS:
RAS size: 64
Berti Prefetcher
CPU 0 Entangling prefetcher
Off-chip DRAM Size: 8 GiB Channels: 2 Width: 64-bit Data Race: 6400 MT/s
Heartbeat CPU 0 instructions: 10000005 cycles: 1933159 heartbeat IPC: 5.173 cumulative IPC: 5.173 (Simulation time: 00 hr 00 min 44 sec)
Heartbeat CPU 0 instructions: 20000000 cycles: 3829164 heartbeat IPC: 5.274 cumulative IPC: 5.223 (Simulation time: 00 hr 01 min 26 sec)
Heartbeat CPU 0 instructions: 30000000 cycles: 5688690 heartbeat IPC: 5.378 cumulative IPC: 5.274 (Simulation time: 00 hr 02 min 10 sec)
Warmup finished CPU 0 instructions: 30000000 cycles: 5688691 cumulative IPC: 5.274 (Simulation time: 00 hr 02 min 10 sec)
Warmup complete CPU 0 instructions: 30000000 cycles: 5688691 cumulative IPC: 5.274 (Simulation time: 00 hr 02 min 10 sec)
Heartbeat CPU 0 instructions: 40000002 cycles: 10862931 heartbeat IPC: 1.933 cumulative IPC: 1.933 (Simulation time: 00 hr 03 min 33 sec)
Heartbeat CPU 0 instructions: 50000000 cycles: 15860754 heartbeat IPC: 2.001 cumulative IPC: 1.966 (Simulation time: 00 hr 04 min 56 sec)
Heartbeat CPU 0 instructions: 60000006 cycles: 20911442 heartbeat IPC: 1.98 cumulative IPC: 1.971 (Simulation time: 00 hr 06 min 37 sec)
Heartbeat CPU 0 instructions: 70000004 cycles: 25973982 heartbeat IPC: 1.975 cumulative IPC: 1.972 (Simulation time: 00 hr 08 min 10 sec)
Heartbeat CPU 0 instructions: 80000000 cycles: 30875376 heartbeat IPC: 2.04 cumulative IPC: 1.985 (Simulation time: 00 hr 09 min 39 sec)
Heartbeat CPU 0 instructions: 90000000 cycles: 35456258 heartbeat IPC: 2.183 cumulative IPC: 2.016 (Simulation time: 00 hr 10 min 53 sec)
Heartbeat CPU 0 instructions: 100000001 cycles: 40232273 heartbeat IPC: 2.094 cumulative IPC: 2.026 (Simulation time: 00 hr 12 min 11 sec)
*** Reached end of trace: (0, "../traces/secret_traces/compute_fp/compute_fp_129.champsimtrace.xz")
Heartbeat CPU 0 instructions: 110000004 cycles: 46199060 heartbeat IPC: 1.676 cumulative IPC: 1.975 (Simulation time: 00 hr 13 min 37 sec)
Heartbeat CPU 0 instructions: 120000008 cycles: 50885242 heartbeat IPC: 2.134 cumulative IPC: 1.991 (Simulation time: 00 hr 14 min 51 sec)
Heartbeat CPU 0 instructions: 130000002 cycles: 55650087 heartbeat IPC: 2.099 cumulative IPC: 2.002 (Simulation time: 00 hr 16 min 08 sec)
Simulation finished CPU 0 instructions: 100000002 cycles: 49961397 cumulative IPC: 2.002 (Simulation time: 00 hr 16 min 08 sec)
Simulation complete CPU 0 instructions: 100000002 cycles: 49961397 cumulative IPC: 2.002 (Simulation time: 00 hr 16 min 08 sec)

ChampSim completed all CPUs

=== Simulation ===
CPU 0 runs ../traces/secret_traces/compute_fp/compute_fp_129.champsimtrace.xz
Region of Interest Statistics

CPU 0 cumulative IPC: 2.002 instructions: 100000002 cycles: 49961397
CPU 0 Branch Prediction Accuracy: 98.84% MPKI: 1.369 Average ROB Occupancy at Mispredict: 128.3
Branch type MPKI
BRANCH_DIRECT_JUMP: 0.0118
BRANCH_INDIRECT: 0.52
BRANCH_CONDITIONAL: 0.795
BRANCH_DIRECT_CALL: 0.0243
BRANCH_INDIRECT_CALL: 0.00321
BRANCH_RETURN: 0.0137

LLC TOTAL        ACCESS:    2881313 HIT:     584170 MISS:    2297143
LLC LOAD         ACCESS:     277771 HIT:      36080 MISS:     241691
LLC RFO          ACCESS:     176035 HIT:      39981 MISS:     136054
LLC PREFETCH     ACCESS:    2189530 HIT:     308076 MISS:    1881454
LLC WRITE        ACCESS:     220653 HIT:     197975 MISS:      22678
LLC TRANSLATION  ACCESS:      17324 HIT:       2058 MISS:      15266
LLC PREFETCH REQUESTED:          0 ISSUED:          0 USEFUL:          0 USELESS:          0
LLC AVERAGE MISS LATENCY: 297.2 cycles
cpu0_DTLB TOTAL        ACCESS:   19982315 HIT:   19698434 MISS:     283881
cpu0_DTLB LOAD         ACCESS:   19982315 HIT:   19698434 MISS:     283881
cpu0_DTLB RFO          ACCESS:          0 HIT:          0 MISS:          0
cpu0_DTLB PREFETCH     ACCESS:          0 HIT:          0 MISS:          0
cpu0_DTLB WRITE        ACCESS:          0 HIT:          0 MISS:          0
cpu0_DTLB TRANSLATION  ACCESS:          0 HIT:          0 MISS:          0
cpu0_DTLB PREFETCH REQUESTED:          0 ISSUED:          0 USEFUL:          0 USELESS:          0
cpu0_DTLB AVERAGE MISS LATENCY: 19.2 cycles
cpu0_ITLB TOTAL        ACCESS:     215445 HIT:     213803 MISS:       1642
cpu0_ITLB LOAD         ACCESS:     215445 HIT:     213803 MISS:       1642
cpu0_ITLB RFO          ACCESS:          0 HIT:          0 MISS:          0
cpu0_ITLB PREFETCH     ACCESS:          0 HIT:          0 MISS:          0
cpu0_ITLB WRITE        ACCESS:          0 HIT:          0 MISS:          0
cpu0_ITLB TRANSLATION  ACCESS:          0 HIT:          0 MISS:          0
cpu0_ITLB PREFETCH REQUESTED:          0 ISSUED:          0 USEFUL:          0 USELESS:          0
cpu0_ITLB AVERAGE MISS LATENCY: 68.66 cycles
cpu0_L1D TOTAL        ACCESS:   40451357 HIT:   30105352 MISS:   10346005
cpu0_L1D LOAD         ACCESS:   18858377 HIT:   15183029 MISS:    3675348
cpu0_L1D RFO          ACCESS:          0 HIT:          0 MISS:          0
cpu0_L1D PREFETCH     ACCESS:   18889990 HIT:   12863153 MISS:    6026837
cpu0_L1D WRITE        ACCESS:    2664116 HIT:    2048647 MISS:     615469
cpu0_L1D TRANSLATION  ACCESS:      38874 HIT:      10523 MISS:      28351
cpu0_L1D PREFETCH REQUESTED:   77226391 ISSUED:   18889992 USEFUL:    1371268 USELESS:     101219
cpu0_L1D AVERAGE MISS LATENCY: 28.02 cycles
cpu0_L1I TOTAL        ACCESS:     316982 HIT:     273594 MISS:      43388
cpu0_L1I LOAD         ACCESS:     120495 HIT:     107873 MISS:      12622
cpu0_L1I RFO          ACCESS:          0 HIT:          0 MISS:          0
cpu0_L1I PREFETCH     ACCESS:     196487 HIT:     165721 MISS:      30766
cpu0_L1I WRITE        ACCESS:          0 HIT:          0 MISS:          0
cpu0_L1I TRANSLATION  ACCESS:          0 HIT:          0 MISS:          0
cpu0_L1I PREFETCH REQUESTED:     308580 ISSUED:     196487 USEFUL:      17557 USELESS:      10690
cpu0_L1I AVERAGE MISS LATENCY: 121.4 cycles
cpu0_L2C TOTAL        ACCESS:   12934678 HIT:    5106594 MISS:    7828084
cpu0_L2C LOAD         ACCESS:    1093604 HIT:     605750 MISS:     487854
cpu0_L2C RFO          ACCESS:     218585 HIT:      42424 MISS:     176161
cpu0_L2C PREFETCH     ACCESS:   11344995 HIT:    4198657 MISS:    7146338
cpu0_L2C WRITE        ACCESS:     249416 HIT:     249009 MISS:        407
cpu0_L2C TRANSLATION  ACCESS:      28078 HIT:      10754 MISS:      17324
cpu0_L2C PREFETCH REQUESTED:    6499263 ISSUED:    6018952 USEFUL:     671300 USELESS:     436546
cpu0_L2C AVERAGE MISS LATENCY: 89.87 cycles
cpu0_STLB TOTAL        ACCESS:     115683 HIT:      77143 MISS:      38540
cpu0_STLB LOAD         ACCESS:     115683 HIT:      77143 MISS:      38540
cpu0_STLB RFO          ACCESS:          0 HIT:          0 MISS:          0
cpu0_STLB PREFETCH     ACCESS:          0 HIT:          0 MISS:          0
cpu0_STLB WRITE        ACCESS:          0 HIT:          0 MISS:          0
cpu0_STLB TRANSLATION  ACCESS:          0 HIT:          0 MISS:          0
cpu0_STLB PREFETCH REQUESTED:          0 ISSUED:          0 USEFUL:          0 USELESS:          0
cpu0_STLB AVERAGE MISS LATENCY: 190 cycles

DRAM Statistics

Channel 0 RQ ROW_BUFFER_HIT:     736406
  ROW_BUFFER_MISS:     403570
 AVG DBUS CONGESTED CYCLE: 3.936
WQ ROW_BUFFER_HIT: Channel 0 
  ROW_BUFFER_MISS:      17481
  FULL:      77255

Channel 1 RQ ROW_BUFFER_HIT:     731652
  ROW_BUFFER_MISS:     399862
 AVG DBUS CONGESTED CYCLE: 3.93
WQ ROW_BUFFER_HIT: Channel 1 
  ROW_BUFFER_MISS:      19544
  FULL:      75064
BERTI TO_L1: 67560688 TO_L2: 41953189 TO_L2_BC_MSHR: 10437173
BERTI AVG_LAT: 122.456 NUM_TRACK_LATENCY: 3337135 NUM_CANT_TRACK_LATENCY: 3
BERTI CROSS_PAGE 23151218 NO_CROSS_PAGE: 86362659
BERTI FOUND_BERTI: 16870360 NO_FOUND_BERTI: 9020286
BERTI AVERAGE_ISSUED: 3.54269
CPU 0 L1I Entangling prefetcher final stats
IP accesses: 6d 1b40 1993 / 159319
IP misses: eabb 3aaec0 867 / 51446
IP hits: 0 0 0 / 0
IP late: 4232 108c80 18 / 6319
IP wrong: ea8a 3aa280 28 / 10635
miss rate: 0.322912
coverage: 0
coverage_late: 0.122828
accuracy: 0
accuracy_late: 0.372715
discarded: 0
evicts entangled j table: 0
evicts entangled k table: 1595
max bb size: 65
formats: 420 0 1440 799 398 815 0 
hist_lookups: 1392 1387 987 857 777 701 520 447 415 318 189 115 88 51 20 0 21 4203 
hist_lookups_evict: 0.168162 %
hist_lookups_shortlat: 33.6564 %
bb_found_hist: 0 23871 8846 4488 2693 1465 2103 100 114 606 22 42 12 46 3 3 17 0 57 0 0 0 0 0 0 0 0 0 0 0 0 0 0 0 0 0 0 0 0 0 0 0 0 0 0 0 0 0 0 0 0 0 0 0 0 0 0 0 0 0 0 0 0 0 
bb_found_summary: 95617 44488 2.14928
entangled_found_hist: 0 12942 11329 12358 2881 1216 175 0 
entangled_found_summary: 91328 40901 2.23291
bb_ent_found_hist: 0 32265 13552 7507 4709 4512 987 476 409 411 53 56 0 199 0 17 0 0 104 0 0 0 0 0 0 0 0 0 0 0 0 0 0 0 0 0 0 0 0 0 0 0 0 0 0 0 0 0 0 0 0 0 0 0 0 0 0 0 0 0 0 0 0 0 
bb_ent_found_summary: 145371 65257 2.22767
