WARNING: physical memory size is smaller than virtual memory size.

*** ChampSim Multicore Out-of-Order Simulator ***
Warmup Instructions: 30000000
Simulation Instructions: 100000000
Number of CPUs: 1
Page size: 4096

BTB:
Basic BTB sets: 1024 ways: 8
Indirect:
history lengths: 0 0 10 16 27 44 60 96 109 219 449 487 714 1313 2146 3881 
ITTAGE tables: 64768 bytes;Region table: 240 bytes;IUM: 384 bytes;Total Storage= 65392 bytes;
RAS:
RAS size: 64
Berti Prefetcher
CPU 0 Entangling prefetcher
Off-chip DRAM Size: 8 GiB Channels: 2 Width: 64-bit Data Race: 6400 MT/s
Heartbeat CPU 0 instructions: 10000003 cycles: 1718748 heartbeat IPC: 5.818 cumulative IPC: 5.818 (Simulation time: 00 hr 00 min 44 sec)
Heartbeat CPU 0 instructions: 20000008 cycles: 3388469 heartbeat IPC: 5.989 cumulative IPC: 5.902 (Simulation time: 00 hr 01 min 27 sec)
Heartbeat CPU 0 instructions: 30000009 cycles: 5057865 heartbeat IPC: 5.99 cumulative IPC: 5.931 (Simulation time: 00 hr 02 min 06 sec)
Warmup finished CPU 0 instructions: 30000009 cycles: 5057866 cumulative IPC: 5.931 (Simulation time: 00 hr 02 min 06 sec)
Warmup complete CPU 0 instructions: 30000009 cycles: 5057866 cumulative IPC: 5.931 (Simulation time: 00 hr 02 min 06 sec)
Heartbeat CPU 0 instructions: 40000000 cycles: 6854344 heartbeat IPC: 5.566 cumulative IPC: 5.566 (Simulation time: 00 hr 02 min 56 sec)
Heartbeat CPU 0 instructions: 50000009 cycles: 8641099 heartbeat IPC: 5.597 cumulative IPC: 5.582 (Simulation time: 00 hr 03 min 46 sec)
Heartbeat CPU 0 instructions: 60000009 cycles: 10442681 heartbeat IPC: 5.551 cumulative IPC: 5.571 (Simulation time: 00 hr 04 min 37 sec)
Heartbeat CPU 0 instructions: 70000006 cycles: 12197189 heartbeat IPC: 5.7 cumulative IPC: 5.603 (Simulation time: 00 hr 05 min 26 sec)
Heartbeat CPU 0 instructions: 80000008 cycles: 13924540 heartbeat IPC: 5.789 cumulative IPC: 5.639 (Simulation time: 00 hr 06 min 10 sec)
Heartbeat CPU 0 instructions: 90000005 cycles: 15645479 heartbeat IPC: 5.811 cumulative IPC: 5.667 (Simulation time: 00 hr 06 min 53 sec)
Heartbeat CPU 0 instructions: 100000001 cycles: 17376003 heartbeat IPC: 5.779 cumulative IPC: 5.683 (Simulation time: 00 hr 07 min 37 sec)
*** Reached end of trace: (0, "../traces/secret_traces/compute_fp/compute_fp_27.champsimtrace.xz")
Heartbeat CPU 0 instructions: 110000005 cycles: 19909926 heartbeat IPC: 3.946 cumulative IPC: 5.386 (Simulation time: 00 hr 08 min 28 sec)
Heartbeat CPU 0 instructions: 120000005 cycles: 21681251 heartbeat IPC: 5.645 cumulative IPC: 5.414 (Simulation time: 00 hr 09 min 13 sec)
Heartbeat CPU 0 instructions: 130000002 cycles: 23414456 heartbeat IPC: 5.77 cumulative IPC: 5.448 (Simulation time: 00 hr 09 min 57 sec)
Simulation finished CPU 0 instructions: 100000004 cycles: 18356592 cumulative IPC: 5.448 (Simulation time: 00 hr 09 min 57 sec)
Simulation complete CPU 0 instructions: 100000004 cycles: 18356592 cumulative IPC: 5.448 (Simulation time: 00 hr 09 min 57 sec)

ChampSim completed all CPUs

=== Simulation ===
CPU 0 runs ../traces/secret_traces/compute_fp/compute_fp_27.champsimtrace.xz
Region of Interest Statistics

CPU 0 cumulative IPC: 5.448 instructions: 100000004 cycles: 18356592
CPU 0 Branch Prediction Accuracy: 99.61% MPKI: 0.6352 Average ROB Occupancy at Mispredict: 57.51
Branch type MPKI
BRANCH_DIRECT_JUMP: 0.242
BRANCH_INDIRECT: 0.117
BRANCH_CONDITIONAL: 0.212
BRANCH_DIRECT_CALL: 0.0222
BRANCH_INDIRECT_CALL: 0.0301
BRANCH_RETURN: 0.0127

LLC TOTAL        ACCESS:      87098 HIT:      64052 MISS:      23046
LLC LOAD         ACCESS:      12912 HIT:       7622 MISS:       5290
LLC RFO          ACCESS:      26228 HIT:      16944 MISS:       9284
LLC PREFETCH     ACCESS:      18219 HIT:       9983 MISS:       8236
LLC WRITE        ACCESS:      29538 HIT:      29470 MISS:         68
LLC TRANSLATION  ACCESS:        201 HIT:         33 MISS:        168
LLC PREFETCH REQUESTED:          0 ISSUED:          0 USEFUL:          0 USELESS:          0
LLC AVERAGE MISS LATENCY: 231 cycles
cpu0_DTLB TOTAL        ACCESS:   16438218 HIT:   16229602 MISS:     208616
cpu0_DTLB LOAD         ACCESS:   16438218 HIT:   16229602 MISS:     208616
cpu0_DTLB RFO          ACCESS:          0 HIT:          0 MISS:          0
cpu0_DTLB PREFETCH     ACCESS:          0 HIT:          0 MISS:          0
cpu0_DTLB WRITE        ACCESS:          0 HIT:          0 MISS:          0
cpu0_DTLB TRANSLATION  ACCESS:          0 HIT:          0 MISS:          0
cpu0_DTLB PREFETCH REQUESTED:          0 ISSUED:          0 USEFUL:          0 USELESS:          0
cpu0_DTLB AVERAGE MISS LATENCY: 2.458 cycles
cpu0_ITLB TOTAL        ACCESS:    5241768 HIT:    5239929 MISS:       1839
cpu0_ITLB LOAD         ACCESS:    5241768 HIT:    5239929 MISS:       1839
cpu0_ITLB RFO          ACCESS:          0 HIT:          0 MISS:          0
cpu0_ITLB PREFETCH     ACCESS:          0 HIT:          0 MISS:          0
cpu0_ITLB WRITE        ACCESS:          0 HIT:          0 MISS:          0
cpu0_ITLB TRANSLATION  ACCESS:          0 HIT:          0 MISS:          0
cpu0_ITLB PREFETCH REQUESTED:          0 ISSUED:          0 USEFUL:          0 USELESS:          0
cpu0_ITLB AVERAGE MISS LATENCY: 8.443 cycles
cpu0_L1D TOTAL        ACCESS:   28915491 HIT:   27584656 MISS:    1330835
cpu0_L1D LOAD         ACCESS:   18681757 HIT:   17776100 MISS:     905657
cpu0_L1D RFO          ACCESS:          0 HIT:          0 MISS:          0
cpu0_L1D PREFETCH     ACCESS:      69494 HIT:      53656 MISS:      15838
cpu0_L1D WRITE        ACCESS:   10163930 HIT:    9754850 MISS:     409080
cpu0_L1D TRANSLATION  ACCESS:        310 HIT:         50 MISS:        260
cpu0_L1D PREFETCH REQUESTED:     751430 ISSUED:      69494 USEFUL:       1980 USELESS:        118
cpu0_L1D AVERAGE MISS LATENCY: 7.031 cycles
cpu0_L1I TOTAL        ACCESS:    7931380 HIT:    7513329 MISS:     418051
cpu0_L1I LOAD         ACCESS:    2768561 HIT:    2565098 MISS:     203463
cpu0_L1I RFO          ACCESS:          0 HIT:          0 MISS:          0
cpu0_L1I PREFETCH     ACCESS:    5162819 HIT:    4948231 MISS:     214588
cpu0_L1I WRITE        ACCESS:          0 HIT:          0 MISS:          0
cpu0_L1I TRANSLATION  ACCESS:          0 HIT:          0 MISS:          0
cpu0_L1I PREFETCH REQUESTED:   14439571 ISSUED:    5162819 USEFUL:     146152 USELESS:      50783
cpu0_L1I AVERAGE MISS LATENCY: 9.735 cycles
cpu0_L2C TOTAL        ACCESS:    1882551 HIT:    1807636 MISS:      74915
cpu0_L2C LOAD         ACCESS:     571479 HIT:     556591 MISS:      14888
cpu0_L2C RFO          ACCESS:     144246 HIT:     118009 MISS:      26237
cpu0_L2C PREFETCH     ACCESS:     978512 HIT:     944923 MISS:      33589
cpu0_L2C WRITE        ACCESS:     188056 HIT:     188056 MISS:          0
cpu0_L2C TRANSLATION  ACCESS:        258 HIT:         57 MISS:        201
cpu0_L2C PREFETCH REQUESTED:     779563 ISSUED:     770428 USEFUL:       5228 USELESS:       3902
cpu0_L2C AVERAGE MISS LATENCY: 85.24 cycles
cpu0_STLB TOTAL        ACCESS:     102096 HIT:     101829 MISS:        267
cpu0_STLB LOAD         ACCESS:     102096 HIT:     101829 MISS:        267
cpu0_STLB RFO          ACCESS:          0 HIT:          0 MISS:          0
cpu0_STLB PREFETCH     ACCESS:          0 HIT:          0 MISS:          0
cpu0_STLB WRITE        ACCESS:          0 HIT:          0 MISS:          0
cpu0_STLB TRANSLATION  ACCESS:          0 HIT:          0 MISS:          0
cpu0_STLB PREFETCH REQUESTED:          0 ISSUED:          0 USEFUL:          0 USELESS:          0
cpu0_STLB AVERAGE MISS LATENCY: 191.3 cycles

DRAM Statistics

Channel 0 RQ ROW_BUFFER_HIT:       5031
  ROW_BUFFER_MISS:       6812
 AVG DBUS CONGESTED CYCLE: 3.917
WQ ROW_BUFFER_HIT: Channel 0 
  ROW_BUFFER_MISS:        959
  FULL:       4627

Channel 1 RQ ROW_BUFFER_HIT:       4670
  ROW_BUFFER_MISS:       6447
 AVG DBUS CONGESTED CYCLE: 3.896
WQ ROW_BUFFER_HIT: Channel 1 
  ROW_BUFFER_MISS:        995
  FULL:       4160
BERTI TO_L1: 170141 TO_L2: 775931 TO_L2_BC_MSHR: 405983
BERTI AVG_LAT: 12.291 NUM_TRACK_LATENCY: 617759 NUM_CANT_TRACK_LATENCY: 0
BERTI CROSS_PAGE 140083 NO_CROSS_PAGE: 805989
BERTI FOUND_BERTI: 2318795 NO_FOUND_BERTI: 22678883
BERTI AVERAGE_ISSUED: 3.36938
CPU 0 L1I Entangling prefetcher final stats
IP accesses: 110e 44380 63999 / 2769858
IP misses: b0f 2c3c0 3421 / 204760
IP hits: 0 0 0 / 0
IP late: 1004 40100 1398 / 83604
IP wrong: b06 2c180 1643 / 50020
miss rate: 0.0739244
coverage: 0
coverage_late: 0.408303
accuracy: 0
accuracy_late: 0.625667
discarded: 0
evicts entangled j table: 0
evicts entangled k table: 7767
max bb size: 65
formats: 468 0 5894 3181 1176 1882 0 
hist_lookups: 7353 9167 9935 10847 8249 6986 3714 3475 3236 1715 1107 790 374 181 127 0 0 13349 
hist_lookups_evict: 0 %
hist_lookups_shortlat: 16.5611 %
bb_found_hist: 0 598707 268347 243727 152776 85998 38208 25375 1428 5376 21473 2875 12 0 3 0 19 0 0 1666 3819 2751 0 0 0 0 0 0 0 0 0 0 0 0 0 0 0 0 0 0 0 0 0 0 0 0 0 0 0 2 0 0 0 0 0 0 0 0 0 0 0 0 0 0 
bb_found_summary: 3787105 1452562 2.60719
entangled_found_hist: 0 201167 264282 815483 147128 38086 89 0 
entangled_found_summary: 3955656 1466235 2.69784
bb_ent_found_hist: 0 1231987 770706 411536 178805 125667 158238 41736 21721 143 10723 2785 0 0 0 0 2 0 0 0 381 5084 0 0 0 0 0 0 0 0 0 0 0 0 0 0 0 0 0 0 0 0 0 0 0 0 0 0 0 3 0 0 0 0 0 0 0 0 0 0 0 0 0 0 
bb_ent_found_summary: 7020625 2959517 2.37222
