WARNING: physical memory size is smaller than virtual memory size.

*** ChampSim Multicore Out-of-Order Simulator ***
Warmup Instructions: 30000000
Simulation Instructions: 100000000
Number of CPUs: 1
Page size: 4096

BTB:
Basic BTB sets: 1024 ways: 8
Indirect:
history lengths: 0 0 10 16 27 44 60 96 109 219 449 487 714 1313 2146 3881 
ITTAGE tables: 64768 bytes;Region table: 240 bytes;IUM: 384 bytes;Total Storage= 65392 bytes;
RAS:
RAS size: 64
Berti Prefetcher
CPU 0 Entangling prefetcher
Off-chip DRAM Size: 8 GiB Channels: 2 Width: 64-bit Data Race: 6400 MT/s
Heartbeat CPU 0 instructions: 10000000 cycles: 1717800 heartbeat IPC: 5.821 cumulative IPC: 5.821 (Simulation time: 00 hr 00 min 39 sec)
Heartbeat CPU 0 instructions: 20000003 cycles: 3386411 heartbeat IPC: 5.993 cumulative IPC: 5.906 (Simulation time: 00 hr 01 min 16 sec)
Heartbeat CPU 0 instructions: 30000010 cycles: 5054493 heartbeat IPC: 5.995 cumulative IPC: 5.935 (Simulation time: 00 hr 01 min 49 sec)
Warmup finished CPU 0 instructions: 30000010 cycles: 5054494 cumulative IPC: 5.935 (Simulation time: 00 hr 01 min 49 sec)
Warmup complete CPU 0 instructions: 30000010 cycles: 5054494 cumulative IPC: 5.935 (Simulation time: 00 hr 01 min 49 sec)
Heartbeat CPU 0 instructions: 40000006 cycles: 8171228 heartbeat IPC: 3.208 cumulative IPC: 3.208 (Simulation time: 00 hr 02 min 36 sec)
Heartbeat CPU 0 instructions: 50000008 cycles: 10910248 heartbeat IPC: 3.651 cumulative IPC: 3.415 (Simulation time: 00 hr 03 min 19 sec)
Heartbeat CPU 0 instructions: 60000001 cycles: 13943073 heartbeat IPC: 3.297 cumulative IPC: 3.375 (Simulation time: 00 hr 04 min 06 sec)
Heartbeat CPU 0 instructions: 70000001 cycles: 16958411 heartbeat IPC: 3.316 cumulative IPC: 3.36 (Simulation time: 00 hr 05 min 02 sec)
Heartbeat CPU 0 instructions: 80000008 cycles: 19715851 heartbeat IPC: 3.627 cumulative IPC: 3.41 (Simulation time: 00 hr 05 min 55 sec)
Heartbeat CPU 0 instructions: 90000002 cycles: 22568308 heartbeat IPC: 3.506 cumulative IPC: 3.426 (Simulation time: 00 hr 06 min 50 sec)
Heartbeat CPU 0 instructions: 100000011 cycles: 25487821 heartbeat IPC: 3.425 cumulative IPC: 3.426 (Simulation time: 00 hr 07 min 42 sec)
*** Reached end of trace: (0, "../traces/secret_traces/compute_fp/compute_fp_90.champsimtrace.xz")
Heartbeat CPU 0 instructions: 110000001 cycles: 29844392 heartbeat IPC: 2.295 cumulative IPC: 3.227 (Simulation time: 00 hr 08 min 41 sec)
Heartbeat CPU 0 instructions: 120000000 cycles: 32830709 heartbeat IPC: 3.349 cumulative IPC: 3.24 (Simulation time: 00 hr 09 min 27 sec)
Heartbeat CPU 0 instructions: 130000005 cycles: 35897764 heartbeat IPC: 3.26 cumulative IPC: 3.242 (Simulation time: 00 hr 10 min 13 sec)
Simulation finished CPU 0 instructions: 100000007 cycles: 30843272 cumulative IPC: 3.242 (Simulation time: 00 hr 10 min 13 sec)
Simulation complete CPU 0 instructions: 100000007 cycles: 30843272 cumulative IPC: 3.242 (Simulation time: 00 hr 10 min 13 sec)

ChampSim completed all CPUs

=== Simulation ===
CPU 0 runs ../traces/secret_traces/compute_fp/compute_fp_90.champsimtrace.xz
Region of Interest Statistics

CPU 0 cumulative IPC: 3.242 instructions: 100000007 cycles: 30843272
CPU 0 Branch Prediction Accuracy: 92.24% MPKI: 5.591 Average ROB Occupancy at Mispredict: 27.07
Branch type MPKI
BRANCH_DIRECT_JUMP: 0.0211
BRANCH_INDIRECT: 0.216
BRANCH_CONDITIONAL: 5.32
BRANCH_DIRECT_CALL: 0.0211
BRANCH_INDIRECT_CALL: 0.0025
BRANCH_RETURN: 0.0111

LLC TOTAL        ACCESS:     118710 HIT:      55539 MISS:      63171
LLC LOAD         ACCESS:      17696 HIT:       2426 MISS:      15270
LLC RFO          ACCESS:      31206 HIT:       7598 MISS:      23608
LLC PREFETCH     ACCESS:      29554 HIT:       5821 MISS:      23733
LLC WRITE        ACCESS:      39825 HIT:      39629 MISS:        196
LLC TRANSLATION  ACCESS:        429 HIT:         65 MISS:        364
LLC PREFETCH REQUESTED:          0 ISSUED:          0 USEFUL:          0 USELESS:          0
LLC AVERAGE MISS LATENCY: 258 cycles
cpu0_DTLB TOTAL        ACCESS:   17094925 HIT:   16995893 MISS:      99032
cpu0_DTLB LOAD         ACCESS:   17094925 HIT:   16995893 MISS:      99032
cpu0_DTLB RFO          ACCESS:          0 HIT:          0 MISS:          0
cpu0_DTLB PREFETCH     ACCESS:          0 HIT:          0 MISS:          0
cpu0_DTLB WRITE        ACCESS:          0 HIT:          0 MISS:          0
cpu0_DTLB TRANSLATION  ACCESS:          0 HIT:          0 MISS:          0
cpu0_DTLB PREFETCH REQUESTED:          0 ISSUED:          0 USEFUL:          0 USELESS:          0
cpu0_DTLB AVERAGE MISS LATENCY: 6.242 cycles
cpu0_ITLB TOTAL        ACCESS:    1355053 HIT:    1353581 MISS:       1472
cpu0_ITLB LOAD         ACCESS:    1355053 HIT:    1353581 MISS:       1472
cpu0_ITLB RFO          ACCESS:          0 HIT:          0 MISS:          0
cpu0_ITLB PREFETCH     ACCESS:          0 HIT:          0 MISS:          0
cpu0_ITLB WRITE        ACCESS:          0 HIT:          0 MISS:          0
cpu0_ITLB TRANSLATION  ACCESS:          0 HIT:          0 MISS:          0
cpu0_ITLB PREFETCH REQUESTED:          0 ISSUED:          0 USEFUL:          0 USELESS:          0
cpu0_ITLB AVERAGE MISS LATENCY: 18.13 cycles
cpu0_L1D TOTAL        ACCESS:   28197044 HIT:   23506174 MISS:    4690870
cpu0_L1D LOAD         ACCESS:   16092989 HIT:   13532117 MISS:    2560872
cpu0_L1D RFO          ACCESS:          0 HIT:          0 MISS:          0
cpu0_L1D PREFETCH     ACCESS:    4325288 HIT:    2443984 MISS:    1881304
cpu0_L1D WRITE        ACCESS:    7777928 HIT:    7529857 MISS:     248071
cpu0_L1D TRANSLATION  ACCESS:        839 HIT:        216 MISS:        623
cpu0_L1D PREFETCH REQUESTED:    5652317 ISSUED:    4325288 USEFUL:      83983 USELESS:      41993
cpu0_L1D AVERAGE MISS LATENCY: 5.754 cycles
cpu0_L1I TOTAL        ACCESS:    2142185 HIT:    2105822 MISS:      36363
cpu0_L1I LOAD         ACCESS:     575918 HIT:     565363 MISS:      10555
cpu0_L1I RFO          ACCESS:          0 HIT:          0 MISS:          0
cpu0_L1I PREFETCH     ACCESS:    1566267 HIT:    1540459 MISS:      25808
cpu0_L1I WRITE        ACCESS:          0 HIT:          0 MISS:          0
cpu0_L1I TRANSLATION  ACCESS:          0 HIT:          0 MISS:          0
cpu0_L1I PREFETCH REQUESTED:    3731516 ISSUED:    1566267 USEFUL:      14655 USELESS:       9435
cpu0_L1I AVERAGE MISS LATENCY: 36.72 cycles
cpu0_L2C TOTAL        ACCESS:    6921979 HIT:    6808986 MISS:     112993
cpu0_L2C LOAD         ACCESS:    1500671 HIT:    1479050 MISS:      21621
cpu0_L2C RFO          ACCESS:      99647 HIT:      68421 MISS:      31226
cpu0_L2C PREFETCH     ACCESS:    4960570 HIT:    4900853 MISS:      59717
cpu0_L2C WRITE        ACCESS:     360491 HIT:     360491 MISS:          0
cpu0_L2C TRANSLATION  ACCESS:        600 HIT:        171 MISS:        429
cpu0_L2C PREFETCH REQUESTED:    3236523 ISSUED:    3224718 USEFUL:      15473 USELESS:       5191
cpu0_L2C AVERAGE MISS LATENCY: 156.1 cycles
cpu0_STLB TOTAL        ACCESS:      72343 HIT:      71574 MISS:        769
cpu0_STLB LOAD         ACCESS:      72343 HIT:      71574 MISS:        769
cpu0_STLB RFO          ACCESS:          0 HIT:          0 MISS:          0
cpu0_STLB PREFETCH     ACCESS:          0 HIT:          0 MISS:          0
cpu0_STLB WRITE        ACCESS:          0 HIT:          0 MISS:          0
cpu0_STLB TRANSLATION  ACCESS:          0 HIT:          0 MISS:          0
cpu0_STLB PREFETCH REQUESTED:          0 ISSUED:          0 USEFUL:          0 USELESS:          0
cpu0_STLB AVERAGE MISS LATENCY: 216.4 cycles

DRAM Statistics

Channel 0 RQ ROW_BUFFER_HIT:      13356
  ROW_BUFFER_MISS:      18290
 AVG DBUS CONGESTED CYCLE: 3.943
WQ ROW_BUFFER_HIT: Channel 0 
  ROW_BUFFER_MISS:       1728
  FULL:      15098

Channel 1 RQ ROW_BUFFER_HIT:      13219
  ROW_BUFFER_MISS:      18102
 AVG DBUS CONGESTED CYCLE: 3.927
WQ ROW_BUFFER_HIT: Channel 1 
  ROW_BUFFER_MISS:       1709
  FULL:      14785
BERTI TO_L1: 2645529 TO_L2: 4318729 TO_L2_BC_MSHR: 572397
BERTI AVG_LAT: 12.7781 NUM_TRACK_LATENCY: 2107755 NUM_CANT_TRACK_LATENCY: 0
BERTI CROSS_PAGE 463950 NO_CROSS_PAGE: 6500308
BERTI FOUND_BERTI: 7879051 NO_FOUND_BERTI: 13422240
BERTI AVERAGE_ISSUED: 2.94166
CPU 0 L1I Entangling prefetcher final stats
IP accesses: 2351 8d440 35464 / 576299
IP misses: 6b8f 1ae3c0 46 / 10936
IP hits: 0 0 0 / 0
IP late: 5aed 16bb40 17 / 5374
IP wrong: 5aef 16bbc0 25 / 9368
miss rate: 0.0189763
coverage: 0
coverage_late: 0.491405
accuracy: 0
accuracy_late: 0.364537
discarded: 0
evicts entangled j table: 0
evicts entangled k table: 1740
max bb size: 49
formats: 440 0 1447 702 341 671 0 
hist_lookups: 1076 1279 1090 1053 916 759 641 467 343 296 194 114 67 35 20 0 0 2309 
hist_lookups_evict: 0 %
hist_lookups_shortlat: 21.6625 %
bb_found_hist: 0 71403 75148 37074 32626 17131 16162 17929 18385 33718 5425 3330 2764 3494 8 1917 41 19 0 0 0 0 0 1 36 0 0 0 0 0 0 22 0 0 0 0 0 0 0 0 0 0 0 0 0 0 0 0 0 2 0 0 0 0 0 0 0 0 0 0 0 0 0 0 
bb_found_summary: 1423080 336635 4.22737
entangled_found_hist: 0 49457 62207 62347 22902 6704 4045 0 
entangled_found_summary: 510310 207662 2.45741
bb_ent_found_hist: 0 130044 64300 60668 7393 47607 839 59913 8392 726 9067 6529 12725 5557 38 3064 4 50 0 0 0 0 0 0 49 0 0 0 0 0 0 5606 0 0 0 0 0 0 0 0 0 0 0 0 0 0 0 0 0 4 0 0 0 0 0 0 0 0 0 0 0 0 0 0 
bb_ent_found_summary: 1816344 422575 4.29828
