WARNING: physical memory size is smaller than virtual memory size.

*** ChampSim Multicore Out-of-Order Simulator ***
Warmup Instructions: 30000000
Simulation Instructions: 100000000
Number of CPUs: 1
Page size: 4096

BTB:
Basic BTB sets: 1024 ways: 8
Indirect:
history lengths: 0 0 10 16 27 44 60 96 109 219 449 487 714 1313 2146 3881 
ITTAGE tables: 64768 bytes;Region table: 240 bytes;IUM: 384 bytes;Total Storage= 65392 bytes;
RAS:
RAS size: 64
Berti Prefetcher
CPU 0 Entangling prefetcher
Off-chip DRAM Size: 8 GiB Channels: 2 Width: 64-bit Data Race: 6400 MT/s
Heartbeat CPU 0 instructions: 10000000 cycles: 1779336 heartbeat IPC: 5.62 cumulative IPC: 5.62 (Simulation time: 00 hr 00 min 46 sec)
Heartbeat CPU 0 instructions: 20000003 cycles: 3489536 heartbeat IPC: 5.847 cumulative IPC: 5.731 (Simulation time: 00 hr 01 min 32 sec)
Heartbeat CPU 0 instructions: 30000003 cycles: 5163858 heartbeat IPC: 5.973 cumulative IPC: 5.81 (Simulation time: 00 hr 02 min 17 sec)
Warmup finished CPU 0 instructions: 30000003 cycles: 5163859 cumulative IPC: 5.81 (Simulation time: 00 hr 02 min 17 sec)
Warmup complete CPU 0 instructions: 30000003 cycles: 5163859 cumulative IPC: 5.81 (Simulation time: 00 hr 02 min 17 sec)
Heartbeat CPU 0 instructions: 40000004 cycles: 17890667 heartbeat IPC: 0.7857 cumulative IPC: 0.7857 (Simulation time: 00 hr 05 min 28 sec)
Heartbeat CPU 0 instructions: 50000009 cycles: 21438520 heartbeat IPC: 2.819 cumulative IPC: 1.229 (Simulation time: 00 hr 06 min 39 sec)
Heartbeat CPU 0 instructions: 60000003 cycles: 23751501 heartbeat IPC: 4.323 cumulative IPC: 1.614 (Simulation time: 00 hr 07 min 31 sec)
Heartbeat CPU 0 instructions: 70000001 cycles: 26100853 heartbeat IPC: 4.256 cumulative IPC: 1.91 (Simulation time: 00 hr 08 min 27 sec)
Heartbeat CPU 0 instructions: 80000006 cycles: 28998988 heartbeat IPC: 3.45 cumulative IPC: 2.098 (Simulation time: 00 hr 09 min 27 sec)
Heartbeat CPU 0 instructions: 90000000 cycles: 30962646 heartbeat IPC: 5.093 cumulative IPC: 2.326 (Simulation time: 00 hr 10 min 18 sec)
Heartbeat CPU 0 instructions: 100000011 cycles: 33925166 heartbeat IPC: 3.376 cumulative IPC: 2.434 (Simulation time: 00 hr 11 min 19 sec)
*** Reached end of trace: (0, "../traces/secret_traces/compute_fp/compute_fp_61.champsimtrace.xz")
Heartbeat CPU 0 instructions: 110000010 cycles: 39867340 heartbeat IPC: 1.683 cumulative IPC: 2.305 (Simulation time: 00 hr 13 min 04 sec)
Heartbeat CPU 0 instructions: 120000007 cycles: 46345984 heartbeat IPC: 1.544 cumulative IPC: 2.185 (Simulation time: 00 hr 15 min 01 sec)
Heartbeat CPU 0 instructions: 130000010 cycles: 56487048 heartbeat IPC: 0.9861 cumulative IPC: 1.948 (Simulation time: 00 hr 17 min 36 sec)
Simulation finished CPU 0 instructions: 100000007 cycles: 51323190 cumulative IPC: 1.948 (Simulation time: 00 hr 17 min 36 sec)
Simulation complete CPU 0 instructions: 100000007 cycles: 51323190 cumulative IPC: 1.948 (Simulation time: 00 hr 17 min 36 sec)

ChampSim completed all CPUs

=== Simulation ===
CPU 0 runs ../traces/secret_traces/compute_fp/compute_fp_61.champsimtrace.xz
Region of Interest Statistics

CPU 0 cumulative IPC: 1.948 instructions: 100000007 cycles: 51323190
CPU 0 Branch Prediction Accuracy: 99.71% MPKI: 0.1673 Average ROB Occupancy at Mispredict: 62.82
Branch type MPKI
BRANCH_DIRECT_JUMP: 0.00984
BRANCH_INDIRECT: 0.0712
BRANCH_CONDITIONAL: 0.0498
BRANCH_DIRECT_CALL: 0.0221
BRANCH_INDIRECT_CALL: 0.00234
BRANCH_RETURN: 0.0119

LLC TOTAL        ACCESS:    2672894 HIT:    1056172 MISS:    1616722
LLC LOAD         ACCESS:     237124 HIT:      75295 MISS:     161829
LLC RFO          ACCESS:     227988 HIT:      24244 MISS:     203744
LLC PREFETCH     ACCESS:    1515873 HIT:     270976 MISS:    1244897
LLC WRITE        ACCESS:     687777 HIT:     685366 MISS:       2411
LLC TRANSLATION  ACCESS:       4132 HIT:        291 MISS:       3841
LLC PREFETCH REQUESTED:          0 ISSUED:          0 USEFUL:          0 USELESS:          0
LLC AVERAGE MISS LATENCY: 492.7 cycles
cpu0_DTLB TOTAL        ACCESS:   18464954 HIT:   18308834 MISS:     156120
cpu0_DTLB LOAD         ACCESS:   18464954 HIT:   18308834 MISS:     156120
cpu0_DTLB RFO          ACCESS:          0 HIT:          0 MISS:          0
cpu0_DTLB PREFETCH     ACCESS:          0 HIT:          0 MISS:          0
cpu0_DTLB WRITE        ACCESS:          0 HIT:          0 MISS:          0
cpu0_DTLB TRANSLATION  ACCESS:          0 HIT:          0 MISS:          0
cpu0_DTLB PREFETCH REQUESTED:          0 ISSUED:          0 USEFUL:          0 USELESS:          0
cpu0_DTLB AVERAGE MISS LATENCY: 23.74 cycles
cpu0_ITLB TOTAL        ACCESS:     344749 HIT:     342820 MISS:       1929
cpu0_ITLB LOAD         ACCESS:     344749 HIT:     342820 MISS:       1929
cpu0_ITLB RFO          ACCESS:          0 HIT:          0 MISS:          0
cpu0_ITLB PREFETCH     ACCESS:          0 HIT:          0 MISS:          0
cpu0_ITLB WRITE        ACCESS:          0 HIT:          0 MISS:          0
cpu0_ITLB TRANSLATION  ACCESS:          0 HIT:          0 MISS:          0
cpu0_ITLB PREFETCH REQUESTED:          0 ISSUED:          0 USEFUL:          0 USELESS:          0
cpu0_ITLB AVERAGE MISS LATENCY: 82.71 cycles
cpu0_L1D TOTAL        ACCESS:   37167994 HIT:   28757884 MISS:    8410110
cpu0_L1D LOAD         ACCESS:   19405466 HIT:   15657467 MISS:    3747999
cpu0_L1D RFO          ACCESS:          0 HIT:          0 MISS:          0
cpu0_L1D PREFETCH     ACCESS:   11306034 HIT:    8123573 MISS:    3182461
cpu0_L1D WRITE        ACCESS:    6435757 HIT:    4968546 MISS:    1467211
cpu0_L1D TRANSLATION  ACCESS:      20737 HIT:       8298 MISS:      12439
cpu0_L1D PREFETCH REQUESTED:  132612511 ISSUED:   11306033 USEFUL:     948375 USELESS:      45810
cpu0_L1D AVERAGE MISS LATENCY: 48.68 cycles
cpu0_L1I TOTAL        ACCESS:     513963 HIT:     474212 MISS:      39751
cpu0_L1I LOAD         ACCESS:     221520 HIT:     208817 MISS:      12703
cpu0_L1I RFO          ACCESS:          0 HIT:          0 MISS:          0
cpu0_L1I PREFETCH     ACCESS:     292443 HIT:     265395 MISS:      27048
cpu0_L1I WRITE        ACCESS:          0 HIT:          0 MISS:          0
cpu0_L1I TRANSLATION  ACCESS:          0 HIT:          0 MISS:          0
cpu0_L1I PREFETCH REQUESTED:     420452 ISSUED:     292443 USEFUL:      14900 USELESS:       9852
cpu0_L1I AVERAGE MISS LATENCY: 139.6 cycles
cpu0_L2C TOTAL        ACCESS:    9393968 HIT:    4550729 MISS:    4843239
cpu0_L2C LOAD         ACCESS:    1345701 HIT:     682273 MISS:     663428
cpu0_L2C RFO          ACCESS:     384622 HIT:     155662 MISS:     228960
cpu0_L2C PREFETCH     ACCESS:    6710266 HIT:    2763865 MISS:    3946401
cpu0_L2C WRITE        ACCESS:     941184 HIT:     940868 MISS:        316
cpu0_L2C TRANSLATION  ACCESS:      12195 HIT:       8061 MISS:       4134
cpu0_L2C PREFETCH REQUESTED:    4224688 ISSUED:    3980944 USEFUL:     661588 USELESS:     163816
cpu0_L2C AVERAGE MISS LATENCY: 157.2 cycles
cpu0_STLB TOTAL        ACCESS:     103176 HIT:      82723 MISS:      20453
cpu0_STLB LOAD         ACCESS:     103176 HIT:      82723 MISS:      20453
cpu0_STLB RFO          ACCESS:          0 HIT:          0 MISS:          0
cpu0_STLB PREFETCH     ACCESS:          0 HIT:          0 MISS:          0
cpu0_STLB WRITE        ACCESS:          0 HIT:          0 MISS:          0
cpu0_STLB TRANSLATION  ACCESS:          0 HIT:          0 MISS:          0
cpu0_STLB PREFETCH REQUESTED:          0 ISSUED:          0 USEFUL:          0 USELESS:          0
cpu0_STLB AVERAGE MISS LATENCY: 191.7 cycles

DRAM Statistics

Channel 0 RQ ROW_BUFFER_HIT:     320309
  ROW_BUFFER_MISS:     489580
 AVG DBUS CONGESTED CYCLE: 3.956
WQ ROW_BUFFER_HIT: Channel 0 
  ROW_BUFFER_MISS:      32606
  FULL:     220386

Channel 1 RQ ROW_BUFFER_HIT:     317558
  ROW_BUFFER_MISS:     486558
 AVG DBUS CONGESTED CYCLE: 3.95
WQ ROW_BUFFER_HIT: Channel 1 
  ROW_BUFFER_MISS:      35198
  FULL:     217100
BERTI TO_L1: 83716116 TO_L2: 71145717 TO_L2_BC_MSHR: 30361720
BERTI AVG_LAT: 184.537 NUM_TRACK_LATENCY: 3354376 NUM_CANT_TRACK_LATENCY: 218
BERTI CROSS_PAGE 30306512 NO_CROSS_PAGE: 124555321
BERTI FOUND_BERTI: 25355205 NO_FOUND_BERTI: 10205978
BERTI AVERAGE_ISSUED: 3.25113
CPU 0 L1I Entangling prefetcher final stats
IP accesses: 12c9 4b240 2613 / 269691
IP misses: 448b 1122c0 815 / 60874
IP hits: 0 0 0 / 0
IP late: 2171 85c40 14 / 6211
IP wrong: 2172 85c80 25 / 9799
miss rate: 0.225718
coverage: 0
coverage_late: 0.102031
accuracy: 0
accuracy_late: 0.387946
discarded: 0
evicts entangled j table: 0
evicts entangled k table: 1667
max bb size: 65
formats: 518 0 1363 723 358 845 0 
hist_lookups: 1281 1327 1063 998 824 705 539 409 343 284 194 137 70 45 28 0 3 3695 
hist_lookups_evict: 0.0251152 %
hist_lookups_shortlat: 30.9335 %
bb_found_hist: 0 25370 11182 4099 3169 1910 3270 672 298 611 166 93 93 2 846 337 80 360 0 73 87 0 0 6 38 0 70 145 0 0 0 0 0 0 0 0 0 222 0 2 0 0 2 0 0 0 0 0 0 2 0 0 0 0 0 0 0 0 0 0 0 0 0 0 
bb_found_summary: 160974 53205 3.02555
entangled_found_hist: 0 16428 8810 11331 2596 659 61 0 
entangled_found_summary: 82086 39885 2.05807
bb_ent_found_hist: 0 25414 11857 7280 4282 2221 1524 2136 590 922 560 417 132 14 775 502 2 892 0 70 18 0 0 0 66 0 140 236 0 0 0 0 0 0 0 0 0 0 0 21 0 0 0 0 0 0 0 0 0 3 0 0 0 0 0 0 0 0 0 0 0 0 0 0 
bb_ent_found_summary: 196096 60074 3.26425
