WARNING: physical memory size is smaller than virtual memory size.

*** ChampSim Multicore Out-of-Order Simulator ***
Warmup Instructions: 30000000
Simulation Instructions: 100000000
Number of CPUs: 1
Page size: 4096

BTB:
Basic BTB sets: 1024 ways: 8
Indirect:
history lengths: 0 0 10 16 27 44 60 96 109 219 449 487 714 1313 2146 3881 
ITTAGE tables: 64768 bytes;Region table: 240 bytes;IUM: 384 bytes;Total Storage= 65392 bytes;
RAS:
RAS size: 64
Berti Prefetcher
CPU 0 Entangling prefetcher
Off-chip DRAM Size: 8 GiB Channels: 2 Width: 64-bit Data Race: 6400 MT/s
Heartbeat CPU 0 instructions: 10000001 cycles: 1667427 heartbeat IPC: 5.997 cumulative IPC: 5.997 (Simulation time: 00 hr 00 min 36 sec)
Heartbeat CPU 0 instructions: 20000003 cycles: 3334131 heartbeat IPC: 6 cumulative IPC: 5.999 (Simulation time: 00 hr 01 min 18 sec)
Heartbeat CPU 0 instructions: 30000008 cycles: 5000872 heartbeat IPC: 6 cumulative IPC: 5.999 (Simulation time: 00 hr 01 min 59 sec)
Warmup finished CPU 0 instructions: 30000008 cycles: 5000873 cumulative IPC: 5.999 (Simulation time: 00 hr 01 min 59 sec)
Warmup complete CPU 0 instructions: 30000008 cycles: 5000873 cumulative IPC: 5.999 (Simulation time: 00 hr 01 min 59 sec)
[cpu0_PTW_MSHR] entry:   0 address: 0x137580 v_addr: 0xc276d580 translation_level: 0 event_cycle: 18446744073709551615

DRAM Channel 0
[RQ] entry:   0 empty
[RQ] entry:   1 empty
[RQ] entry:   2 empty
[RQ] entry:   3 empty
[RQ] entry:   4 empty
[RQ] entry:   5 empty
[RQ] entry:   6 empty
[RQ] entry:   7 empty
[RQ] entry:   8 empty
[RQ] entry:   9 empty
[RQ] entry:  10 empty
[RQ] entry:  11 empty
[RQ] entry:  12 empty
[RQ] entry:  13 empty
[RQ] entry:  14 empty
[RQ] entry:  15 empty
[RQ] entry:  16 empty
[RQ] entry:  17 empty
[RQ] entry:  18 empty
[RQ] entry:  19 empty
[RQ] entry:  20 empty
[RQ] entry:  21 empty
[RQ] entry:  22 empty
[RQ] entry:  23 empty
[RQ] entry:  24 empty
[RQ] entry:  25 empty
[RQ] entry:  26 empty
[RQ] entry:  27 empty
[RQ] entry:  28 empty
[RQ] entry:  29 empty
[RQ] entry:  30 empty
[RQ] entry:  31 empty
[RQ] entry:  32 empty
[RQ] entry:  33 empty
[RQ] entry:  34 empty
[RQ] entry:  35 empty
[RQ] entry:  36 empty
[RQ] entry:  37 empty
[RQ] entry:  38 empty
[RQ] entry:  39 empty
[RQ] entry:  40 empty
[RQ] entry:  41 empty
[RQ] entry:  42 empty
[RQ] entry:  43 empty
[RQ] entry:  44 empty
[RQ] entry:  45 empty
[RQ] entry:  46 empty
[RQ] entry:  47 empty
[RQ] entry:  48 empty
[RQ] entry:  49 empty
[RQ] entry:  50 empty
[RQ] entry:  51 empty
[RQ] entry:  52 empty
[RQ] entry:  53 empty
[RQ] entry:  54 empty
[RQ] entry:  55 empty
[RQ] entry:  56 empty
[RQ] entry:  57 empty
[RQ] entry:  58 empty
[RQ] entry:  59 empty
[RQ] entry:  60 empty
[RQ] entry:  61 empty
[RQ] entry:  62 empty
[RQ] entry:  63 empty

[WQ] entry:   0 empty
[WQ] entry:   1 empty
[WQ] entry:   2 empty
[WQ] entry:   3 empty
[WQ] entry:   4 empty
[WQ] entry:   5 empty
[WQ] entry:   6 empty
[WQ] entry:   7 empty
[WQ] entry:   8 empty
[WQ] entry:   9 empty
[WQ] entry:  10 empty
[WQ] entry:  11 empty
[WQ] entry:  12 empty
[WQ] entry:  13 empty
[WQ] entry:  14 empty
[WQ] entry:  15 empty
[WQ] entry:  16 empty
[WQ] entry:  17 empty
[WQ] entry:  18 empty
[WQ] entry:  19 empty
[WQ] entry:  20 empty
[WQ] entry:  21 empty
[WQ] entry:  22 empty
[WQ] entry:  23 empty
[WQ] entry:  24 empty
[WQ] entry:  25 empty
[WQ] entry:  26 empty
[WQ] entry:  27 empty
[WQ] entry:  28 empty
[WQ] entry:  29 empty
[WQ] entry:  30 empty
[WQ] entry:  31 empty
[WQ] entry:  32 empty
[WQ] entry:  33 empty
[WQ] entry:  34 empty
[WQ] entry:  35 empty
[WQ] entry:  36 empty
[WQ] entry:  37 empty
[WQ] entry:  38 empty
[WQ] entry:  39 empty
[WQ] entry:  40 empty
[WQ] entry:  41 empty
[WQ] entry:  42 empty
[WQ] entry:  43 empty
[WQ] entry:  44 empty
[WQ] entry:  45 empty
[WQ] entry:  46 empty
[WQ] entry:  47 empty
[WQ] entry:  48 empty
[WQ] entry:  49 empty
[WQ] entry:  50 empty
[WQ] entry:  51 empty
[WQ] entry:  52 empty
[WQ] entry:  53 empty
[WQ] entry:  54 empty
[WQ] entry:  55 empty
[WQ] entry:  56 empty
[WQ] entry:  57 empty
[WQ] entry:  58 empty
[WQ] entry:  59 empty
[WQ] entry:  60 empty
[WQ] entry:  61 empty
[WQ] entry:  62 empty
[WQ] entry:  63 empty

DRAM Channel 1
[RQ] entry:   0 empty
[RQ] entry:   1 empty
[RQ] entry:   2 empty
[RQ] entry:   3 empty
[RQ] entry:   4 empty
[RQ] entry:   5 empty
[RQ] entry:   6 empty
[RQ] entry:   7 empty
[RQ] entry:   8 empty
[RQ] entry:   9 empty
[RQ] entry:  10 empty
[RQ] entry:  11 empty
[RQ] entry:  12 empty
[RQ] entry:  13 empty
[RQ] entry:  14 empty
[RQ] entry:  15 empty
[RQ] entry:  16 empty
[RQ] entry:  17 empty
[RQ] entry:  18 empty
[RQ] entry:  19 empty
[RQ] entry:  20 empty
[RQ] entry:  21 empty
[RQ] entry:  22 empty
[RQ] entry:  23 empty
[RQ] entry:  24 empty
[RQ] entry:  25 empty
[RQ] entry:  26 empty
[RQ] entry:  27 empty
[RQ] entry:  28 empty
[RQ] entry:  29 empty
[RQ] entry:  30 empty
[RQ] entry:  31 empty
[RQ] entry:  32 empty
[RQ] entry:  33 empty
[RQ] entry:  34 empty
[RQ] entry:  35 empty
[RQ] entry:  36 empty
[RQ] entry:  37 empty
[RQ] entry:  38 empty
[RQ] entry:  39 empty
[RQ] entry:  40 empty
[RQ] entry:  41 empty
[RQ] entry:  42 empty
[RQ] entry:  43 empty
[RQ] entry:  44 empty
[RQ] entry:  45 empty
[RQ] entry:  46 empty
[RQ] entry:  47 empty
[RQ] entry:  48 empty
[RQ] entry:  49 empty
[RQ] entry:  50 empty
[RQ] entry:  51 empty
[RQ] entry:  52 empty
[RQ] entry:  53 empty
[RQ] entry:  54 empty
[RQ] entry:  55 empty
[RQ] entry:  56 empty
[RQ] entry:  57 empty
[RQ] entry:  58 empty
[RQ] entry:  59 empty
[RQ] entry:  60 empty
[RQ] entry:  61 empty
[RQ] entry:  62 empty
[RQ] entry:  63 empty

[WQ] entry:   0 empty
[WQ] entry:   1 empty
[WQ] entry:   2 empty
[WQ] entry:   3 empty
[WQ] entry:   4 empty
[WQ] entry:   5 empty
[WQ] entry:   6 empty
[WQ] entry:   7 empty
[WQ] entry:   8 empty
[WQ] entry:   9 empty
[WQ] entry:  10 empty
[WQ] entry:  11 empty
[WQ] entry:  12 empty
[WQ] entry:  13 empty
[WQ] entry:  14 empty
[WQ] entry:  15 empty
[WQ] entry:  16 empty
[WQ] entry:  17 empty
[WQ] entry:  18 empty
[WQ] entry:  19 empty
[WQ] entry:  20 empty
[WQ] entry:  21 empty
[WQ] entry:  22 empty
[WQ] entry:  23 empty
[WQ] entry:  24 empty
[WQ] entry:  25 empty
[WQ] entry:  26 empty
[WQ] entry:  27 empty
[WQ] entry:  28 empty
[WQ] entry:  29 empty
[WQ] entry:  30 empty
[WQ] entry:  31 empty
[WQ] entry:  32 empty
[WQ] entry:  33 empty
[WQ] entry:  34 empty
[WQ] entry:  35 empty
[WQ] entry:  36 empty
[WQ] entry:  37 empty
[WQ] entry:  38 empty
[WQ] entry:  39 empty
[WQ] entry:  40 empty
[WQ] entry:  41 empty
[WQ] entry:  42 empty
[WQ] entry:  43 empty
[WQ] entry:  44 empty
[WQ] entry:  45 empty
[WQ] entry:  46 empty
[WQ] entry:  47 empty
[WQ] entry:  48 empty
[WQ] entry:  49 empty
[WQ] entry:  50 empty
[WQ] entry:  51 empty
[WQ] entry:  52 empty
[WQ] entry:  53 empty
[WQ] entry:  54 empty
[WQ] entry:  55 empty
[WQ] entry:  56 empty
[WQ] entry:  57 empty
[WQ] entry:  58 empty
[WQ] entry:  59 empty
[WQ] entry:  60 empty
[WQ] entry:  61 empty
[WQ] entry:  62 empty
[WQ] entry:  63 empty

DEADLOCK! CPU 0 cycle 5478245
[cpu0_IFETCH] entry:   0 instr_id: 30410636 fetched: 2 scheduled: 0 executed: 0 num_reg_dependent: 0 num_mem_ops: 0 event: 5470294
[cpu0_IFETCH] entry:   1 instr_id: 30410637 fetched: 2 scheduled: 0 executed: 0 num_reg_dependent: 0 num_mem_ops: 0 event: 5470294
[cpu0_IFETCH] entry:   2 instr_id: 30410638 fetched: 2 scheduled: 0 executed: 0 num_reg_dependent: 0 num_mem_ops: 0 event: 5470294
[cpu0_IFETCH] entry:   3 instr_id: 30410639 fetched: 2 scheduled: 0 executed: 0 num_reg_dependent: 0 num_mem_ops: 0 event: 5470294
[cpu0_IFETCH] entry:   4 instr_id: 30410640 fetched: 2 scheduled: 0 executed: 0 num_reg_dependent: 0 num_mem_ops: 0 event: 5470294
[cpu0_IFETCH] entry:   5 instr_id: 30410641 fetched: 2 scheduled: 0 executed: 0 num_reg_dependent: 0 num_mem_ops: 0 event: 5470295
[cpu0_IFETCH] entry:   6 instr_id: 30410642 fetched: 2 scheduled: 0 executed: 0 num_reg_dependent: 0 num_mem_ops: 0 event: 5470295
[cpu0_IFETCH] entry:   7 instr_id: 30410643 fetched: 2 scheduled: 0 executed: 0 num_reg_dependent: 0 num_mem_ops: 0 event: 5470295
[cpu0_IFETCH] entry:   8 instr_id: 30410644 fetched: 2 scheduled: 0 executed: 0 num_reg_dependent: 0 num_mem_ops: 0 event: 5470295
[cpu0_IFETCH] entry:   9 instr_id: 30410645 fetched: 2 scheduled: 0 executed: 0 num_reg_dependent: 0 num_mem_ops: 1 event: 5470295
[cpu0_IFETCH] entry:  10 instr_id: 30410646 fetched: 2 scheduled: 0 executed: 0 num_reg_dependent: 0 num_mem_ops: 0 event: 5470295
[cpu0_IFETCH] entry:  11 instr_id: 30410647 fetched: 2 scheduled: 0 executed: 0 num_reg_dependent: 0 num_mem_ops: 0 event: 5470296
[cpu0_IFETCH] entry:  12 instr_id: 30410648 fetched: 2 scheduled: 0 executed: 0 num_reg_dependent: 0 num_mem_ops: 1 event: 5470296
[cpu0_IFETCH] entry:  13 instr_id: 30410649 fetched: 2 scheduled: 0 executed: 0 num_reg_dependent: 0 num_mem_ops: 0 event: 5470296
[cpu0_IFETCH] entry:  14 instr_id: 30410650 fetched: 2 scheduled: 0 executed: 0 num_reg_dependent: 0 num_mem_ops: 0 event: 5470296
[cpu0_IFETCH] entry:  15 instr_id: 30410651 fetched: 2 scheduled: 0 executed: 0 num_reg_dependent: 0 num_mem_ops: 0 event: 5470296
[cpu0_IFETCH] entry:  16 instr_id: 30410652 fetched: 2 scheduled: 0 executed: 0 num_reg_dependent: 0 num_mem_ops: 1 event: 5470296
[cpu0_IFETCH] entry:  17 instr_id: 30410653 fetched: 2 scheduled: 0 executed: 0 num_reg_dependent: 0 num_mem_ops: 0 event: 5470297
[cpu0_IFETCH] entry:  18 instr_id: 30410654 fetched: 2 scheduled: 0 executed: 0 num_reg_dependent: 0 num_mem_ops: 1 event: 5470297
[cpu0_IFETCH] entry:  19 instr_id: 30410655 fetched: 2 scheduled: 0 executed: 0 num_reg_dependent: 0 num_mem_ops: 1 event: 5470297
[cpu0_IFETCH] entry:  20 instr_id: 30410656 fetched: 2 scheduled: 0 executed: 0 num_reg_dependent: 0 num_mem_ops: 0 event: 5470297
[cpu0_IFETCH] entry:  21 instr_id: 30410657 fetched: 2 scheduled: 0 executed: 0 num_reg_dependent: 0 num_mem_ops: 1 event: 5470297
[cpu0_IFETCH] entry:  22 instr_id: 30410658 fetched: 2 scheduled: 0 executed: 0 num_reg_dependent: 0 num_mem_ops: 1 event: 5470297
[cpu0_IFETCH] entry:  23 instr_id: 30410659 fetched: 2 scheduled: 0 executed: 0 num_reg_dependent: 0 num_mem_ops: 0 event: 5470298
[cpu0_IFETCH] entry:  24 instr_id: 30410660 fetched: 2 scheduled: 0 executed: 0 num_reg_dependent: 0 num_mem_ops: 1 event: 5470298
[cpu0_IFETCH] entry:  25 instr_id: 30410661 fetched: 2 scheduled: 0 executed: 0 num_reg_dependent: 0 num_mem_ops: 0 event: 5470298
[cpu0_IFETCH] entry:  26 instr_id: 30410662 fetched: 2 scheduled: 0 executed: 0 num_reg_dependent: 0 num_mem_ops: 1 event: 5470298
[cpu0_IFETCH] entry:  27 instr_id: 30410663 fetched: 2 scheduled: 0 executed: 0 num_reg_dependent: 0 num_mem_ops: 0 event: 5470298
[cpu0_IFETCH] entry:  28 instr_id: 30410664 fetched: 2 scheduled: 0 executed: 0 num_reg_dependent: 0 num_mem_ops: 0 event: 5470298
[cpu0_IFETCH] entry:  29 instr_id: 30410665 fetched: 2 scheduled: 0 executed: 0 num_reg_dependent: 0 num_mem_ops: 0 event: 5470299
[cpu0_IFETCH] entry:  30 instr_id: 30410666 fetched: 2 scheduled: 0 executed: 0 num_reg_dependent: 0 num_mem_ops: 0 event: 5470299
[cpu0_IFETCH] entry:  31 instr_id: 30410667 fetched: 2 scheduled: 0 executed: 0 num_reg_dependent: 0 num_mem_ops: 0 event: 5470299
[cpu0_IFETCH] entry:  32 instr_id: 30410668 fetched: 2 scheduled: 0 executed: 0 num_reg_dependent: 0 num_mem_ops: 0 event: 5470299
[cpu0_IFETCH] entry:  33 instr_id: 30410669 fetched: 2 scheduled: 0 executed: 0 num_reg_dependent: 0 num_mem_ops: 0 event: 5470299
[cpu0_IFETCH] entry:  34 instr_id: 30410670 fetched: 2 scheduled: 0 executed: 0 num_reg_dependent: 0 num_mem_ops: 0 event: 5470299
[cpu0_IFETCH] entry:  35 instr_id: 30410671 fetched: 2 scheduled: 0 executed: 0 num_reg_dependent: 0 num_mem_ops: 0 event: 5470300
[cpu0_IFETCH] entry:  36 instr_id: 30410672 fetched: 2 scheduled: 0 executed: 0 num_reg_dependent: 0 num_mem_ops: 1 event: 5470300
[cpu0_IFETCH] entry:  37 instr_id: 30410673 fetched: 2 scheduled: 0 executed: 0 num_reg_dependent: 0 num_mem_ops: 0 event: 5470300
[cpu0_IFETCH] entry:  38 instr_id: 30410674 fetched: 2 scheduled: 0 executed: 0 num_reg_dependent: 0 num_mem_ops: 0 event: 5470300
[cpu0_IFETCH] entry:  39 instr_id: 30410675 fetched: 2 scheduled: 0 executed: 0 num_reg_dependent: 0 num_mem_ops: 0 event: 5470300
[cpu0_IFETCH] entry:  40 instr_id: 30410676 fetched: 2 scheduled: 0 executed: 0 num_reg_dependent: 0 num_mem_ops: 1 event: 5470300
[cpu0_IFETCH] entry:  41 instr_id: 30410677 fetched: 2 scheduled: 0 executed: 0 num_reg_dependent: 0 num_mem_ops: 0 event: 5470301
[cpu0_IFETCH] entry:  42 instr_id: 30410678 fetched: 2 scheduled: 0 executed: 0 num_reg_dependent: 0 num_mem_ops: 0 event: 5470301
[cpu0_IFETCH] entry:  43 instr_id: 30410679 fetched: 2 scheduled: 0 executed: 0 num_reg_dependent: 0 num_mem_ops: 0 event: 5470301
[cpu0_IFETCH] entry:  44 instr_id: 30410680 fetched: 2 scheduled: 0 executed: 0 num_reg_dependent: 0 num_mem_ops: 0 event: 5470301
[cpu0_IFETCH] entry:  45 instr_id: 30410681 fetched: 2 scheduled: 0 executed: 0 num_reg_dependent: 0 num_mem_ops: 0 event: 5470301
[cpu0_IFETCH] entry:  46 instr_id: 30410682 fetched: 2 scheduled: 0 executed: 0 num_reg_dependent: 0 num_mem_ops: 0 event: 5470301
[cpu0_IFETCH] entry:  47 instr_id: 30410683 fetched: 2 scheduled: 0 executed: 0 num_reg_dependent: 0 num_mem_ops: 0 event: 5470302
[cpu0_IFETCH] entry:  48 instr_id: 30410684 fetched: 2 scheduled: 0 executed: 0 num_reg_dependent: 0 num_mem_ops: 0 event: 5470302
[cpu0_IFETCH] entry:  49 instr_id: 30410685 fetched: 2 scheduled: 0 executed: 0 num_reg_dependent: 0 num_mem_ops: 0 event: 5470302
[cpu0_IFETCH] entry:  50 instr_id: 30410686 fetched: 2 scheduled: 0 executed: 0 num_reg_dependent: 0 num_mem_ops: 1 event: 5470302
[cpu0_IFETCH] entry:  51 instr_id: 30410687 fetched: 2 scheduled: 0 executed: 0 num_reg_dependent: 0 num_mem_ops: 0 event: 5470302
[cpu0_IFETCH] entry:  52 instr_id: 30410688 fetched: 2 scheduled: 0 executed: 0 num_reg_dependent: 0 num_mem_ops: 0 event: 5470302
[cpu0_IFETCH] entry:  53 instr_id: 30410689 fetched: 2 scheduled: 0 executed: 0 num_reg_dependent: 0 num_mem_ops: 1 event: 5470303
[cpu0_IFETCH] entry:  54 instr_id: 30410690 fetched: 2 scheduled: 0 executed: 0 num_reg_dependent: 0 num_mem_ops: 0 event: 5470303
[cpu0_IFETCH] entry:  55 instr_id: 30410691 fetched: 2 scheduled: 0 executed: 0 num_reg_dependent: 0 num_mem_ops: 0 event: 5470303
[cpu0_IFETCH] entry:  56 instr_id: 30410692 fetched: 2 scheduled: 0 executed: 0 num_reg_dependent: 0 num_mem_ops: 0 event: 5470303
[cpu0_IFETCH] entry:  57 instr_id: 30410693 fetched: 2 scheduled: 0 executed: 0 num_reg_dependent: 0 num_mem_ops: 1 event: 5470303
[cpu0_IFETCH] entry:  58 instr_id: 30410694 fetched: 2 scheduled: 0 executed: 0 num_reg_dependent: 0 num_mem_ops: 0 event: 5470303
[cpu0_IFETCH] entry:  59 instr_id: 30410695 fetched: 2 scheduled: 0 executed: 0 num_reg_dependent: 0 num_mem_ops: 1 event: 5470304
[cpu0_IFETCH] entry:  60 instr_id: 30410696 fetched: 2 scheduled: 0 executed: 0 num_reg_dependent: 0 num_mem_ops: 1 event: 5470304
[cpu0_IFETCH] entry:  61 instr_id: 30410697 fetched: 2 scheduled: 0 executed: 0 num_reg_dependent: 0 num_mem_ops: 0 event: 5470304
[cpu0_IFETCH] entry:  62 instr_id: 30410698 fetched: 2 scheduled: 0 executed: 0 num_reg_dependent: 0 num_mem_ops: 1 event: 5470304
[cpu0_IFETCH] entry:  63 instr_id: 30410699 fetched: 2 scheduled: 0 executed: 0 num_reg_dependent: 0 num_mem_ops: 1 event: 5470304
[cpu0_IFETCH] entry:  64 instr_id: 30410700 fetched: 2 scheduled: 0 executed: 0 num_reg_dependent: 0 num_mem_ops: 0 event: 5470304
[cpu0_IFETCH] entry:  65 instr_id: 30410701 fetched: 2 scheduled: 0 executed: 0 num_reg_dependent: 0 num_mem_ops: 1 event: 5470305
[cpu0_IFETCH] entry:  66 instr_id: 30410702 fetched: 2 scheduled: 0 executed: 0 num_reg_dependent: 0 num_mem_ops: 0 event: 5470305
[cpu0_IFETCH] entry:  67 instr_id: 30410703 fetched: 2 scheduled: 0 executed: 0 num_reg_dependent: 0 num_mem_ops: 1 event: 5470305
[cpu0_IFETCH] entry:  68 instr_id: 30410704 fetched: 2 scheduled: 0 executed: 0 num_reg_dependent: 0 num_mem_ops: 0 event: 5470305
[cpu0_IFETCH] entry:  69 instr_id: 30410705 fetched: 2 scheduled: 0 executed: 0 num_reg_dependent: 0 num_mem_ops: 0 event: 5470305
[cpu0_IFETCH] entry:  70 instr_id: 30410706 fetched: 2 scheduled: 0 executed: 0 num_reg_dependent: 0 num_mem_ops: 0 event: 5470306
[cpu0_IFETCH] entry:  71 instr_id: 30410707 fetched: 2 scheduled: 0 executed: 0 num_reg_dependent: 0 num_mem_ops: 0 event: 5470306
[cpu0_IFETCH] entry:  72 instr_id: 30410708 fetched: 2 scheduled: 0 executed: 0 num_reg_dependent: 0 num_mem_ops: 0 event: 5470306
[cpu0_IFETCH] entry:  73 instr_id: 30410709 fetched: 2 scheduled: 0 executed: 0 num_reg_dependent: 0 num_mem_ops: 0 event: 5470306
[cpu0_IFETCH] entry:  74 instr_id: 30410710 fetched: 2 scheduled: 0 executed: 0 num_reg_dependent: 0 num_mem_ops: 0 event: 5470306
[cpu0_IFETCH] entry:  75 instr_id: 30410711 fetched: 2 scheduled: 0 executed: 0 num_reg_dependent: 0 num_mem_ops: 0 event: 5470306
[cpu0_IFETCH] entry:  76 instr_id: 30410712 fetched: 2 scheduled: 0 executed: 0 num_reg_dependent: 0 num_mem_ops: 0 event: 5470306
[cpu0_IFETCH] entry:  77 instr_id: 30410713 fetched: 2 scheduled: 0 executed: 0 num_reg_dependent: 0 num_mem_ops: 1 event: 5470307
[cpu0_IFETCH] entry:  78 instr_id: 30410714 fetched: 2 scheduled: 0 executed: 0 num_reg_dependent: 0 num_mem_ops: 0 event: 5470307
[cpu0_IFETCH] entry:  79 instr_id: 30410715 fetched: 2 scheduled: 0 executed: 0 num_reg_dependent: 0 num_mem_ops: 0 event: 5470307
[cpu0_IFETCH] entry:  80 instr_id: 30410716 fetched: 2 scheduled: 0 executed: 0 num_reg_dependent: 0 num_mem_ops: 0 event: 5470307
[cpu0_IFETCH] entry:  81 instr_id: 30410717 fetched: 2 scheduled: 0 executed: 0 num_reg_dependent: 0 num_mem_ops: 1 event: 5470307
[cpu0_IFETCH] entry:  82 instr_id: 30410718 fetched: 2 scheduled: 0 executed: 0 num_reg_dependent: 0 num_mem_ops: 0 event: 5470307
[cpu0_IFETCH] entry:  83 instr_id: 30410719 fetched: 2 scheduled: 0 executed: 0 num_reg_dependent: 0 num_mem_ops: 0 event: 5470308
[cpu0_IFETCH] entry:  84 instr_id: 30410720 fetched: 2 scheduled: 0 executed: 0 num_reg_dependent: 0 num_mem_ops: 0 event: 5470308
[cpu0_IFETCH] entry:  85 instr_id: 30410721 fetched: 2 scheduled: 0 executed: 0 num_reg_dependent: 0 num_mem_ops: 0 event: 5470308
[cpu0_IFETCH] entry:  86 instr_id: 30410722 fetched: 2 scheduled: 0 executed: 0 num_reg_dependent: 0 num_mem_ops: 0 event: 5470308
[cpu0_IFETCH] entry:  87 instr_id: 30410723 fetched: 2 scheduled: 0 executed: 0 num_reg_dependent: 0 num_mem_ops: 0 event: 5470308
[cpu0_IFETCH] entry:  88 instr_id: 30410724 fetched: 2 scheduled: 0 executed: 0 num_reg_dependent: 0 num_mem_ops: 0 event: 5470308
[cpu0_IFETCH] entry:  89 instr_id: 30410725 fetched: 2 scheduled: 0 executed: 0 num_reg_dependent: 0 num_mem_ops: 0 event: 5470309
[cpu0_IFETCH] entry:  90 instr_id: 30410726 fetched: 2 scheduled: 0 executed: 0 num_reg_dependent: 0 num_mem_ops: 0 event: 5470309
[cpu0_IFETCH] entry:  91 instr_id: 30410727 fetched: 2 scheduled: 0 executed: 0 num_reg_dependent: 0 num_mem_ops: 1 event: 5470309
[cpu0_IFETCH] entry:  92 instr_id: 30410728 fetched: 2 scheduled: 0 executed: 0 num_reg_dependent: 0 num_mem_ops: 0 event: 5470309
[cpu0_IFETCH] entry:  93 instr_id: 30410729 fetched: 2 scheduled: 0 executed: 0 num_reg_dependent: 0 num_mem_ops: 0 event: 5470309
[cpu0_IFETCH] entry:  94 instr_id: 30410730 fetched: 2 scheduled: 0 executed: 0 num_reg_dependent: 0 num_mem_ops: 1 event: 5470309
[cpu0_IFETCH] entry:  95 instr_id: 30410731 fetched: 2 scheduled: 0 executed: 0 num_reg_dependent: 0 num_mem_ops: 0 event: 5470310
[cpu0_IFETCH] entry:  96 instr_id: 30410732 fetched: 2 scheduled: 0 executed: 0 num_reg_dependent: 0 num_mem_ops: 0 event: 5470310
[cpu0_IFETCH] entry:  97 instr_id: 30410733 fetched: 2 scheduled: 0 executed: 0 num_reg_dependent: 0 num_mem_ops: 0 event: 5470310
[cpu0_IFETCH] entry:  98 instr_id: 30410734 fetched: 2 scheduled: 0 executed: 0 num_reg_dependent: 0 num_mem_ops: 1 event: 5470310
[cpu0_IFETCH] entry:  99 instr_id: 30410735 fetched: 2 scheduled: 0 executed: 0 num_reg_dependent: 0 num_mem_ops: 0 event: 5470310
[cpu0_IFETCH] entry: 100 instr_id: 30410736 fetched: 2 scheduled: 0 executed: 0 num_reg_dependent: 0 num_mem_ops: 1 event: 5470310
[cpu0_IFETCH] entry: 101 instr_id: 30410737 fetched: 2 scheduled: 0 executed: 0 num_reg_dependent: 0 num_mem_ops: 1 event: 5470311
[cpu0_IFETCH] entry: 102 instr_id: 30410738 fetched: 2 scheduled: 0 executed: 0 num_reg_dependent: 0 num_mem_ops: 0 event: 5470311
[cpu0_IFETCH] entry: 103 instr_id: 30410739 fetched: 2 scheduled: 0 executed: 0 num_reg_dependent: 0 num_mem_ops: 1 event: 5470311
[cpu0_IFETCH] entry: 104 instr_id: 30410740 fetched: 2 scheduled: 0 executed: 0 num_reg_dependent: 0 num_mem_ops: 1 event: 5470311
[cpu0_IFETCH] entry: 105 instr_id: 30410741 fetched: 2 scheduled: 0 executed: 0 num_reg_dependent: 0 num_mem_ops: 0 event: 5470311
[cpu0_IFETCH] entry: 106 instr_id: 30410742 fetched: 2 scheduled: 0 executed: 0 num_reg_dependent: 0 num_mem_ops: 1 event: 5470311
[cpu0_IFETCH] entry: 107 instr_id: 30410743 fetched: 2 scheduled: 0 executed: 0 num_reg_dependent: 0 num_mem_ops: 0 event: 5470312
[cpu0_IFETCH] entry: 108 instr_id: 30410744 fetched: 2 scheduled: 0 executed: 0 num_reg_dependent: 0 num_mem_ops: 1 event: 5470312
[cpu0_IFETCH] entry: 109 instr_id: 30410745 fetched: 2 scheduled: 0 executed: 0 num_reg_dependent: 0 num_mem_ops: 0 event: 5470312
[cpu0_IFETCH] entry: 110 instr_id: 30410746 fetched: 2 scheduled: 0 executed: 0 num_reg_dependent: 0 num_mem_ops: 0 event: 5470312
[cpu0_IFETCH] entry: 111 instr_id: 30410747 fetched: 2 scheduled: 0 executed: 0 num_reg_dependent: 0 num_mem_ops: 0 event: 5470313
[cpu0_IFETCH] entry: 112 instr_id: 30410748 fetched: 2 scheduled: 0 executed: 0 num_reg_dependent: 0 num_mem_ops: 0 event: 5470313
[cpu0_IFETCH] entry: 113 instr_id: 30410749 fetched: 2 scheduled: 0 executed: 0 num_reg_dependent: 0 num_mem_ops: 0 event: 5470313
[cpu0_IFETCH] entry: 114 instr_id: 30410750 fetched: 2 scheduled: 0 executed: 0 num_reg_dependent: 0 num_mem_ops: 0 event: 5470313
[cpu0_IFETCH] entry: 115 instr_id: 30410751 fetched: 2 scheduled: 0 executed: 0 num_reg_dependent: 0 num_mem_ops: 0 event: 5470313
[cpu0_IFETCH] entry: 116 instr_id: 30410752 fetched: 2 scheduled: 0 executed: 0 num_reg_dependent: 0 num_mem_ops: 0 event: 5470313
[cpu0_IFETCH] entry: 117 instr_id: 30410753 fetched: 2 scheduled: 0 executed: 0 num_reg_dependent: 0 num_mem_ops: 0 event: 5470313
[cpu0_IFETCH] entry: 118 instr_id: 30410754 fetched: 2 scheduled: 0 executed: 0 num_reg_dependent: 0 num_mem_ops: 1 event: 5470313
[cpu0_IFETCH] entry: 119 instr_id: 30410755 fetched: 2 scheduled: 0 executed: 0 num_reg_dependent: 0 num_mem_ops: 0 event: 5470314
[cpu0_IFETCH] entry: 120 instr_id: 30410756 fetched: 2 scheduled: 0 executed: 0 num_reg_dependent: 0 num_mem_ops: 0 event: 5470314
[cpu0_IFETCH] entry: 121 instr_id: 30410757 fetched: 2 scheduled: 0 executed: 0 num_reg_dependent: 0 num_mem_ops: 0 event: 5470314
[cpu0_IFETCH] entry: 122 instr_id: 30410758 fetched: 2 scheduled: 0 executed: 0 num_reg_dependent: 0 num_mem_ops: 1 event: 5470314
[cpu0_IFETCH] entry: 123 instr_id: 30410759 fetched: 2 scheduled: 0 executed: 0 num_reg_dependent: 0 num_mem_ops: 0 event: 5470314
[cpu0_IFETCH] entry: 124 instr_id: 30410760 fetched: 2 scheduled: 0 executed: 0 num_reg_dependent: 0 num_mem_ops: 0 event: 5470314
[cpu0_IFETCH] entry: 125 instr_id: 30410761 fetched: 2 scheduled: 0 executed: 0 num_reg_dependent: 0 num_mem_ops: 0 event: 5470315
[cpu0_IFETCH] entry: 126 instr_id: 30410762 fetched: 2 scheduled: 0 executed: 0 num_reg_dependent: 0 num_mem_ops: 0 event: 5470315
[cpu0_IFETCH] entry: 127 instr_id: 30410763 fetched: 2 scheduled: 0 executed: 0 num_reg_dependent: 0 num_mem_ops: 0 event: 5470315
[cpu0_IFETCH] entry: 128 instr_id: 30410764 fetched: 2 scheduled: 0 executed: 0 num_reg_dependent: 0 num_mem_ops: 0 event: 5470315
[cpu0_IFETCH] entry: 129 instr_id: 30410765 fetched: 2 scheduled: 0 executed: 0 num_reg_dependent: 0 num_mem_ops: 0 event: 5470315
[cpu0_IFETCH] entry: 130 instr_id: 30410766 fetched: 2 scheduled: 0 executed: 0 num_reg_dependent: 0 num_mem_ops: 0 event: 5470315
[cpu0_IFETCH] entry: 131 instr_id: 30410767 fetched: 2 scheduled: 0 executed: 0 num_reg_dependent: 0 num_mem_ops: 0 event: 5470316
[cpu0_IFETCH] entry: 132 instr_id: 30410768 fetched: 2 scheduled: 0 executed: 0 num_reg_dependent: 0 num_mem_ops: 1 event: 5470316
[cpu0_IFETCH] entry: 133 instr_id: 30410769 fetched: 2 scheduled: 0 executed: 0 num_reg_dependent: 0 num_mem_ops: 0 event: 5470316
[cpu0_IFETCH] entry: 134 instr_id: 30410770 fetched: 2 scheduled: 0 executed: 0 num_reg_dependent: 0 num_mem_ops: 0 event: 5470316
[cpu0_IFETCH] entry: 135 instr_id: 30410771 fetched: 2 scheduled: 0 executed: 0 num_reg_dependent: 0 num_mem_ops: 1 event: 5470316
[cpu0_IFETCH] entry: 136 instr_id: 30410772 fetched: 2 scheduled: 0 executed: 0 num_reg_dependent: 0 num_mem_ops: 0 event: 5470316
[cpu0_IFETCH] entry: 137 instr_id: 30410773 fetched: 2 scheduled: 0 executed: 0 num_reg_dependent: 0 num_mem_ops: 0 event: 5470317
[cpu0_IFETCH] entry: 138 instr_id: 30410774 fetched: 2 scheduled: 0 executed: 0 num_reg_dependent: 0 num_mem_ops: 0 event: 5470317
[cpu0_IFETCH] entry: 139 instr_id: 30410775 fetched: 2 scheduled: 0 executed: 0 num_reg_dependent: 0 num_mem_ops: 1 event: 5470317
[cpu0_IFETCH] entry: 140 instr_id: 30410776 fetched: 2 scheduled: 0 executed: 0 num_reg_dependent: 0 num_mem_ops: 0 event: 5470317
[cpu0_IFETCH] entry: 141 instr_id: 30410777 fetched: 2 scheduled: 0 executed: 0 num_reg_dependent: 0 num_mem_ops: 1 event: 5470317
[cpu0_IFETCH] entry: 142 instr_id: 30410778 fetched: 2 scheduled: 0 executed: 0 num_reg_dependent: 0 num_mem_ops: 1 event: 5470317
[cpu0_IFETCH] entry: 143 instr_id: 30410779 fetched: 2 scheduled: 0 executed: 0 num_reg_dependent: 0 num_mem_ops: 0 event: 5470318
[cpu0_IFETCH] entry: 144 instr_id: 30410780 fetched: 2 scheduled: 0 executed: 0 num_reg_dependent: 0 num_mem_ops: 1 event: 5470318
[cpu0_IFETCH] entry: 145 instr_id: 30410781 fetched: 2 scheduled: 0 executed: 0 num_reg_dependent: 0 num_mem_ops: 1 event: 5470318
[cpu0_IFETCH] entry: 146 instr_id: 30410782 fetched: 2 scheduled: 0 executed: 0 num_reg_dependent: 0 num_mem_ops: 0 event: 5470318
[cpu0_IFETCH] entry: 147 instr_id: 30410783 fetched: 2 scheduled: 0 executed: 0 num_reg_dependent: 0 num_mem_ops: 1 event: 5470318
[cpu0_IFETCH] entry: 148 instr_id: 30410784 fetched: 2 scheduled: 0 executed: 0 num_reg_dependent: 0 num_mem_ops: 0 event: 5470318
[cpu0_IFETCH] entry: 149 instr_id: 30410785 fetched: 2 scheduled: 0 executed: 0 num_reg_dependent: 0 num_mem_ops: 1 event: 5470319
[cpu0_IFETCH] entry: 150 instr_id: 30410786 fetched: 2 scheduled: 0 executed: 0 num_reg_dependent: 0 num_mem_ops: 0 event: 5470319
[cpu0_IFETCH] entry: 151 instr_id: 30410787 fetched: 2 scheduled: 0 executed: 0 num_reg_dependent: 0 num_mem_ops: 0 event: 5470319
[cpu0_IFETCH] entry: 152 instr_id: 30410788 fetched: 2 scheduled: 0 executed: 0 num_reg_dependent: 0 num_mem_ops: 0 event: 5470320
[cpu0_IFETCH] entry: 153 instr_id: 30410789 fetched: 2 scheduled: 0 executed: 0 num_reg_dependent: 0 num_mem_ops: 0 event: 5470320
[cpu0_IFETCH] entry: 154 instr_id: 30410790 fetched: 2 scheduled: 0 executed: 0 num_reg_dependent: 0 num_mem_ops: 0 event: 5470320
[cpu0_IFETCH] entry: 155 instr_id: 30410791 fetched: 2 scheduled: 0 executed: 0 num_reg_dependent: 0 num_mem_ops: 0 event: 5470320
[cpu0_IFETCH] entry: 156 instr_id: 30410792 fetched: 2 scheduled: 0 executed: 0 num_reg_dependent: 0 num_mem_ops: 0 event: 5470320
[cpu0_IFETCH] entry: 157 instr_id: 30410793 fetched: 2 scheduled: 0 executed: 0 num_reg_dependent: 0 num_mem_ops: 0 event: 5470320
[cpu0_IFETCH] entry: 158 instr_id: 30410794 fetched: 2 scheduled: 0 executed: 0 num_reg_dependent: 0 num_mem_ops: 0 event: 5470320
[cpu0_IFETCH] entry: 159 instr_id: 30410795 fetched: 2 scheduled: 0 executed: 0 num_reg_dependent: 0 num_mem_ops: 1 event: 5470320
[cpu0_IFETCH] entry: 160 instr_id: 30410796 fetched: 2 scheduled: 0 executed: 0 num_reg_dependent: 0 num_mem_ops: 0 event: 5470320
[cpu0_IFETCH] entry: 161 instr_id: 30410797 fetched: 2 scheduled: 0 executed: 0 num_reg_dependent: 0 num_mem_ops: 0 event: 5470321
[cpu0_IFETCH] entry: 162 instr_id: 30410798 fetched: 2 scheduled: 0 executed: 0 num_reg_dependent: 0 num_mem_ops: 0 event: 5470321
[cpu0_IFETCH] entry: 163 instr_id: 30410799 fetched: 2 scheduled: 0 executed: 0 num_reg_dependent: 0 num_mem_ops: 1 event: 5470321
[cpu0_IFETCH] entry: 164 instr_id: 30410800 fetched: 2 scheduled: 0 executed: 0 num_reg_dependent: 0 num_mem_ops: 0 event: 5470321
[cpu0_IFETCH] entry: 165 instr_id: 30410801 fetched: 2 scheduled: 0 executed: 0 num_reg_dependent: 0 num_mem_ops: 0 event: 5470321
[cpu0_IFETCH] entry: 166 instr_id: 30410802 fetched: 2 scheduled: 0 executed: 0 num_reg_dependent: 0 num_mem_ops: 0 event: 5470321
[cpu0_IFETCH] entry: 167 instr_id: 30410803 fetched: 2 scheduled: 0 executed: 0 num_reg_dependent: 0 num_mem_ops: 0 event: 5470322
[cpu0_IFETCH] entry: 168 instr_id: 30410804 fetched: 2 scheduled: 0 executed: 0 num_reg_dependent: 0 num_mem_ops: 0 event: 5470368
[cpu0_IFETCH] entry: 169 instr_id: 30410805 fetched: 2 scheduled: 0 executed: 0 num_reg_dependent: 0 num_mem_ops: 0 event: 5470368
[cpu0_IFETCH] entry: 170 instr_id: 30410806 fetched: 2 scheduled: 0 executed: 0 num_reg_dependent: 0 num_mem_ops: 0 event: 5470368
[cpu0_IFETCH] entry: 171 instr_id: 30410807 fetched: 2 scheduled: 0 executed: 0 num_reg_dependent: 0 num_mem_ops: 0 event: 5470368
[cpu0_IFETCH] entry: 172 instr_id: 30410808 fetched: 2 scheduled: 0 executed: 0 num_reg_dependent: 0 num_mem_ops: 0 event: 5470368
[cpu0_IFETCH] entry: 173 instr_id: 30410809 fetched: 2 scheduled: 0 executed: 0 num_reg_dependent: 0 num_mem_ops: 1 event: 5470368
[cpu0_IFETCH] entry: 174 instr_id: 30410810 fetched: 2 scheduled: 0 executed: 0 num_reg_dependent: 0 num_mem_ops: 0 event: 5470369
[cpu0_IFETCH] entry: 175 instr_id: 30410811 fetched: 2 scheduled: 0 executed: 0 num_reg_dependent: 0 num_mem_ops: 0 event: 5470369
[cpu0_IFETCH] entry: 176 instr_id: 30410812 fetched: 2 scheduled: 0 executed: 0 num_reg_dependent: 0 num_mem_ops: 1 event: 5470369
[cpu0_IFETCH] entry: 177 instr_id: 30410813 fetched: 2 scheduled: 0 executed: 0 num_reg_dependent: 0 num_mem_ops: 0 event: 5470369
[cpu0_IFETCH] entry: 178 instr_id: 30410814 fetched: 2 scheduled: 0 executed: 0 num_reg_dependent: 0 num_mem_ops: 0 event: 5470393
[cpu0_IFETCH] entry: 179 instr_id: 30410815 fetched: 2 scheduled: 0 executed: 0 num_reg_dependent: 0 num_mem_ops: 0 event: 5470393
[cpu0_IFETCH] entry: 180 instr_id: 30410816 fetched: 2 scheduled: 0 executed: 0 num_reg_dependent: 0 num_mem_ops: 1 event: 5470393
[cpu0_IFETCH] entry: 181 instr_id: 30410817 fetched: 2 scheduled: 0 executed: 0 num_reg_dependent: 0 num_mem_ops: 0 event: 5470393
[cpu0_IFETCH] entry: 182 instr_id: 30410818 fetched: 2 scheduled: 0 executed: 0 num_reg_dependent: 0 num_mem_ops: 1 event: 5470393
[cpu0_IFETCH] entry: 183 instr_id: 30410819 fetched: 2 scheduled: 0 executed: 0 num_reg_dependent: 0 num_mem_ops: 1 event: 5470394
[cpu0_IFETCH] entry: 184 instr_id: 30410820 fetched: 2 scheduled: 0 executed: 0 num_reg_dependent: 0 num_mem_ops: 0 event: 5470394
[cpu0_IFETCH] entry: 185 instr_id: 30410821 fetched: 2 scheduled: 0 executed: 0 num_reg_dependent: 0 num_mem_ops: 1 event: 5470394
[cpu0_IFETCH] entry: 186 instr_id: 30410822 fetched: 2 scheduled: 0 executed: 0 num_reg_dependent: 0 num_mem_ops: 1 event: 5470394
[cpu0_IFETCH] entry: 187 instr_id: 30410823 fetched: 2 scheduled: 0 executed: 0 num_reg_dependent: 0 num_mem_ops: 0 event: 5470395
[cpu0_IFETCH] entry: 188 instr_id: 30410824 fetched: 2 scheduled: 0 executed: 0 num_reg_dependent: 0 num_mem_ops: 1 event: 5470395
[cpu0_IFETCH] entry: 189 instr_id: 30410825 fetched: 2 scheduled: 0 executed: 0 num_reg_dependent: 0 num_mem_ops: 0 event: 5470395
[cpu0_IFETCH] entry: 190 instr_id: 30410826 fetched: 2 scheduled: 0 executed: 0 num_reg_dependent: 0 num_mem_ops: 1 event: 5470395
[cpu0_IFETCH] entry: 191 instr_id: 30410827 fetched: 2 scheduled: 0 executed: 0 num_reg_dependent: 0 num_mem_ops: 0 event: 5470395

[cpu0_DECODE] entry:   0 instr_id: 30410492 fetched: 2 scheduled: 0 executed: 0 num_reg_dependent: 0 num_mem_ops: 0 event: 5470301
[cpu0_DECODE] entry:   1 instr_id: 30410493 fetched: 2 scheduled: 0 executed: 0 num_reg_dependent: 0 num_mem_ops: 1 event: 5470301
[cpu0_DECODE] entry:   2 instr_id: 30410494 fetched: 2 scheduled: 0 executed: 0 num_reg_dependent: 0 num_mem_ops: 1 event: 5470301
[cpu0_DECODE] entry:   3 instr_id: 30410495 fetched: 2 scheduled: 0 executed: 0 num_reg_dependent: 0 num_mem_ops: 0 event: 5470301
[cpu0_DECODE] entry:   4 instr_id: 30410496 fetched: 2 scheduled: 0 executed: 0 num_reg_dependent: 0 num_mem_ops: 1 event: 5470301
[cpu0_DECODE] entry:   5 instr_id: 30410497 fetched: 2 scheduled: 0 executed: 0 num_reg_dependent: 0 num_mem_ops: 0 event: 5470302
[cpu0_DECODE] entry:   6 instr_id: 30410498 fetched: 2 scheduled: 0 executed: 0 num_reg_dependent: 0 num_mem_ops: 1 event: 5470302
[cpu0_DECODE] entry:   7 instr_id: 30410499 fetched: 2 scheduled: 0 executed: 0 num_reg_dependent: 0 num_mem_ops: 0 event: 5470302
[cpu0_DECODE] entry:   8 instr_id: 30410500 fetched: 2 scheduled: 0 executed: 0 num_reg_dependent: 0 num_mem_ops: 0 event: 5470302
[cpu0_DECODE] entry:   9 instr_id: 30410501 fetched: 2 scheduled: 0 executed: 0 num_reg_dependent: 0 num_mem_ops: 0 event: 5470302
[cpu0_DECODE] entry:  10 instr_id: 30410502 fetched: 2 scheduled: 0 executed: 0 num_reg_dependent: 0 num_mem_ops: 0 event: 5470302
[cpu0_DECODE] entry:  11 instr_id: 30410503 fetched: 2 scheduled: 0 executed: 0 num_reg_dependent: 0 num_mem_ops: 0 event: 5470303
[cpu0_DECODE] entry:  12 instr_id: 30410504 fetched: 2 scheduled: 0 executed: 0 num_reg_dependent: 0 num_mem_ops: 0 event: 5470303
[cpu0_DECODE] entry:  13 instr_id: 30410505 fetched: 2 scheduled: 0 executed: 0 num_reg_dependent: 0 num_mem_ops: 0 event: 5470303
[cpu0_DECODE] entry:  14 instr_id: 30410506 fetched: 2 scheduled: 0 executed: 0 num_reg_dependent: 0 num_mem_ops: 0 event: 5470303
[cpu0_DECODE] entry:  15 instr_id: 30410507 fetched: 2 scheduled: 0 executed: 0 num_reg_dependent: 0 num_mem_ops: 0 event: 5470303
[cpu0_DECODE] entry:  16 instr_id: 30410508 fetched: 2 scheduled: 0 executed: 0 num_reg_dependent: 0 num_mem_ops: 1 event: 5470303
[cpu0_DECODE] entry:  17 instr_id: 30410509 fetched: 2 scheduled: 0 executed: 0 num_reg_dependent: 0 num_mem_ops: 0 event: 5470304
[cpu0_DECODE] entry:  18 instr_id: 30410510 fetched: 2 scheduled: 0 executed: 0 num_reg_dependent: 0 num_mem_ops: 0 event: 5470304
[cpu0_DECODE] entry:  19 instr_id: 30410511 fetched: 2 scheduled: 0 executed: 0 num_reg_dependent: 0 num_mem_ops: 0 event: 5470304
[cpu0_DECODE] entry:  20 instr_id: 30410512 fetched: 2 scheduled: 0 executed: 0 num_reg_dependent: 0 num_mem_ops: 1 event: 5470304
[cpu0_DECODE] entry:  21 instr_id: 30410513 fetched: 2 scheduled: 0 executed: 0 num_reg_dependent: 0 num_mem_ops: 0 event: 5470304
[cpu0_DECODE] entry:  22 instr_id: 30410514 fetched: 2 scheduled: 0 executed: 0 num_reg_dependent: 0 num_mem_ops: 0 event: 5470304
[cpu0_DECODE] entry:  23 instr_id: 30410515 fetched: 2 scheduled: 0 executed: 0 num_reg_dependent: 0 num_mem_ops: 0 event: 5470305
[cpu0_DECODE] entry:  24 instr_id: 30410516 fetched: 2 scheduled: 0 executed: 0 num_reg_dependent: 0 num_mem_ops: 0 event: 5470305
[cpu0_DECODE] entry:  25 instr_id: 30410517 fetched: 2 scheduled: 0 executed: 0 num_reg_dependent: 0 num_mem_ops: 0 event: 5470305
[cpu0_DECODE] entry:  26 instr_id: 30410518 fetched: 2 scheduled: 0 executed: 0 num_reg_dependent: 0 num_mem_ops: 0 event: 5470305
[cpu0_DECODE] entry:  27 instr_id: 30410519 fetched: 2 scheduled: 0 executed: 0 num_reg_dependent: 0 num_mem_ops: 0 event: 5470305
[cpu0_DECODE] entry:  28 instr_id: 30410520 fetched: 2 scheduled: 0 executed: 0 num_reg_dependent: 0 num_mem_ops: 0 event: 5470305
[cpu0_DECODE] entry:  29 instr_id: 30410521 fetched: 2 scheduled: 0 executed: 0 num_reg_dependent: 0 num_mem_ops: 0 event: 5470306
[cpu0_DECODE] entry:  30 instr_id: 30410522 fetched: 2 scheduled: 0 executed: 0 num_reg_dependent: 0 num_mem_ops: 1 event: 5470306
[cpu0_DECODE] entry:  31 instr_id: 30410523 fetched: 2 scheduled: 0 executed: 0 num_reg_dependent: 0 num_mem_ops: 0 event: 5470306
[cpu0_DECODE] entry:  32 instr_id: 30410524 fetched: 2 scheduled: 0 executed: 0 num_reg_dependent: 0 num_mem_ops: 0 event: 5470306
[cpu0_DECODE] entry:  33 instr_id: 30410525 fetched: 2 scheduled: 0 executed: 0 num_reg_dependent: 0 num_mem_ops: 1 event: 5470306
[cpu0_DECODE] entry:  34 instr_id: 30410526 fetched: 2 scheduled: 0 executed: 0 num_reg_dependent: 0 num_mem_ops: 0 event: 5470306
[cpu0_DECODE] entry:  35 instr_id: 30410527 fetched: 2 scheduled: 0 executed: 0 num_reg_dependent: 0 num_mem_ops: 0 event: 5470307
[cpu0_DECODE] entry:  36 instr_id: 30410528 fetched: 2 scheduled: 0 executed: 0 num_reg_dependent: 0 num_mem_ops: 0 event: 5470307
[cpu0_DECODE] entry:  37 instr_id: 30410529 fetched: 2 scheduled: 0 executed: 0 num_reg_dependent: 0 num_mem_ops: 1 event: 5470307
[cpu0_DECODE] entry:  38 instr_id: 30410530 fetched: 2 scheduled: 0 executed: 0 num_reg_dependent: 0 num_mem_ops: 0 event: 5470307
[cpu0_DECODE] entry:  39 instr_id: 30410531 fetched: 2 scheduled: 0 executed: 0 num_reg_dependent: 0 num_mem_ops: 1 event: 5470307
[cpu0_DECODE] entry:  40 instr_id: 30410532 fetched: 2 scheduled: 0 executed: 0 num_reg_dependent: 0 num_mem_ops: 1 event: 5470307
[cpu0_DECODE] entry:  41 instr_id: 30410533 fetched: 2 scheduled: 0 executed: 0 num_reg_dependent: 0 num_mem_ops: 0 event: 5470308
[cpu0_DECODE] entry:  42 instr_id: 30410534 fetched: 2 scheduled: 0 executed: 0 num_reg_dependent: 0 num_mem_ops: 1 event: 5470308
[cpu0_DECODE] entry:  43 instr_id: 30410535 fetched: 2 scheduled: 0 executed: 0 num_reg_dependent: 0 num_mem_ops: 1 event: 5470308
[cpu0_DECODE] entry:  44 instr_id: 30410536 fetched: 2 scheduled: 0 executed: 0 num_reg_dependent: 0 num_mem_ops: 0 event: 5470308
[cpu0_DECODE] entry:  45 instr_id: 30410537 fetched: 2 scheduled: 0 executed: 0 num_reg_dependent: 0 num_mem_ops: 1 event: 5470308
[cpu0_DECODE] entry:  46 instr_id: 30410538 fetched: 2 scheduled: 0 executed: 0 num_reg_dependent: 0 num_mem_ops: 0 event: 5470308
[cpu0_DECODE] entry:  47 instr_id: 30410539 fetched: 2 scheduled: 0 executed: 0 num_reg_dependent: 0 num_mem_ops: 1 event: 5470309
[cpu0_DECODE] entry:  48 instr_id: 30410540 fetched: 2 scheduled: 0 executed: 0 num_reg_dependent: 0 num_mem_ops: 0 event: 5470309
[cpu0_DECODE] entry:  49 instr_id: 30410541 fetched: 2 scheduled: 0 executed: 0 num_reg_dependent: 0 num_mem_ops: 0 event: 5470309
[cpu0_DECODE] entry:  50 instr_id: 30410542 fetched: 2 scheduled: 0 executed: 0 num_reg_dependent: 0 num_mem_ops: 0 event: 5470309
[cpu0_DECODE] entry:  51 instr_id: 30410543 fetched: 2 scheduled: 0 executed: 0 num_reg_dependent: 0 num_mem_ops: 0 event: 5470309
[cpu0_DECODE] entry:  52 instr_id: 30410544 fetched: 2 scheduled: 0 executed: 0 num_reg_dependent: 0 num_mem_ops: 0 event: 5470309
[cpu0_DECODE] entry:  53 instr_id: 30410545 fetched: 2 scheduled: 0 executed: 0 num_reg_dependent: 0 num_mem_ops: 0 event: 5470310
[cpu0_DECODE] entry:  54 instr_id: 30410546 fetched: 2 scheduled: 0 executed: 0 num_reg_dependent: 0 num_mem_ops: 0 event: 5470310
[cpu0_DECODE] entry:  55 instr_id: 30410547 fetched: 2 scheduled: 0 executed: 0 num_reg_dependent: 0 num_mem_ops: 0 event: 5470310
[cpu0_DECODE] entry:  56 instr_id: 30410548 fetched: 2 scheduled: 0 executed: 0 num_reg_dependent: 0 num_mem_ops: 0 event: 5470310
[cpu0_DECODE] entry:  57 instr_id: 30410549 fetched: 2 scheduled: 0 executed: 0 num_reg_dependent: 0 num_mem_ops: 1 event: 5470310
[cpu0_DECODE] entry:  58 instr_id: 30410550 fetched: 2 scheduled: 0 executed: 0 num_reg_dependent: 0 num_mem_ops: 0 event: 5470310
[cpu0_DECODE] entry:  59 instr_id: 30410551 fetched: 2 scheduled: 0 executed: 0 num_reg_dependent: 0 num_mem_ops: 0 event: 5470311
[cpu0_DECODE] entry:  60 instr_id: 30410552 fetched: 2 scheduled: 0 executed: 0 num_reg_dependent: 0 num_mem_ops: 0 event: 5470311
[cpu0_DECODE] entry:  61 instr_id: 30410553 fetched: 2 scheduled: 0 executed: 0 num_reg_dependent: 0 num_mem_ops: 1 event: 5470311
[cpu0_DECODE] entry:  62 instr_id: 30410554 fetched: 2 scheduled: 0 executed: 0 num_reg_dependent: 0 num_mem_ops: 0 event: 5470311
[cpu0_DECODE] entry:  63 instr_id: 30410555 fetched: 2 scheduled: 0 executed: 0 num_reg_dependent: 0 num_mem_ops: 0 event: 5470311
[cpu0_DECODE] entry:  64 instr_id: 30410556 fetched: 2 scheduled: 0 executed: 0 num_reg_dependent: 0 num_mem_ops: 0 event: 5470311
[cpu0_DECODE] entry:  65 instr_id: 30410557 fetched: 2 scheduled: 0 executed: 0 num_reg_dependent: 0 num_mem_ops: 0 event: 5470312
[cpu0_DECODE] entry:  66 instr_id: 30410558 fetched: 2 scheduled: 0 executed: 0 num_reg_dependent: 0 num_mem_ops: 0 event: 5470312
[cpu0_DECODE] entry:  67 instr_id: 30410559 fetched: 2 scheduled: 0 executed: 0 num_reg_dependent: 0 num_mem_ops: 0 event: 5470312
[cpu0_DECODE] entry:  68 instr_id: 30410560 fetched: 2 scheduled: 0 executed: 0 num_reg_dependent: 0 num_mem_ops: 0 event: 5470312
[cpu0_DECODE] entry:  69 instr_id: 30410561 fetched: 2 scheduled: 0 executed: 0 num_reg_dependent: 0 num_mem_ops: 0 event: 5470312
[cpu0_DECODE] entry:  70 instr_id: 30410562 fetched: 2 scheduled: 0 executed: 0 num_reg_dependent: 0 num_mem_ops: 0 event: 5470312
[cpu0_DECODE] entry:  71 instr_id: 30410563 fetched: 2 scheduled: 0 executed: 0 num_reg_dependent: 0 num_mem_ops: 1 event: 5470313
[cpu0_DECODE] entry:  72 instr_id: 30410564 fetched: 2 scheduled: 0 executed: 0 num_reg_dependent: 0 num_mem_ops: 0 event: 5470313
[cpu0_DECODE] entry:  73 instr_id: 30410565 fetched: 2 scheduled: 0 executed: 0 num_reg_dependent: 0 num_mem_ops: 0 event: 5470313
[cpu0_DECODE] entry:  74 instr_id: 30410566 fetched: 2 scheduled: 0 executed: 0 num_reg_dependent: 0 num_mem_ops: 1 event: 5470313
[cpu0_DECODE] entry:  75 instr_id: 30410567 fetched: 2 scheduled: 0 executed: 0 num_reg_dependent: 0 num_mem_ops: 0 event: 5470313
[cpu0_DECODE] entry:  76 instr_id: 30410568 fetched: 2 scheduled: 0 executed: 0 num_reg_dependent: 0 num_mem_ops: 0 event: 5470313
[cpu0_DECODE] entry:  77 instr_id: 30410569 fetched: 2 scheduled: 0 executed: 0 num_reg_dependent: 0 num_mem_ops: 0 event: 5470314
[cpu0_DECODE] entry:  78 instr_id: 30410570 fetched: 2 scheduled: 0 executed: 0 num_reg_dependent: 0 num_mem_ops: 1 event: 5470314
[cpu0_DECODE] entry:  79 instr_id: 30410571 fetched: 2 scheduled: 0 executed: 0 num_reg_dependent: 0 num_mem_ops: 0 event: 5470314
[cpu0_DECODE] entry:  80 instr_id: 30410572 fetched: 2 scheduled: 0 executed: 0 num_reg_dependent: 0 num_mem_ops: 1 event: 5470314
[cpu0_DECODE] entry:  81 instr_id: 30410573 fetched: 2 scheduled: 0 executed: 0 num_reg_dependent: 0 num_mem_ops: 1 event: 5470314
[cpu0_DECODE] entry:  82 instr_id: 30410574 fetched: 2 scheduled: 0 executed: 0 num_reg_dependent: 0 num_mem_ops: 0 event: 5470314
[cpu0_DECODE] entry:  83 instr_id: 30410575 fetched: 2 scheduled: 0 executed: 0 num_reg_dependent: 0 num_mem_ops: 1 event: 5470315
[cpu0_DECODE] entry:  84 instr_id: 30410576 fetched: 2 scheduled: 0 executed: 0 num_reg_dependent: 0 num_mem_ops: 1 event: 5470315
[cpu0_DECODE] entry:  85 instr_id: 30410577 fetched: 2 scheduled: 0 executed: 0 num_reg_dependent: 0 num_mem_ops: 0 event: 5470315
[cpu0_DECODE] entry:  86 instr_id: 30410578 fetched: 2 scheduled: 0 executed: 0 num_reg_dependent: 0 num_mem_ops: 1 event: 5470315
[cpu0_DECODE] entry:  87 instr_id: 30410579 fetched: 2 scheduled: 0 executed: 0 num_reg_dependent: 0 num_mem_ops: 0 event: 5470315
[cpu0_DECODE] entry:  88 instr_id: 30410580 fetched: 2 scheduled: 0 executed: 0 num_reg_dependent: 0 num_mem_ops: 1 event: 5470315
[cpu0_DECODE] entry:  89 instr_id: 30410581 fetched: 2 scheduled: 0 executed: 0 num_reg_dependent: 0 num_mem_ops: 0 event: 5470316
[cpu0_DECODE] entry:  90 instr_id: 30410582 fetched: 2 scheduled: 0 executed: 0 num_reg_dependent: 0 num_mem_ops: 0 event: 5470316
[cpu0_DECODE] entry:  91 instr_id: 30410583 fetched: 2 scheduled: 0 executed: 0 num_reg_dependent: 0 num_mem_ops: 0 event: 5470316
[cpu0_DECODE] entry:  92 instr_id: 30410584 fetched: 2 scheduled: 0 executed: 0 num_reg_dependent: 0 num_mem_ops: 0 event: 5470316
[cpu0_DECODE] entry:  93 instr_id: 30410585 fetched: 2 scheduled: 0 executed: 0 num_reg_dependent: 0 num_mem_ops: 0 event: 5470316
[cpu0_DECODE] entry:  94 instr_id: 30410586 fetched: 2 scheduled: 0 executed: 0 num_reg_dependent: 0 num_mem_ops: 0 event: 5470316
[cpu0_DECODE] entry:  95 instr_id: 30410587 fetched: 2 scheduled: 0 executed: 0 num_reg_dependent: 0 num_mem_ops: 0 event: 5470317
[cpu0_DECODE] entry:  96 instr_id: 30410588 fetched: 2 scheduled: 0 executed: 0 num_reg_dependent: 0 num_mem_ops: 0 event: 5470317
[cpu0_DECODE] entry:  97 instr_id: 30410589 fetched: 2 scheduled: 0 executed: 0 num_reg_dependent: 0 num_mem_ops: 0 event: 5470317
[cpu0_DECODE] entry:  98 instr_id: 30410590 fetched: 2 scheduled: 0 executed: 0 num_reg_dependent: 0 num_mem_ops: 1 event: 5470317
[cpu0_DECODE] entry:  99 instr_id: 30410591 fetched: 2 scheduled: 0 executed: 0 num_reg_dependent: 0 num_mem_ops: 0 event: 5470317
[cpu0_DECODE] entry: 100 instr_id: 30410592 fetched: 2 scheduled: 0 executed: 0 num_reg_dependent: 0 num_mem_ops: 0 event: 5470317
[cpu0_DECODE] entry: 101 instr_id: 30410593 fetched: 2 scheduled: 0 executed: 0 num_reg_dependent: 0 num_mem_ops: 0 event: 5470318
[cpu0_DECODE] entry: 102 instr_id: 30410594 fetched: 2 scheduled: 0 executed: 0 num_reg_dependent: 0 num_mem_ops: 1 event: 5470318
[cpu0_DECODE] entry: 103 instr_id: 30410595 fetched: 2 scheduled: 0 executed: 0 num_reg_dependent: 0 num_mem_ops: 0 event: 5470318
[cpu0_DECODE] entry: 104 instr_id: 30410596 fetched: 2 scheduled: 0 executed: 0 num_reg_dependent: 0 num_mem_ops: 0 event: 5470318
[cpu0_DECODE] entry: 105 instr_id: 30410597 fetched: 2 scheduled: 0 executed: 0 num_reg_dependent: 0 num_mem_ops: 0 event: 5470318
[cpu0_DECODE] entry: 106 instr_id: 30410598 fetched: 2 scheduled: 0 executed: 0 num_reg_dependent: 0 num_mem_ops: 0 event: 5470318
[cpu0_DECODE] entry: 107 instr_id: 30410599 fetched: 2 scheduled: 0 executed: 0 num_reg_dependent: 0 num_mem_ops: 0 event: 5470319
[cpu0_DECODE] entry: 108 instr_id: 30410600 fetched: 2 scheduled: 0 executed: 0 num_reg_dependent: 0 num_mem_ops: 0 event: 5470319
[cpu0_DECODE] entry: 109 instr_id: 30410601 fetched: 2 scheduled: 0 executed: 0 num_reg_dependent: 0 num_mem_ops: 0 event: 5470319
[cpu0_DECODE] entry: 110 instr_id: 30410602 fetched: 2 scheduled: 0 executed: 0 num_reg_dependent: 0 num_mem_ops: 0 event: 5470319
[cpu0_DECODE] entry: 111 instr_id: 30410603 fetched: 2 scheduled: 0 executed: 0 num_reg_dependent: 0 num_mem_ops: 0 event: 5470319
[cpu0_DECODE] entry: 112 instr_id: 30410604 fetched: 2 scheduled: 0 executed: 0 num_reg_dependent: 0 num_mem_ops: 1 event: 5470319
[cpu0_DECODE] entry: 113 instr_id: 30410605 fetched: 2 scheduled: 0 executed: 0 num_reg_dependent: 0 num_mem_ops: 0 event: 5470320
[cpu0_DECODE] entry: 114 instr_id: 30410606 fetched: 2 scheduled: 0 executed: 0 num_reg_dependent: 0 num_mem_ops: 0 event: 5470320
[cpu0_DECODE] entry: 115 instr_id: 30410607 fetched: 2 scheduled: 0 executed: 0 num_reg_dependent: 0 num_mem_ops: 1 event: 5470320
[cpu0_DECODE] entry: 116 instr_id: 30410608 fetched: 2 scheduled: 0 executed: 0 num_reg_dependent: 0 num_mem_ops: 0 event: 5470320
[cpu0_DECODE] entry: 117 instr_id: 30410609 fetched: 2 scheduled: 0 executed: 0 num_reg_dependent: 0 num_mem_ops: 0 event: 5470320
[cpu0_DECODE] entry: 118 instr_id: 30410610 fetched: 2 scheduled: 0 executed: 0 num_reg_dependent: 0 num_mem_ops: 0 event: 5470320
[cpu0_DECODE] entry: 119 instr_id: 30410611 fetched: 2 scheduled: 0 executed: 0 num_reg_dependent: 0 num_mem_ops: 1 event: 5470321
[cpu0_DECODE] entry: 120 instr_id: 30410612 fetched: 2 scheduled: 0 executed: 0 num_reg_dependent: 0 num_mem_ops: 0 event: 5470367
[cpu0_DECODE] entry: 121 instr_id: 30410613 fetched: 2 scheduled: 0 executed: 0 num_reg_dependent: 0 num_mem_ops: 1 event: 5470367
[cpu0_DECODE] entry: 122 instr_id: 30410614 fetched: 2 scheduled: 0 executed: 0 num_reg_dependent: 0 num_mem_ops: 1 event: 5470367
[cpu0_DECODE] entry: 123 instr_id: 30410615 fetched: 2 scheduled: 0 executed: 0 num_reg_dependent: 0 num_mem_ops: 0 event: 5470367
[cpu0_DECODE] entry: 124 instr_id: 30410616 fetched: 2 scheduled: 0 executed: 0 num_reg_dependent: 0 num_mem_ops: 1 event: 5470367
[cpu0_DECODE] entry: 125 instr_id: 30410617 fetched: 2 scheduled: 0 executed: 0 num_reg_dependent: 0 num_mem_ops: 1 event: 5470367
[cpu0_DECODE] entry: 126 instr_id: 30410618 fetched: 2 scheduled: 0 executed: 0 num_reg_dependent: 0 num_mem_ops: 0 event: 5470368
[cpu0_DECODE] entry: 127 instr_id: 30410619 fetched: 2 scheduled: 0 executed: 0 num_reg_dependent: 0 num_mem_ops: 1 event: 5470368
[cpu0_DECODE] entry: 128 instr_id: 30410620 fetched: 2 scheduled: 0 executed: 0 num_reg_dependent: 0 num_mem_ops: 0 event: 5470368
[cpu0_DECODE] entry: 129 instr_id: 30410621 fetched: 2 scheduled: 0 executed: 0 num_reg_dependent: 0 num_mem_ops: 1 event: 5470368
[cpu0_DECODE] entry: 130 instr_id: 30410622 fetched: 2 scheduled: 0 executed: 0 num_reg_dependent: 0 num_mem_ops: 0 event: 5470392
[cpu0_DECODE] entry: 131 instr_id: 30410623 fetched: 2 scheduled: 0 executed: 0 num_reg_dependent: 0 num_mem_ops: 0 event: 5470392
[cpu0_DECODE] entry: 132 instr_id: 30410624 fetched: 2 scheduled: 0 executed: 0 num_reg_dependent: 0 num_mem_ops: 0 event: 5470392
[cpu0_DECODE] entry: 133 instr_id: 30410625 fetched: 2 scheduled: 0 executed: 0 num_reg_dependent: 0 num_mem_ops: 0 event: 5470392
[cpu0_DECODE] entry: 134 instr_id: 30410626 fetched: 2 scheduled: 0 executed: 0 num_reg_dependent: 0 num_mem_ops: 0 event: 5470392
[cpu0_DECODE] entry: 135 instr_id: 30410627 fetched: 2 scheduled: 0 executed: 0 num_reg_dependent: 0 num_mem_ops: 0 event: 5470393
[cpu0_DECODE] entry: 136 instr_id: 30410628 fetched: 2 scheduled: 0 executed: 0 num_reg_dependent: 0 num_mem_ops: 0 event: 5470393
[cpu0_DECODE] entry: 137 instr_id: 30410629 fetched: 2 scheduled: 0 executed: 0 num_reg_dependent: 0 num_mem_ops: 0 event: 5470393
[cpu0_DECODE] entry: 138 instr_id: 30410630 fetched: 2 scheduled: 0 executed: 0 num_reg_dependent: 0 num_mem_ops: 0 event: 5470393
[cpu0_DECODE] entry: 139 instr_id: 30410631 fetched: 2 scheduled: 0 executed: 0 num_reg_dependent: 0 num_mem_ops: 1 event: 5470394
[cpu0_DECODE] entry: 140 instr_id: 30410632 fetched: 2 scheduled: 0 executed: 0 num_reg_dependent: 0 num_mem_ops: 0 event: 5470394
[cpu0_DECODE] entry: 141 instr_id: 30410633 fetched: 2 scheduled: 0 executed: 0 num_reg_dependent: 0 num_mem_ops: 0 event: 5470394
[cpu0_DECODE] entry: 142 instr_id: 30410634 fetched: 2 scheduled: 0 executed: 0 num_reg_dependent: 0 num_mem_ops: 0 event: 5470394
[cpu0_DECODE] entry: 143 instr_id: 30410635 fetched: 2 scheduled: 0 executed: 0 num_reg_dependent: 0 num_mem_ops: 1 event: 5470394

[cpu0_DISPATCH] entry:   0 instr_id: 30410460 fetched: 2 scheduled: 0 executed: 0 num_reg_dependent: 0 num_mem_ops: 0 event: 5470320
[cpu0_DISPATCH] entry:   1 instr_id: 30410461 fetched: 2 scheduled: 0 executed: 0 num_reg_dependent: 0 num_mem_ops: 0 event: 5470321
[cpu0_DISPATCH] entry:   2 instr_id: 30410462 fetched: 2 scheduled: 0 executed: 0 num_reg_dependent: 0 num_mem_ops: 0 event: 5470321
[cpu0_DISPATCH] entry:   3 instr_id: 30410463 fetched: 2 scheduled: 0 executed: 0 num_reg_dependent: 0 num_mem_ops: 0 event: 5470321
[cpu0_DISPATCH] entry:   4 instr_id: 30410464 fetched: 2 scheduled: 0 executed: 0 num_reg_dependent: 0 num_mem_ops: 0 event: 5470321
[cpu0_DISPATCH] entry:   5 instr_id: 30410465 fetched: 2 scheduled: 0 executed: 0 num_reg_dependent: 0 num_mem_ops: 0 event: 5470321
[cpu0_DISPATCH] entry:   6 instr_id: 30410466 fetched: 2 scheduled: 0 executed: 0 num_reg_dependent: 0 num_mem_ops: 0 event: 5470321
[cpu0_DISPATCH] entry:   7 instr_id: 30410467 fetched: 2 scheduled: 0 executed: 0 num_reg_dependent: 0 num_mem_ops: 1 event: 5470322
[cpu0_DISPATCH] entry:   8 instr_id: 30410468 fetched: 2 scheduled: 0 executed: 0 num_reg_dependent: 0 num_mem_ops: 0 event: 5470368
[cpu0_DISPATCH] entry:   9 instr_id: 30410469 fetched: 2 scheduled: 0 executed: 0 num_reg_dependent: 0 num_mem_ops: 0 event: 5470368
[cpu0_DISPATCH] entry:  10 instr_id: 30410470 fetched: 2 scheduled: 0 executed: 0 num_reg_dependent: 0 num_mem_ops: 0 event: 5470368
[cpu0_DISPATCH] entry:  11 instr_id: 30410471 fetched: 2 scheduled: 0 executed: 0 num_reg_dependent: 0 num_mem_ops: 1 event: 5470368
[cpu0_DISPATCH] entry:  12 instr_id: 30410472 fetched: 2 scheduled: 0 executed: 0 num_reg_dependent: 0 num_mem_ops: 0 event: 5470368
[cpu0_DISPATCH] entry:  13 instr_id: 30410473 fetched: 2 scheduled: 0 executed: 0 num_reg_dependent: 0 num_mem_ops: 0 event: 5470368
[cpu0_DISPATCH] entry:  14 instr_id: 30410474 fetched: 2 scheduled: 0 executed: 0 num_reg_dependent: 0 num_mem_ops: 0 event: 5470369
[cpu0_DISPATCH] entry:  15 instr_id: 30410475 fetched: 2 scheduled: 0 executed: 0 num_reg_dependent: 0 num_mem_ops: 0 event: 5470369
[cpu0_DISPATCH] entry:  16 instr_id: 30410476 fetched: 2 scheduled: 0 executed: 0 num_reg_dependent: 0 num_mem_ops: 0 event: 5470369
[cpu0_DISPATCH] entry:  17 instr_id: 30410477 fetched: 2 scheduled: 0 executed: 0 num_reg_dependent: 0 num_mem_ops: 0 event: 5470369
[cpu0_DISPATCH] entry:  18 instr_id: 30410478 fetched: 2 scheduled: 0 executed: 0 num_reg_dependent: 0 num_mem_ops: 0 event: 5470393
[cpu0_DISPATCH] entry:  19 instr_id: 30410479 fetched: 2 scheduled: 0 executed: 0 num_reg_dependent: 0 num_mem_ops: 0 event: 5470393
[cpu0_DISPATCH] entry:  20 instr_id: 30410480 fetched: 2 scheduled: 0 executed: 0 num_reg_dependent: 0 num_mem_ops: 0 event: 5470393
[cpu0_DISPATCH] entry:  21 instr_id: 30410481 fetched: 2 scheduled: 0 executed: 0 num_reg_dependent: 0 num_mem_ops: 1 event: 5470393
[cpu0_DISPATCH] entry:  22 instr_id: 30410482 fetched: 2 scheduled: 0 executed: 0 num_reg_dependent: 0 num_mem_ops: 0 event: 5470393
[cpu0_DISPATCH] entry:  23 instr_id: 30410483 fetched: 2 scheduled: 0 executed: 0 num_reg_dependent: 0 num_mem_ops: 0 event: 5470394
[cpu0_DISPATCH] entry:  24 instr_id: 30410484 fetched: 2 scheduled: 0 executed: 0 num_reg_dependent: 0 num_mem_ops: 1 event: 5470394
[cpu0_DISPATCH] entry:  25 instr_id: 30410485 fetched: 2 scheduled: 0 executed: 0 num_reg_dependent: 0 num_mem_ops: 0 event: 5470394
[cpu0_DISPATCH] entry:  26 instr_id: 30410486 fetched: 2 scheduled: 0 executed: 0 num_reg_dependent: 0 num_mem_ops: 0 event: 5470394
[cpu0_DISPATCH] entry:  27 instr_id: 30410487 fetched: 2 scheduled: 0 executed: 0 num_reg_dependent: 0 num_mem_ops: 0 event: 5470395
[cpu0_DISPATCH] entry:  28 instr_id: 30410488 fetched: 2 scheduled: 0 executed: 0 num_reg_dependent: 0 num_mem_ops: 1 event: 5470395
[cpu0_DISPATCH] entry:  29 instr_id: 30410489 fetched: 2 scheduled: 0 executed: 0 num_reg_dependent: 0 num_mem_ops: 0 event: 5470395
[cpu0_DISPATCH] entry:  30 instr_id: 30410490 fetched: 2 scheduled: 0 executed: 0 num_reg_dependent: 0 num_mem_ops: 1 event: 5470395
[cpu0_DISPATCH] entry:  31 instr_id: 30410491 fetched: 2 scheduled: 0 executed: 0 num_reg_dependent: 0 num_mem_ops: 1 event: 5470395

[cpu0_ROB] entry:   0 instr_id: 30409948 fetched: 2 scheduled: 2 executed: 1 num_reg_dependent: 0 num_mem_ops: 1 event: 5470264
[cpu0_ROB] entry:   1 instr_id: 30409949 fetched: 2 scheduled: 2 executed: 0 num_reg_dependent: 1 num_mem_ops: 0 event: 5470262
[cpu0_ROB] entry:   2 instr_id: 30409950 fetched: 2 scheduled: 2 executed: 2 num_reg_dependent: 0 num_mem_ops: 0 event: 5470263
[cpu0_ROB] entry:   3 instr_id: 30409951 fetched: 2 scheduled: 2 executed: 0 num_reg_dependent: 1 num_mem_ops: 0 event: 5470262
[cpu0_ROB] entry:   4 instr_id: 30409952 fetched: 2 scheduled: 2 executed: 2 num_reg_dependent: 0 num_mem_ops: 0 event: 5470264
[cpu0_ROB] entry:   5 instr_id: 30409953 fetched: 2 scheduled: 2 executed: 2 num_reg_dependent: 0 num_mem_ops: 0 event: 5470268
[cpu0_ROB] entry:   6 instr_id: 30409954 fetched: 2 scheduled: 2 executed: 2 num_reg_dependent: 0 num_mem_ops: 0 event: 5470264
[cpu0_ROB] entry:   7 instr_id: 30409955 fetched: 2 scheduled: 2 executed: 1 num_reg_dependent: 0 num_mem_ops: 1 event: 5470266
[cpu0_ROB] entry:   8 instr_id: 30409956 fetched: 2 scheduled: 2 executed: 0 num_reg_dependent: 1 num_mem_ops: 0 event: 5470263
[cpu0_ROB] entry:   9 instr_id: 30409957 fetched: 2 scheduled: 2 executed: 0 num_reg_dependent: 1 num_mem_ops: 0 event: 5470263
[cpu0_ROB] entry:  10 instr_id: 30409958 fetched: 2 scheduled: 2 executed: 1 num_reg_dependent: 0 num_mem_ops: 1 event: 5470264
[cpu0_ROB] entry:  11 instr_id: 30409959 fetched: 2 scheduled: 2 executed: 0 num_reg_dependent: 1 num_mem_ops: 0 event: 5470264
[cpu0_ROB] entry:  12 instr_id: 30409960 fetched: 2 scheduled: 2 executed: 0 num_reg_dependent: 1 num_mem_ops: 0 event: 5470264
[cpu0_ROB] entry:  13 instr_id: 30409961 fetched: 2 scheduled: 2 executed: 1 num_reg_dependent: 0 num_mem_ops: 1 event: 5470266
[cpu0_ROB] entry:  14 instr_id: 30409962 fetched: 2 scheduled: 2 executed: 0 num_reg_dependent: 1 num_mem_ops: 0 event: 5470264
[cpu0_ROB] entry:  15 instr_id: 30409963 fetched: 2 scheduled: 2 executed: 0 num_reg_dependent: 1 num_mem_ops: 0 event: 5470265
[cpu0_ROB] entry:  16 instr_id: 30409964 fetched: 2 scheduled: 2 executed: 2 num_reg_dependent: 0 num_mem_ops: 0 event: 5470266
[cpu0_ROB] entry:  17 instr_id: 30409965 fetched: 2 scheduled: 2 executed: 2 num_reg_dependent: 0 num_mem_ops: 0 event: 5470267
[cpu0_ROB] entry:  18 instr_id: 30409966 fetched: 2 scheduled: 2 executed: 2 num_reg_dependent: 0 num_mem_ops: 0 event: 5470267
[cpu0_ROB] entry:  19 instr_id: 30409967 fetched: 2 scheduled: 2 executed: 2 num_reg_dependent: 0 num_mem_ops: 0 event: 5470269
[cpu0_ROB] entry:  20 instr_id: 30409968 fetched: 2 scheduled: 2 executed: 2 num_reg_dependent: 0 num_mem_ops: 0 event: 5470267
[cpu0_ROB] entry:  21 instr_id: 30409969 fetched: 2 scheduled: 2 executed: 2 num_reg_dependent: 0 num_mem_ops: 0 event: 5470268
[cpu0_ROB] entry:  22 instr_id: 30409970 fetched: 2 scheduled: 2 executed: 2 num_reg_dependent: 0 num_mem_ops: 0 event: 5470269
[cpu0_ROB] entry:  23 instr_id: 30409971 fetched: 2 scheduled: 2 executed: 2 num_reg_dependent: 0 num_mem_ops: 0 event: 5470270
[cpu0_ROB] entry:  24 instr_id: 30409972 fetched: 2 scheduled: 2 executed: 2 num_reg_dependent: 0 num_mem_ops: 0 event: 5470271
[cpu0_ROB] entry:  25 instr_id: 30409973 fetched: 2 scheduled: 2 executed: 2 num_reg_dependent: 0 num_mem_ops: 0 event: 5470270
[cpu0_ROB] entry:  26 instr_id: 30409974 fetched: 2 scheduled: 2 executed: 2 num_reg_dependent: 0 num_mem_ops: 0 event: 5470270
[cpu0_ROB] entry:  27 instr_id: 30409975 fetched: 2 scheduled: 2 executed: 2 num_reg_dependent: 0 num_mem_ops: 0 event: 5470271
[cpu0_ROB] entry:  28 instr_id: 30409976 fetched: 2 scheduled: 2 executed: 2 num_reg_dependent: 0 num_mem_ops: 0 event: 5470271
[cpu0_ROB] entry:  29 instr_id: 30409977 fetched: 2 scheduled: 2 executed: 2 num_reg_dependent: 0 num_mem_ops: 0 event: 5470272
[cpu0_ROB] entry:  30 instr_id: 30409978 fetched: 2 scheduled: 2 executed: 2 num_reg_dependent: 0 num_mem_ops: 0 event: 5470270
[cpu0_ROB] entry:  31 instr_id: 30409979 fetched: 2 scheduled: 2 executed: 2 num_reg_dependent: 0 num_mem_ops: 0 event: 5470271
[cpu0_ROB] entry:  32 instr_id: 30409980 fetched: 2 scheduled: 2 executed: 2 num_reg_dependent: 0 num_mem_ops: 0 event: 5470413
[cpu0_ROB] entry:  33 instr_id: 30409981 fetched: 2 scheduled: 2 executed: 2 num_reg_dependent: 0 num_mem_ops: 0 event: 5470413
[cpu0_ROB] entry:  34 instr_id: 30409982 fetched: 2 scheduled: 2 executed: 2 num_reg_dependent: 0 num_mem_ops: 0 event: 5470413
[cpu0_ROB] entry:  35 instr_id: 30409983 fetched: 2 scheduled: 2 executed: 2 num_reg_dependent: 0 num_mem_ops: 0 event: 5470413
[cpu0_ROB] entry:  36 instr_id: 30409984 fetched: 2 scheduled: 2 executed: 2 num_reg_dependent: 0 num_mem_ops: 0 event: 5470414
[cpu0_ROB] entry:  37 instr_id: 30409985 fetched: 2 scheduled: 2 executed: 2 num_reg_dependent: 0 num_mem_ops: 0 event: 5470414
[cpu0_ROB] entry:  38 instr_id: 30409986 fetched: 2 scheduled: 2 executed: 2 num_reg_dependent: 0 num_mem_ops: 0 event: 5470269
[cpu0_ROB] entry:  39 instr_id: 30409987 fetched: 2 scheduled: 2 executed: 2 num_reg_dependent: 0 num_mem_ops: 0 event: 5470273
[cpu0_ROB] entry:  40 instr_id: 30409988 fetched: 2 scheduled: 2 executed: 2 num_reg_dependent: 0 num_mem_ops: 0 event: 5470269
[cpu0_ROB] entry:  41 instr_id: 30409989 fetched: 2 scheduled: 2 executed: 2 num_reg_dependent: 0 num_mem_ops: 0 event: 5470270
[cpu0_ROB] entry:  42 instr_id: 30409990 fetched: 2 scheduled: 2 executed: 2 num_reg_dependent: 0 num_mem_ops: 0 event: 5470415
[cpu0_ROB] entry:  43 instr_id: 30409991 fetched: 2 scheduled: 2 executed: 2 num_reg_dependent: 0 num_mem_ops: 0 event: 5470269
[cpu0_ROB] entry:  44 instr_id: 30409992 fetched: 2 scheduled: 2 executed: 2 num_reg_dependent: 0 num_mem_ops: 0 event: 5470416
[cpu0_ROB] entry:  45 instr_id: 30409993 fetched: 2 scheduled: 2 executed: 2 num_reg_dependent: 0 num_mem_ops: 0 event: 5470270
[cpu0_ROB] entry:  46 instr_id: 30409994 fetched: 2 scheduled: 2 executed: 2 num_reg_dependent: 0 num_mem_ops: 0 event: 5470274
[cpu0_ROB] entry:  47 instr_id: 30409995 fetched: 2 scheduled: 2 executed: 2 num_reg_dependent: 0 num_mem_ops: 0 event: 5470269
[cpu0_ROB] entry:  48 instr_id: 30409996 fetched: 2 scheduled: 2 executed: 2 num_reg_dependent: 0 num_mem_ops: 0 event: 5470270
[cpu0_ROB] entry:  49 instr_id: 30409997 fetched: 2 scheduled: 2 executed: 2 num_reg_dependent: 0 num_mem_ops: 0 event: 5470415
[cpu0_ROB] entry:  50 instr_id: 30409998 fetched: 2 scheduled: 2 executed: 2 num_reg_dependent: 0 num_mem_ops: 0 event: 5470416
[cpu0_ROB] entry:  51 instr_id: 30409999 fetched: 2 scheduled: 2 executed: 2 num_reg_dependent: 0 num_mem_ops: 0 event: 5470270
[cpu0_ROB] entry:  52 instr_id: 30410000 fetched: 2 scheduled: 2 executed: 2 num_reg_dependent: 0 num_mem_ops: 0 event: 5470415
[cpu0_ROB] entry:  53 instr_id: 30410001 fetched: 2 scheduled: 2 executed: 2 num_reg_dependent: 0 num_mem_ops: 0 event: 5470416
[cpu0_ROB] entry:  54 instr_id: 30410002 fetched: 2 scheduled: 2 executed: 2 num_reg_dependent: 0 num_mem_ops: 0 event: 5470270
[cpu0_ROB] entry:  55 instr_id: 30410003 fetched: 2 scheduled: 2 executed: 2 num_reg_dependent: 0 num_mem_ops: 0 event: 5470415
[cpu0_ROB] entry:  56 instr_id: 30410004 fetched: 2 scheduled: 2 executed: 2 num_reg_dependent: 0 num_mem_ops: 0 event: 5470416
[cpu0_ROB] entry:  57 instr_id: 30410005 fetched: 2 scheduled: 2 executed: 2 num_reg_dependent: 0 num_mem_ops: 0 event: 5470271
[cpu0_ROB] entry:  58 instr_id: 30410006 fetched: 2 scheduled: 2 executed: 2 num_reg_dependent: 0 num_mem_ops: 0 event: 5470271
[cpu0_ROB] entry:  59 instr_id: 30410007 fetched: 2 scheduled: 2 executed: 2 num_reg_dependent: 0 num_mem_ops: 0 event: 5470272
[cpu0_ROB] entry:  60 instr_id: 30410008 fetched: 2 scheduled: 2 executed: 2 num_reg_dependent: 0 num_mem_ops: 0 event: 5470275
[cpu0_ROB] entry:  61 instr_id: 30410009 fetched: 2 scheduled: 2 executed: 2 num_reg_dependent: 0 num_mem_ops: 0 event: 5470272
[cpu0_ROB] entry:  62 instr_id: 30410010 fetched: 2 scheduled: 2 executed: 2 num_reg_dependent: 0 num_mem_ops: 0 event: 5470273
[cpu0_ROB] entry:  63 instr_id: 30410011 fetched: 2 scheduled: 2 executed: 2 num_reg_dependent: 0 num_mem_ops: 0 event: 5470274
[cpu0_ROB] entry:  64 instr_id: 30410012 fetched: 2 scheduled: 2 executed: 2 num_reg_dependent: 0 num_mem_ops: 0 event: 5470275
[cpu0_ROB] entry:  65 instr_id: 30410013 fetched: 2 scheduled: 2 executed: 2 num_reg_dependent: 0 num_mem_ops: 0 event: 5470276
[cpu0_ROB] entry:  66 instr_id: 30410014 fetched: 2 scheduled: 2 executed: 2 num_reg_dependent: 0 num_mem_ops: 0 event: 5470275
[cpu0_ROB] entry:  67 instr_id: 30410015 fetched: 2 scheduled: 2 executed: 2 num_reg_dependent: 0 num_mem_ops: 0 event: 5470275
[cpu0_ROB] entry:  68 instr_id: 30410016 fetched: 2 scheduled: 2 executed: 2 num_reg_dependent: 0 num_mem_ops: 0 event: 5470276
[cpu0_ROB] entry:  69 instr_id: 30410017 fetched: 2 scheduled: 2 executed: 2 num_reg_dependent: 0 num_mem_ops: 0 event: 5470276
[cpu0_ROB] entry:  70 instr_id: 30410018 fetched: 2 scheduled: 2 executed: 2 num_reg_dependent: 0 num_mem_ops: 0 event: 5470277
[cpu0_ROB] entry:  71 instr_id: 30410019 fetched: 2 scheduled: 2 executed: 2 num_reg_dependent: 0 num_mem_ops: 0 event: 5470275
[cpu0_ROB] entry:  72 instr_id: 30410020 fetched: 2 scheduled: 2 executed: 2 num_reg_dependent: 0 num_mem_ops: 0 event: 5470276
[cpu0_ROB] entry:  73 instr_id: 30410021 fetched: 2 scheduled: 2 executed: 2 num_reg_dependent: 0 num_mem_ops: 0 event: 5470415
[cpu0_ROB] entry:  74 instr_id: 30410022 fetched: 2 scheduled: 2 executed: 2 num_reg_dependent: 0 num_mem_ops: 0 event: 5470415
[cpu0_ROB] entry:  75 instr_id: 30410023 fetched: 2 scheduled: 2 executed: 2 num_reg_dependent: 0 num_mem_ops: 0 event: 5470415
[cpu0_ROB] entry:  76 instr_id: 30410024 fetched: 2 scheduled: 2 executed: 2 num_reg_dependent: 0 num_mem_ops: 0 event: 5470415
[cpu0_ROB] entry:  77 instr_id: 30410025 fetched: 2 scheduled: 2 executed: 2 num_reg_dependent: 0 num_mem_ops: 0 event: 5470416
[cpu0_ROB] entry:  78 instr_id: 30410026 fetched: 2 scheduled: 2 executed: 2 num_reg_dependent: 0 num_mem_ops: 0 event: 5470416
[cpu0_ROB] entry:  79 instr_id: 30410027 fetched: 2 scheduled: 2 executed: 2 num_reg_dependent: 0 num_mem_ops: 0 event: 5470274
[cpu0_ROB] entry:  80 instr_id: 30410028 fetched: 2 scheduled: 2 executed: 2 num_reg_dependent: 0 num_mem_ops: 0 event: 5470278
[cpu0_ROB] entry:  81 instr_id: 30410029 fetched: 2 scheduled: 2 executed: 2 num_reg_dependent: 0 num_mem_ops: 0 event: 5470274
[cpu0_ROB] entry:  82 instr_id: 30410030 fetched: 2 scheduled: 2 executed: 2 num_reg_dependent: 0 num_mem_ops: 0 event: 5470275
[cpu0_ROB] entry:  83 instr_id: 30410031 fetched: 2 scheduled: 2 executed: 2 num_reg_dependent: 0 num_mem_ops: 0 event: 5470417
[cpu0_ROB] entry:  84 instr_id: 30410032 fetched: 2 scheduled: 2 executed: 2 num_reg_dependent: 0 num_mem_ops: 0 event: 5470274
[cpu0_ROB] entry:  85 instr_id: 30410033 fetched: 2 scheduled: 2 executed: 2 num_reg_dependent: 0 num_mem_ops: 0 event: 5470418
[cpu0_ROB] entry:  86 instr_id: 30410034 fetched: 2 scheduled: 2 executed: 2 num_reg_dependent: 0 num_mem_ops: 0 event: 5470275
[cpu0_ROB] entry:  87 instr_id: 30410035 fetched: 2 scheduled: 2 executed: 2 num_reg_dependent: 0 num_mem_ops: 0 event: 5470279
[cpu0_ROB] entry:  88 instr_id: 30410036 fetched: 2 scheduled: 2 executed: 2 num_reg_dependent: 0 num_mem_ops: 0 event: 5470275
[cpu0_ROB] entry:  89 instr_id: 30410037 fetched: 2 scheduled: 2 executed: 2 num_reg_dependent: 0 num_mem_ops: 0 event: 5470276
[cpu0_ROB] entry:  90 instr_id: 30410038 fetched: 2 scheduled: 2 executed: 2 num_reg_dependent: 0 num_mem_ops: 0 event: 5470417
[cpu0_ROB] entry:  91 instr_id: 30410039 fetched: 2 scheduled: 2 executed: 2 num_reg_dependent: 0 num_mem_ops: 0 event: 5470418
[cpu0_ROB] entry:  92 instr_id: 30410040 fetched: 2 scheduled: 2 executed: 2 num_reg_dependent: 0 num_mem_ops: 0 event: 5470276
[cpu0_ROB] entry:  93 instr_id: 30410041 fetched: 2 scheduled: 2 executed: 2 num_reg_dependent: 0 num_mem_ops: 0 event: 5470417
[cpu0_ROB] entry:  94 instr_id: 30410042 fetched: 2 scheduled: 2 executed: 2 num_reg_dependent: 0 num_mem_ops: 0 event: 5470418
[cpu0_ROB] entry:  95 instr_id: 30410043 fetched: 2 scheduled: 2 executed: 2 num_reg_dependent: 0 num_mem_ops: 0 event: 5470276
[cpu0_ROB] entry:  96 instr_id: 30410044 fetched: 2 scheduled: 2 executed: 2 num_reg_dependent: 0 num_mem_ops: 0 event: 5470417
[cpu0_ROB] entry:  97 instr_id: 30410045 fetched: 2 scheduled: 2 executed: 2 num_reg_dependent: 0 num_mem_ops: 0 event: 5470418
[cpu0_ROB] entry:  98 instr_id: 30410046 fetched: 2 scheduled: 2 executed: 2 num_reg_dependent: 0 num_mem_ops: 0 event: 5470277
[cpu0_ROB] entry:  99 instr_id: 30410047 fetched: 2 scheduled: 2 executed: 2 num_reg_dependent: 0 num_mem_ops: 0 event: 5470277
[cpu0_ROB] entry: 100 instr_id: 30410048 fetched: 2 scheduled: 2 executed: 2 num_reg_dependent: 0 num_mem_ops: 0 event: 5470278
[cpu0_ROB] entry: 101 instr_id: 30410049 fetched: 2 scheduled: 2 executed: 2 num_reg_dependent: 0 num_mem_ops: 0 event: 5470280
[cpu0_ROB] entry: 102 instr_id: 30410050 fetched: 2 scheduled: 2 executed: 2 num_reg_dependent: 0 num_mem_ops: 0 event: 5470278
[cpu0_ROB] entry: 103 instr_id: 30410051 fetched: 2 scheduled: 2 executed: 2 num_reg_dependent: 0 num_mem_ops: 0 event: 5470279
[cpu0_ROB] entry: 104 instr_id: 30410052 fetched: 2 scheduled: 2 executed: 2 num_reg_dependent: 0 num_mem_ops: 0 event: 5470280
[cpu0_ROB] entry: 105 instr_id: 30410053 fetched: 2 scheduled: 2 executed: 2 num_reg_dependent: 0 num_mem_ops: 0 event: 5470281
[cpu0_ROB] entry: 106 instr_id: 30410054 fetched: 2 scheduled: 2 executed: 2 num_reg_dependent: 0 num_mem_ops: 0 event: 5470282
[cpu0_ROB] entry: 107 instr_id: 30410055 fetched: 2 scheduled: 2 executed: 2 num_reg_dependent: 0 num_mem_ops: 0 event: 5470281
[cpu0_ROB] entry: 108 instr_id: 30410056 fetched: 2 scheduled: 2 executed: 2 num_reg_dependent: 0 num_mem_ops: 0 event: 5470281
[cpu0_ROB] entry: 109 instr_id: 30410057 fetched: 2 scheduled: 2 executed: 2 num_reg_dependent: 0 num_mem_ops: 0 event: 5470282
[cpu0_ROB] entry: 110 instr_id: 30410058 fetched: 2 scheduled: 2 executed: 2 num_reg_dependent: 0 num_mem_ops: 0 event: 5470282
[cpu0_ROB] entry: 111 instr_id: 30410059 fetched: 2 scheduled: 2 executed: 2 num_reg_dependent: 0 num_mem_ops: 0 event: 5470283
[cpu0_ROB] entry: 112 instr_id: 30410060 fetched: 2 scheduled: 2 executed: 2 num_reg_dependent: 0 num_mem_ops: 0 event: 5470281
[cpu0_ROB] entry: 113 instr_id: 30410061 fetched: 2 scheduled: 2 executed: 2 num_reg_dependent: 0 num_mem_ops: 0 event: 5470282
[cpu0_ROB] entry: 114 instr_id: 30410062 fetched: 2 scheduled: 2 executed: 2 num_reg_dependent: 0 num_mem_ops: 0 event: 5470417
[cpu0_ROB] entry: 115 instr_id: 30410063 fetched: 2 scheduled: 2 executed: 2 num_reg_dependent: 0 num_mem_ops: 0 event: 5470417
[cpu0_ROB] entry: 116 instr_id: 30410064 fetched: 2 scheduled: 2 executed: 2 num_reg_dependent: 0 num_mem_ops: 0 event: 5470417
[cpu0_ROB] entry: 117 instr_id: 30410065 fetched: 2 scheduled: 2 executed: 2 num_reg_dependent: 0 num_mem_ops: 0 event: 5470417
[cpu0_ROB] entry: 118 instr_id: 30410066 fetched: 2 scheduled: 2 executed: 2 num_reg_dependent: 0 num_mem_ops: 0 event: 5470418
[cpu0_ROB] entry: 119 instr_id: 30410067 fetched: 2 scheduled: 2 executed: 2 num_reg_dependent: 0 num_mem_ops: 0 event: 5470418
[cpu0_ROB] entry: 120 instr_id: 30410068 fetched: 2 scheduled: 2 executed: 2 num_reg_dependent: 0 num_mem_ops: 0 event: 5470282
[cpu0_ROB] entry: 121 instr_id: 30410069 fetched: 2 scheduled: 2 executed: 2 num_reg_dependent: 0 num_mem_ops: 0 event: 5470284
[cpu0_ROB] entry: 122 instr_id: 30410070 fetched: 2 scheduled: 2 executed: 2 num_reg_dependent: 0 num_mem_ops: 0 event: 5470283
[cpu0_ROB] entry: 123 instr_id: 30410071 fetched: 2 scheduled: 2 executed: 2 num_reg_dependent: 0 num_mem_ops: 0 event: 5470284
[cpu0_ROB] entry: 124 instr_id: 30410072 fetched: 2 scheduled: 2 executed: 2 num_reg_dependent: 0 num_mem_ops: 0 event: 5470419
[cpu0_ROB] entry: 125 instr_id: 30410073 fetched: 2 scheduled: 2 executed: 2 num_reg_dependent: 0 num_mem_ops: 0 event: 5470284
[cpu0_ROB] entry: 126 instr_id: 30410074 fetched: 2 scheduled: 2 executed: 2 num_reg_dependent: 0 num_mem_ops: 0 event: 5470420
[cpu0_ROB] entry: 127 instr_id: 30410075 fetched: 2 scheduled: 2 executed: 2 num_reg_dependent: 0 num_mem_ops: 0 event: 5470285
[cpu0_ROB] entry: 128 instr_id: 30410076 fetched: 2 scheduled: 2 executed: 2 num_reg_dependent: 0 num_mem_ops: 0 event: 5470286
[cpu0_ROB] entry: 129 instr_id: 30410077 fetched: 2 scheduled: 2 executed: 2 num_reg_dependent: 0 num_mem_ops: 0 event: 5470284
[cpu0_ROB] entry: 130 instr_id: 30410078 fetched: 2 scheduled: 2 executed: 2 num_reg_dependent: 0 num_mem_ops: 0 event: 5470285
[cpu0_ROB] entry: 131 instr_id: 30410079 fetched: 2 scheduled: 2 executed: 2 num_reg_dependent: 0 num_mem_ops: 0 event: 5470419
[cpu0_ROB] entry: 132 instr_id: 30410080 fetched: 2 scheduled: 2 executed: 2 num_reg_dependent: 0 num_mem_ops: 0 event: 5470420
[cpu0_ROB] entry: 133 instr_id: 30410081 fetched: 2 scheduled: 2 executed: 2 num_reg_dependent: 0 num_mem_ops: 0 event: 5470286
[cpu0_ROB] entry: 134 instr_id: 30410082 fetched: 2 scheduled: 2 executed: 2 num_reg_dependent: 0 num_mem_ops: 0 event: 5470419
[cpu0_ROB] entry: 135 instr_id: 30410083 fetched: 2 scheduled: 2 executed: 2 num_reg_dependent: 0 num_mem_ops: 0 event: 5470420
[cpu0_ROB] entry: 136 instr_id: 30410084 fetched: 2 scheduled: 2 executed: 2 num_reg_dependent: 0 num_mem_ops: 0 event: 5470287
[cpu0_ROB] entry: 137 instr_id: 30410085 fetched: 2 scheduled: 2 executed: 2 num_reg_dependent: 0 num_mem_ops: 0 event: 5470419
[cpu0_ROB] entry: 138 instr_id: 30410086 fetched: 2 scheduled: 2 executed: 2 num_reg_dependent: 0 num_mem_ops: 0 event: 5470420
[cpu0_ROB] entry: 139 instr_id: 30410087 fetched: 2 scheduled: 2 executed: 2 num_reg_dependent: 0 num_mem_ops: 0 event: 5470288
[cpu0_ROB] entry: 140 instr_id: 30410088 fetched: 2 scheduled: 2 executed: 2 num_reg_dependent: 0 num_mem_ops: 0 event: 5470288
[cpu0_ROB] entry: 141 instr_id: 30410089 fetched: 2 scheduled: 2 executed: 2 num_reg_dependent: 0 num_mem_ops: 0 event: 5470290
[cpu0_ROB] entry: 142 instr_id: 30410090 fetched: 2 scheduled: 2 executed: 2 num_reg_dependent: 0 num_mem_ops: 0 event: 5470291
[cpu0_ROB] entry: 143 instr_id: 30410091 fetched: 2 scheduled: 2 executed: 2 num_reg_dependent: 0 num_mem_ops: 0 event: 5470290
[cpu0_ROB] entry: 144 instr_id: 30410092 fetched: 2 scheduled: 2 executed: 2 num_reg_dependent: 0 num_mem_ops: 0 event: 5470291
[cpu0_ROB] entry: 145 instr_id: 30410093 fetched: 2 scheduled: 2 executed: 2 num_reg_dependent: 0 num_mem_ops: 0 event: 5470292
[cpu0_ROB] entry: 146 instr_id: 30410094 fetched: 2 scheduled: 2 executed: 2 num_reg_dependent: 0 num_mem_ops: 0 event: 5470293
[cpu0_ROB] entry: 147 instr_id: 30410095 fetched: 2 scheduled: 2 executed: 2 num_reg_dependent: 0 num_mem_ops: 0 event: 5470294
[cpu0_ROB] entry: 148 instr_id: 30410096 fetched: 2 scheduled: 2 executed: 2 num_reg_dependent: 0 num_mem_ops: 0 event: 5470293
[cpu0_ROB] entry: 149 instr_id: 30410097 fetched: 2 scheduled: 2 executed: 2 num_reg_dependent: 0 num_mem_ops: 0 event: 5470293
[cpu0_ROB] entry: 150 instr_id: 30410098 fetched: 2 scheduled: 2 executed: 2 num_reg_dependent: 0 num_mem_ops: 0 event: 5470294
[cpu0_ROB] entry: 151 instr_id: 30410099 fetched: 2 scheduled: 2 executed: 2 num_reg_dependent: 0 num_mem_ops: 0 event: 5470294
[cpu0_ROB] entry: 152 instr_id: 30410100 fetched: 2 scheduled: 2 executed: 2 num_reg_dependent: 0 num_mem_ops: 0 event: 5470295
[cpu0_ROB] entry: 153 instr_id: 30410101 fetched: 2 scheduled: 2 executed: 2 num_reg_dependent: 0 num_mem_ops: 0 event: 5470293
[cpu0_ROB] entry: 154 instr_id: 30410102 fetched: 2 scheduled: 2 executed: 2 num_reg_dependent: 0 num_mem_ops: 0 event: 5470294
[cpu0_ROB] entry: 155 instr_id: 30410103 fetched: 2 scheduled: 2 executed: 2 num_reg_dependent: 0 num_mem_ops: 0 event: 5470416
[cpu0_ROB] entry: 156 instr_id: 30410104 fetched: 2 scheduled: 2 executed: 2 num_reg_dependent: 0 num_mem_ops: 0 event: 5470416
[cpu0_ROB] entry: 157 instr_id: 30410105 fetched: 2 scheduled: 2 executed: 2 num_reg_dependent: 0 num_mem_ops: 0 event: 5470416
[cpu0_ROB] entry: 158 instr_id: 30410106 fetched: 2 scheduled: 2 executed: 2 num_reg_dependent: 0 num_mem_ops: 0 event: 5470416
[cpu0_ROB] entry: 159 instr_id: 30410107 fetched: 2 scheduled: 2 executed: 2 num_reg_dependent: 0 num_mem_ops: 0 event: 5470417
[cpu0_ROB] entry: 160 instr_id: 30410108 fetched: 2 scheduled: 2 executed: 2 num_reg_dependent: 0 num_mem_ops: 0 event: 5470417
[cpu0_ROB] entry: 161 instr_id: 30410109 fetched: 2 scheduled: 2 executed: 2 num_reg_dependent: 0 num_mem_ops: 0 event: 5470292
[cpu0_ROB] entry: 162 instr_id: 30410110 fetched: 2 scheduled: 2 executed: 2 num_reg_dependent: 0 num_mem_ops: 0 event: 5470296
[cpu0_ROB] entry: 163 instr_id: 30410111 fetched: 2 scheduled: 2 executed: 2 num_reg_dependent: 0 num_mem_ops: 0 event: 5470292
[cpu0_ROB] entry: 164 instr_id: 30410112 fetched: 2 scheduled: 2 executed: 2 num_reg_dependent: 0 num_mem_ops: 0 event: 5470293
[cpu0_ROB] entry: 165 instr_id: 30410113 fetched: 2 scheduled: 2 executed: 2 num_reg_dependent: 0 num_mem_ops: 0 event: 5470431
[cpu0_ROB] entry: 166 instr_id: 30410114 fetched: 2 scheduled: 2 executed: 2 num_reg_dependent: 0 num_mem_ops: 0 event: 5470292
[cpu0_ROB] entry: 167 instr_id: 30410115 fetched: 2 scheduled: 2 executed: 2 num_reg_dependent: 0 num_mem_ops: 0 event: 5470432
[cpu0_ROB] entry: 168 instr_id: 30410116 fetched: 2 scheduled: 2 executed: 2 num_reg_dependent: 0 num_mem_ops: 0 event: 5470293
[cpu0_ROB] entry: 169 instr_id: 30410117 fetched: 2 scheduled: 2 executed: 2 num_reg_dependent: 0 num_mem_ops: 0 event: 5470297
[cpu0_ROB] entry: 170 instr_id: 30410118 fetched: 2 scheduled: 2 executed: 2 num_reg_dependent: 0 num_mem_ops: 0 event: 5470293
[cpu0_ROB] entry: 171 instr_id: 30410119 fetched: 2 scheduled: 2 executed: 2 num_reg_dependent: 0 num_mem_ops: 0 event: 5470295
[cpu0_ROB] entry: 172 instr_id: 30410120 fetched: 2 scheduled: 2 executed: 2 num_reg_dependent: 0 num_mem_ops: 0 event: 5470431
[cpu0_ROB] entry: 173 instr_id: 30410121 fetched: 2 scheduled: 2 executed: 2 num_reg_dependent: 0 num_mem_ops: 0 event: 5470432
[cpu0_ROB] entry: 174 instr_id: 30410122 fetched: 2 scheduled: 2 executed: 2 num_reg_dependent: 0 num_mem_ops: 0 event: 5470293
[cpu0_ROB] entry: 175 instr_id: 30410123 fetched: 2 scheduled: 2 executed: 2 num_reg_dependent: 0 num_mem_ops: 0 event: 5470431
[cpu0_ROB] entry: 176 instr_id: 30410124 fetched: 2 scheduled: 2 executed: 2 num_reg_dependent: 0 num_mem_ops: 0 event: 5470432
[cpu0_ROB] entry: 177 instr_id: 30410125 fetched: 2 scheduled: 2 executed: 2 num_reg_dependent: 0 num_mem_ops: 0 event: 5470295
[cpu0_ROB] entry: 178 instr_id: 30410126 fetched: 2 scheduled: 2 executed: 2 num_reg_dependent: 0 num_mem_ops: 0 event: 5470431
[cpu0_ROB] entry: 179 instr_id: 30410127 fetched: 2 scheduled: 2 executed: 2 num_reg_dependent: 0 num_mem_ops: 0 event: 5470432
[cpu0_ROB] entry: 180 instr_id: 30410128 fetched: 2 scheduled: 2 executed: 2 num_reg_dependent: 0 num_mem_ops: 0 event: 5470295
[cpu0_ROB] entry: 181 instr_id: 30410129 fetched: 2 scheduled: 2 executed: 2 num_reg_dependent: 0 num_mem_ops: 0 event: 5470295
[cpu0_ROB] entry: 182 instr_id: 30410130 fetched: 2 scheduled: 2 executed: 2 num_reg_dependent: 0 num_mem_ops: 0 event: 5470296
[cpu0_ROB] entry: 183 instr_id: 30410131 fetched: 2 scheduled: 2 executed: 2 num_reg_dependent: 0 num_mem_ops: 0 event: 5470298
[cpu0_ROB] entry: 184 instr_id: 30410132 fetched: 2 scheduled: 2 executed: 2 num_reg_dependent: 0 num_mem_ops: 0 event: 5470296
[cpu0_ROB] entry: 185 instr_id: 30410133 fetched: 2 scheduled: 2 executed: 2 num_reg_dependent: 0 num_mem_ops: 0 event: 5470297
[cpu0_ROB] entry: 186 instr_id: 30410134 fetched: 2 scheduled: 2 executed: 2 num_reg_dependent: 0 num_mem_ops: 0 event: 5470298
[cpu0_ROB] entry: 187 instr_id: 30410135 fetched: 2 scheduled: 2 executed: 2 num_reg_dependent: 0 num_mem_ops: 0 event: 5470299
[cpu0_ROB] entry: 188 instr_id: 30410136 fetched: 2 scheduled: 2 executed: 2 num_reg_dependent: 0 num_mem_ops: 0 event: 5470300
[cpu0_ROB] entry: 189 instr_id: 30410137 fetched: 2 scheduled: 2 executed: 2 num_reg_dependent: 0 num_mem_ops: 0 event: 5470299
[cpu0_ROB] entry: 190 instr_id: 30410138 fetched: 2 scheduled: 2 executed: 2 num_reg_dependent: 0 num_mem_ops: 0 event: 5470299
[cpu0_ROB] entry: 191 instr_id: 30410139 fetched: 2 scheduled: 2 executed: 2 num_reg_dependent: 0 num_mem_ops: 0 event: 5470300
[...]
[cpu0_ROB] entry: 440 instr_id: 30410388 fetched: 2 scheduled: 2 executed: 2 num_reg_dependent: 0 num_mem_ops: 0 event: 5470425
[cpu0_ROB] entry: 441 instr_id: 30410389 fetched: 2 scheduled: 2 executed: 2 num_reg_dependent: 0 num_mem_ops: 0 event: 5470426
[cpu0_ROB] entry: 442 instr_id: 30410390 fetched: 2 scheduled: 2 executed: 2 num_reg_dependent: 0 num_mem_ops: 0 event: 5470473
[cpu0_ROB] entry: 443 instr_id: 30410391 fetched: 2 scheduled: 2 executed: 2 num_reg_dependent: 0 num_mem_ops: 0 event: 5470473
[cpu0_ROB] entry: 444 instr_id: 30410392 fetched: 2 scheduled: 2 executed: 2 num_reg_dependent: 0 num_mem_ops: 0 event: 5470473
[cpu0_ROB] entry: 445 instr_id: 30410393 fetched: 2 scheduled: 2 executed: 2 num_reg_dependent: 0 num_mem_ops: 0 event: 5470473
[cpu0_ROB] entry: 446 instr_id: 30410394 fetched: 2 scheduled: 2 executed: 2 num_reg_dependent: 0 num_mem_ops: 0 event: 5470474
[cpu0_ROB] entry: 447 instr_id: 30410395 fetched: 2 scheduled: 2 executed: 2 num_reg_dependent: 0 num_mem_ops: 0 event: 5470474
[cpu0_ROB] entry: 448 instr_id: 30410396 fetched: 2 scheduled: 2 executed: 2 num_reg_dependent: 0 num_mem_ops: 0 event: 5470424
[cpu0_ROB] entry: 449 instr_id: 30410397 fetched: 2 scheduled: 2 executed: 2 num_reg_dependent: 0 num_mem_ops: 0 event: 5470430
[cpu0_ROB] entry: 450 instr_id: 30410398 fetched: 2 scheduled: 2 executed: 2 num_reg_dependent: 0 num_mem_ops: 0 event: 5470424
[cpu0_ROB] entry: 451 instr_id: 30410399 fetched: 2 scheduled: 2 executed: 2 num_reg_dependent: 0 num_mem_ops: 0 event: 5470425
[cpu0_ROB] entry: 452 instr_id: 30410400 fetched: 2 scheduled: 2 executed: 2 num_reg_dependent: 0 num_mem_ops: 0 event: 5470475
[cpu0_ROB] entry: 453 instr_id: 30410401 fetched: 2 scheduled: 2 executed: 2 num_reg_dependent: 0 num_mem_ops: 0 event: 5470425
[cpu0_ROB] entry: 454 instr_id: 30410402 fetched: 2 scheduled: 2 executed: 2 num_reg_dependent: 0 num_mem_ops: 0 event: 5470476
[cpu0_ROB] entry: 455 instr_id: 30410403 fetched: 2 scheduled: 2 executed: 2 num_reg_dependent: 0 num_mem_ops: 0 event: 5470426
[cpu0_ROB] entry: 456 instr_id: 30410404 fetched: 2 scheduled: 2 executed: 2 num_reg_dependent: 0 num_mem_ops: 0 event: 5470431
[cpu0_ROB] entry: 457 instr_id: 30410405 fetched: 2 scheduled: 2 executed: 2 num_reg_dependent: 0 num_mem_ops: 0 event: 5470426
[cpu0_ROB] entry: 458 instr_id: 30410406 fetched: 2 scheduled: 2 executed: 2 num_reg_dependent: 0 num_mem_ops: 0 event: 5470427
[cpu0_ROB] entry: 459 instr_id: 30410407 fetched: 2 scheduled: 2 executed: 2 num_reg_dependent: 0 num_mem_ops: 0 event: 5470475
[cpu0_ROB] entry: 460 instr_id: 30410408 fetched: 2 scheduled: 2 executed: 2 num_reg_dependent: 0 num_mem_ops: 0 event: 5470476
[cpu0_ROB] entry: 461 instr_id: 30410409 fetched: 2 scheduled: 2 executed: 2 num_reg_dependent: 0 num_mem_ops: 0 event: 5470427
[cpu0_ROB] entry: 462 instr_id: 30410410 fetched: 2 scheduled: 2 executed: 2 num_reg_dependent: 0 num_mem_ops: 0 event: 5470475
[cpu0_ROB] entry: 463 instr_id: 30410411 fetched: 2 scheduled: 2 executed: 2 num_reg_dependent: 0 num_mem_ops: 0 event: 5470476
[cpu0_ROB] entry: 464 instr_id: 30410412 fetched: 2 scheduled: 2 executed: 2 num_reg_dependent: 0 num_mem_ops: 0 event: 5470427
[cpu0_ROB] entry: 465 instr_id: 30410413 fetched: 2 scheduled: 2 executed: 2 num_reg_dependent: 0 num_mem_ops: 0 event: 5470475
[cpu0_ROB] entry: 466 instr_id: 30410414 fetched: 2 scheduled: 2 executed: 2 num_reg_dependent: 0 num_mem_ops: 0 event: 5470476
[cpu0_ROB] entry: 467 instr_id: 30410415 fetched: 2 scheduled: 2 executed: 2 num_reg_dependent: 0 num_mem_ops: 0 event: 5470428
[cpu0_ROB] entry: 468 instr_id: 30410416 fetched: 2 scheduled: 2 executed: 2 num_reg_dependent: 0 num_mem_ops: 0 event: 5470428
[cpu0_ROB] entry: 469 instr_id: 30410417 fetched: 2 scheduled: 2 executed: 2 num_reg_dependent: 0 num_mem_ops: 0 event: 5470429
[cpu0_ROB] entry: 470 instr_id: 30410418 fetched: 2 scheduled: 2 executed: 2 num_reg_dependent: 0 num_mem_ops: 0 event: 5470432
[cpu0_ROB] entry: 471 instr_id: 30410419 fetched: 2 scheduled: 2 executed: 2 num_reg_dependent: 0 num_mem_ops: 0 event: 5470429
[cpu0_ROB] entry: 472 instr_id: 30410420 fetched: 2 scheduled: 2 executed: 2 num_reg_dependent: 0 num_mem_ops: 0 event: 5470430
[cpu0_ROB] entry: 473 instr_id: 30410421 fetched: 2 scheduled: 2 executed: 2 num_reg_dependent: 0 num_mem_ops: 0 event: 5470431
[cpu0_ROB] entry: 474 instr_id: 30410422 fetched: 2 scheduled: 2 executed: 2 num_reg_dependent: 0 num_mem_ops: 0 event: 5470432
[cpu0_ROB] entry: 475 instr_id: 30410423 fetched: 2 scheduled: 2 executed: 2 num_reg_dependent: 0 num_mem_ops: 0 event: 5470433
[cpu0_ROB] entry: 476 instr_id: 30410424 fetched: 2 scheduled: 2 executed: 2 num_reg_dependent: 0 num_mem_ops: 0 event: 5470432
[cpu0_ROB] entry: 477 instr_id: 30410425 fetched: 2 scheduled: 2 executed: 2 num_reg_dependent: 0 num_mem_ops: 0 event: 5470432
[cpu0_ROB] entry: 478 instr_id: 30410426 fetched: 2 scheduled: 2 executed: 2 num_reg_dependent: 0 num_mem_ops: 0 event: 5470433
[cpu0_ROB] entry: 479 instr_id: 30410427 fetched: 2 scheduled: 2 executed: 2 num_reg_dependent: 0 num_mem_ops: 0 event: 5470433
[cpu0_ROB] entry: 480 instr_id: 30410428 fetched: 2 scheduled: 2 executed: 2 num_reg_dependent: 0 num_mem_ops: 0 event: 5470434
[cpu0_ROB] entry: 481 instr_id: 30410429 fetched: 2 scheduled: 2 executed: 2 num_reg_dependent: 0 num_mem_ops: 0 event: 5470432
[cpu0_ROB] entry: 482 instr_id: 30410430 fetched: 2 scheduled: 2 executed: 2 num_reg_dependent: 0 num_mem_ops: 0 event: 5470433
[cpu0_ROB] entry: 483 instr_id: 30410431 fetched: 2 scheduled: 2 executed: 2 num_reg_dependent: 0 num_mem_ops: 0 event: 5470472
[cpu0_ROB] entry: 484 instr_id: 30410432 fetched: 2 scheduled: 2 executed: 2 num_reg_dependent: 0 num_mem_ops: 0 event: 5470472
[cpu0_ROB] entry: 485 instr_id: 30410433 fetched: 2 scheduled: 2 executed: 2 num_reg_dependent: 0 num_mem_ops: 0 event: 5470472
[cpu0_ROB] entry: 486 instr_id: 30410434 fetched: 2 scheduled: 2 executed: 2 num_reg_dependent: 0 num_mem_ops: 0 event: 5470472
[cpu0_ROB] entry: 487 instr_id: 30410435 fetched: 2 scheduled: 2 executed: 2 num_reg_dependent: 0 num_mem_ops: 0 event: 5470473
[cpu0_ROB] entry: 488 instr_id: 30410436 fetched: 2 scheduled: 2 executed: 2 num_reg_dependent: 0 num_mem_ops: 0 event: 5470473
[cpu0_ROB] entry: 489 instr_id: 30410437 fetched: 2 scheduled: 2 executed: 2 num_reg_dependent: 0 num_mem_ops: 0 event: 5470433
[cpu0_ROB] entry: 490 instr_id: 30410438 fetched: 2 scheduled: 2 executed: 2 num_reg_dependent: 0 num_mem_ops: 0 event: 5470435
[cpu0_ROB] entry: 491 instr_id: 30410439 fetched: 2 scheduled: 2 executed: 2 num_reg_dependent: 0 num_mem_ops: 0 event: 5470434
[cpu0_ROB] entry: 492 instr_id: 30410440 fetched: 2 scheduled: 2 executed: 2 num_reg_dependent: 0 num_mem_ops: 0 event: 5470435
[cpu0_ROB] entry: 493 instr_id: 30410441 fetched: 2 scheduled: 2 executed: 2 num_reg_dependent: 0 num_mem_ops: 0 event: 5470638
[cpu0_ROB] entry: 494 instr_id: 30410442 fetched: 2 scheduled: 2 executed: 2 num_reg_dependent: 0 num_mem_ops: 0 event: 5470434
[cpu0_ROB] entry: 495 instr_id: 30410443 fetched: 2 scheduled: 2 executed: 2 num_reg_dependent: 0 num_mem_ops: 0 event: 5470639
[cpu0_ROB] entry: 496 instr_id: 30410444 fetched: 2 scheduled: 2 executed: 2 num_reg_dependent: 0 num_mem_ops: 0 event: 5470435
[cpu0_ROB] entry: 497 instr_id: 30410445 fetched: 2 scheduled: 2 executed: 2 num_reg_dependent: 0 num_mem_ops: 0 event: 5470436
[cpu0_ROB] entry: 498 instr_id: 30410446 fetched: 2 scheduled: 2 executed: 2 num_reg_dependent: 0 num_mem_ops: 0 event: 5470434
[cpu0_ROB] entry: 499 instr_id: 30410447 fetched: 2 scheduled: 2 executed: 2 num_reg_dependent: 0 num_mem_ops: 0 event: 5470435
[cpu0_ROB] entry: 500 instr_id: 30410448 fetched: 2 scheduled: 2 executed: 2 num_reg_dependent: 0 num_mem_ops: 0 event: 5470638
[cpu0_ROB] entry: 501 instr_id: 30410449 fetched: 2 scheduled: 2 executed: 2 num_reg_dependent: 0 num_mem_ops: 0 event: 5470639
[cpu0_ROB] entry: 502 instr_id: 30410450 fetched: 2 scheduled: 2 executed: 2 num_reg_dependent: 0 num_mem_ops: 0 event: 5470435
[cpu0_ROB] entry: 503 instr_id: 30410451 fetched: 2 scheduled: 2 executed: 2 num_reg_dependent: 0 num_mem_ops: 0 event: 5470638
[cpu0_ROB] entry: 504 instr_id: 30410452 fetched: 2 scheduled: 2 executed: 2 num_reg_dependent: 0 num_mem_ops: 0 event: 5470639
[cpu0_ROB] entry: 505 instr_id: 30410453 fetched: 2 scheduled: 2 executed: 2 num_reg_dependent: 0 num_mem_ops: 0 event: 5470436
[cpu0_ROB] entry: 506 instr_id: 30410454 fetched: 2 scheduled: 2 executed: 2 num_reg_dependent: 0 num_mem_ops: 0 event: 5470638
[cpu0_ROB] entry: 507 instr_id: 30410455 fetched: 2 scheduled: 2 executed: 2 num_reg_dependent: 0 num_mem_ops: 0 event: 5470639
[cpu0_ROB] entry: 508 instr_id: 30410456 fetched: 2 scheduled: 2 executed: 2 num_reg_dependent: 0 num_mem_ops: 0 event: 5470436
[cpu0_ROB] entry: 509 instr_id: 30410457 fetched: 2 scheduled: 2 executed: 2 num_reg_dependent: 0 num_mem_ops: 0 event: 5470437
[cpu0_ROB] entry: 510 instr_id: 30410458 fetched: 2 scheduled: 2 executed: 2 num_reg_dependent: 0 num_mem_ops: 0 event: 5470437
[cpu0_ROB] entry: 511 instr_id: 30410459 fetched: 2 scheduled: 2 executed: 2 num_reg_dependent: 0 num_mem_ops: 0 event: 5470438

[cpu0_LQ] entry:   0 empty
[cpu0_LQ] entry:   1 empty
[cpu0_LQ] entry:   2 empty
[cpu0_LQ] entry:   3 empty
[cpu0_LQ] entry:   4 empty
[cpu0_LQ] entry:   5 empty
[cpu0_LQ] entry:   6 empty
[cpu0_LQ] entry:   7 empty
[cpu0_LQ] entry:   8 empty
[cpu0_LQ] entry:   9 empty
[cpu0_LQ] entry:  10 empty
[cpu0_LQ] entry:  11 empty
[cpu0_LQ] entry:  12 empty
[cpu0_LQ] entry:  13 empty
[cpu0_LQ] entry:  14 instr_id: 30409948 address: 0xc276d580 fetch_issued: true event_cycle: 5470264 waits on -
[cpu0_LQ] entry:  15 instr_id: 30409955 address: 0xc276d588 fetch_issued: true event_cycle: 5470266 waits on -
[cpu0_LQ] entry:  16 instr_id: 30409958 address: 0xc276d580 fetch_issued: true event_cycle: 5470264 waits on -
[cpu0_LQ] entry:  17 instr_id: 30409961 address: 0xc276d588 fetch_issued: true event_cycle: 5470266 waits on -
[cpu0_LQ] entry:  18 empty
[cpu0_LQ] entry:  19 empty
[cpu0_LQ] entry:  20 empty
[cpu0_LQ] entry:  21 empty
[cpu0_LQ] entry:  22 empty
[cpu0_LQ] entry:  23 empty
[cpu0_LQ] entry:  24 empty
[cpu0_LQ] entry:  25 empty
[cpu0_LQ] entry:  26 empty
[cpu0_LQ] entry:  27 empty
[cpu0_LQ] entry:  28 empty
[cpu0_LQ] entry:  29 empty
[cpu0_LQ] entry:  30 empty
[cpu0_LQ] entry:  31 empty
[cpu0_LQ] entry:  32 empty
[cpu0_LQ] entry:  33 empty
[cpu0_LQ] entry:  34 empty
[cpu0_LQ] entry:  35 empty
[cpu0_LQ] entry:  36 empty
[cpu0_LQ] entry:  37 empty
[cpu0_LQ] entry:  38 empty
[cpu0_LQ] entry:  39 empty
[cpu0_LQ] entry:  40 empty
[cpu0_LQ] entry:  41 empty
[cpu0_LQ] entry:  42 empty
[cpu0_LQ] entry:  43 empty
[cpu0_LQ] entry:  44 empty
[cpu0_LQ] entry:  45 empty
[cpu0_LQ] entry:  46 empty
[cpu0_LQ] entry:  47 empty
[cpu0_LQ] entry:  48 empty
[cpu0_LQ] entry:  49 empty
[cpu0_LQ] entry:  50 empty
[cpu0_LQ] entry:  51 empty
[cpu0_LQ] entry:  52 empty
[cpu0_LQ] entry:  53 empty
[cpu0_LQ] entry:  54 empty
[cpu0_LQ] entry:  55 empty
[cpu0_LQ] entry:  56 empty
[cpu0_LQ] entry:  57 empty
[cpu0_LQ] entry:  58 empty
[cpu0_LQ] entry:  59 empty
[cpu0_LQ] entry:  60 empty
[cpu0_LQ] entry:  61 empty
[cpu0_LQ] entry:  62 empty
[cpu0_LQ] entry:  63 empty
[cpu0_LQ] entry:  64 empty
[cpu0_LQ] entry:  65 empty
[cpu0_LQ] entry:  66 empty
[cpu0_LQ] entry:  67 empty
[cpu0_LQ] entry:  68 empty
[cpu0_LQ] entry:  69 empty
[cpu0_LQ] entry:  70 empty
[cpu0_LQ] entry:  71 empty
[cpu0_LQ] entry:  72 empty
[cpu0_LQ] entry:  73 empty
[cpu0_LQ] entry:  74 empty
[cpu0_LQ] entry:  75 empty
[cpu0_LQ] entry:  76 empty
[cpu0_LQ] entry:  77 empty
[cpu0_LQ] entry:  78 empty
[cpu0_LQ] entry:  79 empty
[cpu0_LQ] entry:  80 empty
[cpu0_LQ] entry:  81 empty
[cpu0_LQ] entry:  82 empty
[cpu0_LQ] entry:  83 empty
[cpu0_LQ] entry:  84 empty
[cpu0_LQ] entry:  85 empty
[cpu0_LQ] entry:  86 empty
[cpu0_LQ] entry:  87 empty
[cpu0_LQ] entry:  88 empty
[cpu0_LQ] entry:  89 empty
[cpu0_LQ] entry:  90 empty
[cpu0_LQ] entry:  91 empty
[cpu0_LQ] entry:  92 empty
[cpu0_LQ] entry:  93 empty
[cpu0_LQ] entry:  94 empty
[cpu0_LQ] entry:  95 empty
[cpu0_LQ] entry:  96 empty
[cpu0_LQ] entry:  97 empty
[cpu0_LQ] entry:  98 empty
[cpu0_LQ] entry:  99 empty
[cpu0_LQ] entry: 100 empty
[cpu0_LQ] entry: 101 empty
[cpu0_LQ] entry: 102 empty
[cpu0_LQ] entry: 103 empty
[cpu0_LQ] entry: 104 empty
[cpu0_LQ] entry: 105 empty
[cpu0_LQ] entry: 106 empty
[cpu0_LQ] entry: 107 empty
[cpu0_LQ] entry: 108 empty
[cpu0_LQ] entry: 109 empty
[cpu0_LQ] entry: 110 empty
[cpu0_LQ] entry: 111 empty
[cpu0_LQ] entry: 112 empty
[cpu0_LQ] entry: 113 empty
[cpu0_LQ] entry: 114 empty
[cpu0_LQ] entry: 115 empty
[cpu0_LQ] entry: 116 empty
[cpu0_LQ] entry: 117 empty
[cpu0_LQ] entry: 118 empty
[cpu0_LQ] entry: 119 empty
[cpu0_LQ] entry: 120 empty
[cpu0_LQ] entry: 121 empty
[cpu0_LQ] entry: 122 empty
[cpu0_LQ] entry: 123 empty
[cpu0_LQ] entry: 124 empty
[cpu0_LQ] entry: 125 empty
[cpu0_LQ] entry: 126 empty
[cpu0_LQ] entry: 127 empty
[cpu0_LQ] entry: 128 empty
[cpu0_LQ] entry: 129 empty
[cpu0_LQ] entry: 130 empty
[cpu0_LQ] entry: 131 empty
[cpu0_LQ] entry: 132 empty
[cpu0_LQ] entry: 133 empty
[cpu0_LQ] entry: 134 empty
[cpu0_LQ] entry: 135 empty
[cpu0_LQ] entry: 136 empty
[cpu0_LQ] entry: 137 empty
[cpu0_LQ] entry: 138 empty
[cpu0_LQ] entry: 139 empty
[cpu0_LQ] entry: 140 empty
[cpu0_LQ] entry: 141 empty
[cpu0_LQ] entry: 142 empty
[cpu0_LQ] entry: 143 empty
[cpu0_LQ] entry: 144 empty
[cpu0_LQ] entry: 145 empty
[cpu0_LQ] entry: 146 empty
[cpu0_LQ] entry: 147 empty
[cpu0_LQ] entry: 148 empty
[cpu0_LQ] entry: 149 empty
[cpu0_LQ] entry: 150 empty
[cpu0_LQ] entry: 151 empty
[cpu0_LQ] entry: 152 empty
[cpu0_LQ] entry: 153 empty
[cpu0_LQ] entry: 154 empty
[cpu0_LQ] entry: 155 empty
[cpu0_LQ] entry: 156 empty
[cpu0_LQ] entry: 157 empty
[cpu0_LQ] entry: 158 empty
[cpu0_LQ] entry: 159 empty
[cpu0_LQ] entry: 160 empty
[cpu0_LQ] entry: 161 empty
[cpu0_LQ] entry: 162 empty
[cpu0_LQ] entry: 163 empty
[cpu0_LQ] entry: 164 empty
[cpu0_LQ] entry: 165 empty
[cpu0_LQ] entry: 166 empty
[cpu0_LQ] entry: 167 empty
[cpu0_LQ] entry: 168 empty
[cpu0_LQ] entry: 169 empty
[cpu0_LQ] entry: 170 empty
[cpu0_LQ] entry: 171 empty
[cpu0_LQ] entry: 172 empty
[cpu0_LQ] entry: 173 empty
[cpu0_LQ] entry: 174 empty
[cpu0_LQ] entry: 175 empty
[cpu0_LQ] entry: 176 empty
[cpu0_LQ] entry: 177 empty
[cpu0_LQ] entry: 178 empty
[cpu0_LQ] entry: 179 empty
[cpu0_LQ] entry: 180 empty
[cpu0_LQ] entry: 181 empty
[cpu0_LQ] entry: 182 empty
[cpu0_LQ] entry: 183 empty
[cpu0_LQ] entry: 184 empty
[cpu0_LQ] entry: 185 empty
[cpu0_LQ] entry: 186 empty
[cpu0_LQ] entry: 187 empty
[cpu0_LQ] entry: 188 empty
[cpu0_LQ] entry: 189 empty
[cpu0_LQ] entry: 190 empty
[cpu0_LQ] entry: 191 empty

[cpu0_SQ] entry:   0 instr_id: 30409951 address: 0xc27ed580 fetch_issued: true event_cycle: 5470241 LQ waiting: []
[cpu0_SQ] entry:   1 instr_id: 30409957 address: 0xc27ed588 fetch_issued: true event_cycle: 5470242 LQ waiting: []
[cpu0_SQ] entry:   2 instr_id: 30409960 address: 0xc276d580 fetch_issued: true event_cycle: 5470242 LQ waiting: []
[cpu0_SQ] entry:   3 instr_id: 30409963 address: 0xc276d588 fetch_issued: true event_cycle: 5470243 LQ waiting: []
[cpu0_SQ] entry:   4 instr_id: 30409992 address: 0xc28ed580 fetch_issued: true event_cycle: 5470416 LQ waiting: []
[cpu0_SQ] entry:   5 instr_id: 30409998 address: 0xc28ed588 fetch_issued: true event_cycle: 5470416 LQ waiting: []
[cpu0_SQ] entry:   6 instr_id: 30410001 address: 0xc286d580 fetch_issued: true event_cycle: 5470416 LQ waiting: []
[cpu0_SQ] entry:   7 instr_id: 30410004 address: 0xc286d588 fetch_issued: true event_cycle: 5470416 LQ waiting: []
[cpu0_SQ] entry:   8 instr_id: 30410033 address: 0xc29ed580 fetch_issued: true event_cycle: 5470418 LQ waiting: []
[cpu0_SQ] entry:   9 instr_id: 30410039 address: 0xc29ed588 fetch_issued: true event_cycle: 5470418 LQ waiting: []
[cpu0_SQ] entry:  10 instr_id: 30410042 address: 0xc296d580 fetch_issued: true event_cycle: 5470418 LQ waiting: []
[cpu0_SQ] entry:  11 instr_id: 30410045 address: 0xc296d588 fetch_issued: true event_cycle: 5470418 LQ waiting: []
[cpu0_SQ] entry:  12 instr_id: 30410074 address: 0xc2aed580 fetch_issued: true event_cycle: 5470420 LQ waiting: []
[cpu0_SQ] entry:  13 instr_id: 30410080 address: 0xc2aed588 fetch_issued: true event_cycle: 5470420 LQ waiting: []
[cpu0_SQ] entry:  14 instr_id: 30410083 address: 0xc2a6d580 fetch_issued: true event_cycle: 5470420 LQ waiting: []
[cpu0_SQ] entry:  15 instr_id: 30410086 address: 0xc2a6d588 fetch_issued: true event_cycle: 5470420 LQ waiting: []
[cpu0_SQ] entry:  16 instr_id: 30410115 address: 0xc2bed580 fetch_issued: true event_cycle: 5470432 LQ waiting: []
[cpu0_SQ] entry:  17 instr_id: 30410121 address: 0xc2bed588 fetch_issued: true event_cycle: 5470432 LQ waiting: []
[cpu0_SQ] entry:  18 instr_id: 30410124 address: 0xc2b6d580 fetch_issued: true event_cycle: 5470432 LQ waiting: []
[cpu0_SQ] entry:  19 instr_id: 30410127 address: 0xc2b6d588 fetch_issued: true event_cycle: 5470432 LQ waiting: []
[cpu0_SQ] entry:  20 instr_id: 30410156 address: 0xc2ced580 fetch_issued: true event_cycle: 5470444 LQ waiting: []
[cpu0_SQ] entry:  21 instr_id: 30410162 address: 0xc2ced588 fetch_issued: true event_cycle: 5470444 LQ waiting: []
[cpu0_SQ] entry:  22 instr_id: 30410165 address: 0xc2c6d580 fetch_issued: true event_cycle: 5470444 LQ waiting: []
[cpu0_SQ] entry:  23 instr_id: 30410168 address: 0xc2c6d588 fetch_issued: true event_cycle: 5470444 LQ waiting: []
[cpu0_SQ] entry:  24 instr_id: 30410197 address: 0xc2ded580 fetch_issued: true event_cycle: 5470446 LQ waiting: []
[cpu0_SQ] entry:  25 instr_id: 30410203 address: 0xc2ded588 fetch_issued: true event_cycle: 5470446 LQ waiting: []
[cpu0_SQ] entry:  26 instr_id: 30410206 address: 0xc2d6d580 fetch_issued: true event_cycle: 5470446 LQ waiting: []
[cpu0_SQ] entry:  27 instr_id: 30410209 address: 0xc2d6d588 fetch_issued: true event_cycle: 5470446 LQ waiting: []
[cpu0_SQ] entry:  28 instr_id: 30410238 address: 0xc2eed580 fetch_issued: true event_cycle: 5470448 LQ waiting: []
[cpu0_SQ] entry:  29 instr_id: 30410244 address: 0xc2eed588 fetch_issued: true event_cycle: 5470448 LQ waiting: []
[cpu0_SQ] entry:  30 instr_id: 30410247 address: 0xc2e6d580 fetch_issued: true event_cycle: 5470448 LQ waiting: []
[cpu0_SQ] entry:  31 instr_id: 30410250 address: 0xc2e6d588 fetch_issued: true event_cycle: 5470448 LQ waiting: []
[cpu0_SQ] entry:  32 instr_id: 30410279 address: 0xc2fed580 fetch_issued: true event_cycle: 5472827 LQ waiting: []
[cpu0_SQ] entry:  33 instr_id: 30410285 address: 0xc2fed588 fetch_issued: true event_cycle: 5472827 LQ waiting: []
[cpu0_SQ] entry:  34 instr_id: 30410288 address: 0xc2f6d580 fetch_issued: true event_cycle: 5472827 LQ waiting: []
[cpu0_SQ] entry:  35 instr_id: 30410291 address: 0xc2f6d588 fetch_issued: true event_cycle: 5472827 LQ waiting: []
[cpu0_SQ] entry:  36 instr_id: 30410320 address: 0xc30ed580 fetch_issued: true event_cycle: 5470472 LQ waiting: []
[cpu0_SQ] entry:  37 instr_id: 30410326 address: 0xc30ed588 fetch_issued: true event_cycle: 5470472 LQ waiting: []
[cpu0_SQ] entry:  38 instr_id: 30410329 address: 0xc306d580 fetch_issued: true event_cycle: 5470472 LQ waiting: []
[cpu0_SQ] entry:  39 instr_id: 30410332 address: 0xc306d588 fetch_issued: true event_cycle: 5470472 LQ waiting: []
[cpu0_SQ] entry:  40 instr_id: 30410361 address: 0xc31ed580 fetch_issued: true event_cycle: 5470474 LQ waiting: []
[cpu0_SQ] entry:  41 instr_id: 30410367 address: 0xc31ed588 fetch_issued: true event_cycle: 5470474 LQ waiting: []
[cpu0_SQ] entry:  42 instr_id: 30410370 address: 0xc316d580 fetch_issued: true event_cycle: 5470474 LQ waiting: []
[cpu0_SQ] entry:  43 instr_id: 30410373 address: 0xc316d588 fetch_issued: true event_cycle: 5470474 LQ waiting: []
[cpu0_SQ] entry:  44 instr_id: 30410402 address: 0xc32ed580 fetch_issued: true event_cycle: 5470476 LQ waiting: []
[cpu0_SQ] entry:  45 instr_i