WARNING: physical memory size is smaller than virtual memory size.

*** ChampSim Multicore Out-of-Order Simulator ***
Warmup Instructions: 30000000
Simulation Instructions: 100000000
Number of CPUs: 1
Page size: 4096

BTB:
Basic BTB sets: 1024 ways: 8
Indirect:
history lengths: 0 0 10 16 27 44 60 96 109 219 449 487 714 1313 2146 3881 
ITTAGE tables: 64768 bytes;Region table: 240 bytes;IUM: 384 bytes;Total Storage= 65392 bytes;
RAS:
RAS size: 64
Berti Prefetcher
CPU 0 Entangling prefetcher
Off-chip DRAM Size: 8 GiB Channels: 2 Width: 64-bit Data Race: 6400 MT/s
Heartbeat CPU 0 instructions: 10000009 cycles: 1717374 heartbeat IPC: 5.823 cumulative IPC: 5.823 (Simulation time: 00 hr 00 min 34 sec)
Heartbeat CPU 0 instructions: 20000001 cycles: 3385400 heartbeat IPC: 5.995 cumulative IPC: 5.908 (Simulation time: 00 hr 01 min 08 sec)
Heartbeat CPU 0 instructions: 30000003 cycles: 5052649 heartbeat IPC: 5.998 cumulative IPC: 5.937 (Simulation time: 00 hr 01 min 41 sec)
Warmup finished CPU 0 instructions: 30000003 cycles: 5052650 cumulative IPC: 5.937 (Simulation time: 00 hr 01 min 41 sec)
Warmup complete CPU 0 instructions: 30000003 cycles: 5052650 cumulative IPC: 5.937 (Simulation time: 00 hr 01 min 41 sec)
Heartbeat CPU 0 instructions: 40000001 cycles: 7141591 heartbeat IPC: 4.787 cumulative IPC: 4.787 (Simulation time: 00 hr 02 min 19 sec)
Heartbeat CPU 0 instructions: 50000004 cycles: 9148659 heartbeat IPC: 4.982 cumulative IPC: 4.883 (Simulation time: 00 hr 02 min 55 sec)
Heartbeat CPU 0 instructions: 60000003 cycles: 11172970 heartbeat IPC: 4.94 cumulative IPC: 4.902 (Simulation time: 00 hr 03 min 32 sec)
Heartbeat CPU 0 instructions: 70000002 cycles: 13210601 heartbeat IPC: 4.908 cumulative IPC: 4.903 (Simulation time: 00 hr 04 min 09 sec)
Heartbeat CPU 0 instructions: 80000003 cycles: 15161799 heartbeat IPC: 5.125 cumulative IPC: 4.946 (Simulation time: 00 hr 04 min 46 sec)
Heartbeat CPU 0 instructions: 90000010 cycles: 17190426 heartbeat IPC: 4.929 cumulative IPC: 4.943 (Simulation time: 00 hr 05 min 23 sec)
Heartbeat CPU 0 instructions: 100000005 cycles: 19173042 heartbeat IPC: 5.044 cumulative IPC: 4.957 (Simulation time: 00 hr 05 min 58 sec)
*** Reached end of trace: (0, "../traces/secret_traces/compute_fp/compute_fp_13.champsimtrace.xz")
Heartbeat CPU 0 instructions: 110000004 cycles: 22178549 heartbeat IPC: 3.327 cumulative IPC: 4.671 (Simulation time: 00 hr 06 min 44 sec)
Heartbeat CPU 0 instructions: 120000008 cycles: 24270724 heartbeat IPC: 4.78 cumulative IPC: 4.683 (Simulation time: 00 hr 07 min 24 sec)
Heartbeat CPU 0 instructions: 130000001 cycles: 26336333 heartbeat IPC: 4.841 cumulative IPC: 4.698 (Simulation time: 00 hr 08 min 05 sec)
Simulation finished CPU 0 instructions: 100000010 cycles: 21283685 cumulative IPC: 4.698 (Simulation time: 00 hr 08 min 05 sec)
Simulation complete CPU 0 instructions: 100000010 cycles: 21283685 cumulative IPC: 4.698 (Simulation time: 00 hr 08 min 05 sec)

ChampSim completed all CPUs

=== Simulation ===
CPU 0 runs ../traces/secret_traces/compute_fp/compute_fp_13.champsimtrace.xz
Region of Interest Statistics

CPU 0 cumulative IPC: 4.698 instructions: 100000010 cycles: 21283685
CPU 0 Branch Prediction Accuracy: 97.07% MPKI: 2.303 Average ROB Occupancy at Mispredict: 30.69
Branch type MPKI
BRANCH_DIRECT_JUMP: 0.00718
BRANCH_INDIRECT: 0.0681
BRANCH_CONDITIONAL: 2.19
BRANCH_DIRECT_CALL: 0.0197
BRANCH_INDIRECT_CALL: 0.00235
BRANCH_RETURN: 0.0109

LLC TOTAL        ACCESS:     111021 HIT:      49339 MISS:      61682
LLC LOAD         ACCESS:      21913 HIT:       2810 MISS:      19103
LLC RFO          ACCESS:      26271 HIT:       8502 MISS:      17769
LLC PREFETCH     ACCESS:      29971 HIT:       5672 MISS:      24299
LLC WRITE        ACCESS:      32429 HIT:      32297 MISS:        132
LLC TRANSLATION  ACCESS:        437 HIT:         58 MISS:        379
LLC PREFETCH REQUESTED:          0 ISSUED:          0 USEFUL:          0 USELESS:          0
LLC AVERAGE MISS LATENCY: 187.5 cycles
cpu0_DTLB TOTAL        ACCESS:   13674822 HIT:   13661872 MISS:      12950
cpu0_DTLB LOAD         ACCESS:   13674822 HIT:   13661872 MISS:      12950
cpu0_DTLB RFO          ACCESS:          0 HIT:          0 MISS:          0
cpu0_DTLB PREFETCH     ACCESS:          0 HIT:          0 MISS:          0
cpu0_DTLB WRITE        ACCESS:          0 HIT:          0 MISS:          0
cpu0_DTLB TRANSLATION  ACCESS:          0 HIT:          0 MISS:          0
cpu0_DTLB PREFETCH REQUESTED:          0 ISSUED:          0 USEFUL:          0 USELESS:          0
cpu0_DTLB AVERAGE MISS LATENCY: 10.77 cycles
cpu0_ITLB TOTAL        ACCESS:     117001 HIT:     115612 MISS:       1389
cpu0_ITLB LOAD         ACCESS:     117001 HIT:     115612 MISS:       1389
cpu0_ITLB RFO          ACCESS:          0 HIT:          0 MISS:          0
cpu0_ITLB PREFETCH     ACCESS:          0 HIT:          0 MISS:          0
cpu0_ITLB WRITE        ACCESS:          0 HIT:          0 MISS:          0
cpu0_ITLB TRANSLATION  ACCESS:          0 HIT:          0 MISS:          0
cpu0_ITLB PREFETCH REQUESTED:          0 ISSUED:          0 USEFUL:          0 USELESS:          0
cpu0_ITLB AVERAGE MISS LATENCY: 19.59 cycles
cpu0_L1D TOTAL        ACCESS:   18367431 HIT:   17279353 MISS:    1088078
cpu0_L1D LOAD         ACCESS:   12969359 HIT:   12448144 MISS:     521215
cpu0_L1D RFO          ACCESS:          0 HIT:          0 MISS:          0
cpu0_L1D PREFETCH     ACCESS:    2116236 HIT:    1674446 MISS:     441790
cpu0_L1D WRITE        ACCESS:    3280953 HIT:    3156490 MISS:     124463
cpu0_L1D TRANSLATION  ACCESS:        883 HIT:        273 MISS:        610
cpu0_L1D PREFETCH REQUESTED:    3851931 ISSUED:    2116236 USEFUL:      17842 USELESS:       6840
cpu0_L1D AVERAGE MISS LATENCY: 10.75 cycles
cpu0_L1I TOTAL        ACCESS:     170196 HIT:     136301 MISS:      33895
cpu0_L1I LOAD         ACCESS:      59488 HIT:      48910 MISS:      10578
cpu0_L1I RFO          ACCESS:          0 HIT:          0 MISS:          0
cpu0_L1I PREFETCH     ACCESS:     110708 HIT:      87391 MISS:      23317
cpu0_L1I WRITE        ACCESS:          0 HIT:          0 MISS:          0
cpu0_L1I TRANSLATION  ACCESS:          0 HIT:          0 MISS:          0
cpu0_L1I PREFETCH REQUESTED:     179144 ISSUED:     110708 USEFUL:      12936 USELESS:       8742
cpu0_L1I AVERAGE MISS LATENCY: 36.33 cycles
cpu0_L2C TOTAL        ACCESS:    1448573 HIT:    1328015 MISS:     120558
cpu0_L2C LOAD         ACCESS:     245295 HIT:     218704 MISS:      26591
cpu0_L2C RFO          ACCESS:      39547 HIT:      13259 MISS:      26288
cpu0_L2C PREFETCH     ACCESS:    1085279 HIT:    1018037 MISS:      67242
cpu0_L2C WRITE        ACCESS:      77843 HIT:      77843 MISS:          0
cpu0_L2C TRANSLATION  ACCESS:        609 HIT:        172 MISS:        437
cpu0_L2C PREFETCH REQUESTED:     684839 ISSUED:     646125 USEFUL:      12208 USELESS:       5554
cpu0_L2C AVERAGE MISS LATENCY: 107.7 cycles
cpu0_STLB TOTAL        ACCESS:       6101 HIT:       5288 MISS:        813
cpu0_STLB LOAD         ACCESS:       6101 HIT:       5288 MISS:        813
cpu0_STLB RFO          ACCESS:          0 HIT:          0 MISS:          0
cpu0_STLB PREFETCH     ACCESS:          0 HIT:          0 MISS:          0
cpu0_STLB WRITE        ACCESS:          0 HIT:          0 MISS:          0
cpu0_STLB TRANSLATION  ACCESS:          0 HIT:          0 MISS:          0
cpu0_STLB PREFETCH REQUESTED:          0 ISSUED:          0 USEFUL:          0 USELESS:          0
cpu0_STLB AVERAGE MISS LATENCY: 189.4 cycles

DRAM Statistics

Channel 0 RQ ROW_BUFFER_HIT:      16503
  ROW_BUFFER_MISS:      14433
 AVG DBUS CONGESTED CYCLE: 3.9
WQ ROW_BUFFER_HIT: Channel 0 
  ROW_BUFFER_MISS:       1429
  FULL:      10955

Channel 1 RQ ROW_BUFFER_HIT:      16350
  ROW_BUFFER_MISS:      14242
 AVG DBUS CONGESTED CYCLE: 3.889
WQ ROW_BUFFER_HIT: Channel 1 
  ROW_BUFFER_MISS:       1573
  FULL:      10573
BERTI TO_L1: 1301127 TO_L2: 4379489 TO_L2_BC_MSHR: 716574
BERTI AVG_LAT: 25.0158 NUM_TRACK_LATENCY: 359399 NUM_CANT_TRACK_LATENCY: 0
BERTI CROSS_PAGE 731376 NO_CROSS_PAGE: 4949240
BERTI FOUND_BERTI: 8819778 NO_FOUND_BERTI: 8633350
BERTI AVERAGE_ISSUED: 3.01922
CPU 0 L1I Entangling prefetcher final stats
IP accesses: 5aeb 16bac0 241 / 59760
IP misses: 54af 152bc0 32 / 10850
IP hits: 0 0 0 / 0
IP late: 5a81 16a040 12 / 5201
IP wrong: 2172 85c80 22 / 8692
miss rate: 0.18156
coverage: 0
coverage_late: 0.479355
accuracy: 0
accuracy_late: 0.374362
discarded: 0
evicts entangled j table: 0
evicts entangled k table: 1703
max bb size: 65
formats: 422 0 1422 729 321 683 0 
hist_lookups: 1089 1259 1085 1018 936 793 609 439 317 254 205 126 74 38 13 0 0 2357 
hist_lookups_evict: 0 %
hist_lookups_shortlat: 22.2108 %
bb_found_hist: 0 14517 6227 2681 1079 673 390 76 73 29 11 4 12 0 3 0 17 0 0 39 19 0 1 0 0 0 0 6 0 0 0 0 0 0 0 0 0 0 0 0 0 0 0 0 0 0 0 0 0 0 0 0 0 0 0 0 0 0 0 0 0 0 0 0 
bb_found_summary: 48329 25857 1.86909
entangled_found_hist: 0 8055 5318 10099 1835 577 38 0 
entangled_found_summary: 59441 25922 2.29308
bb_ent_found_hist: 0 20715 10043 5312 2359 1762 857 210 168 67 22 0 0 0 0 0 0 0 0 0 39 0 0 0 0 0 0 90 0 0 0 0 0 0 0 0 0 0 0 0 0 0 0 0 0 0 0 0 0 0 0 0 0 0 0 0 0 0 0 0 0 0 0 0 
bb_ent_found_summary: 86972 41644 2.08847
