WARNING: physical memory size is smaller than virtual memory size.

*** ChampSim Multicore Out-of-Order Simulator ***
Warmup Instructions: 30000000
Simulation Instructions: 100000000
Number of CPUs: 1
Page size: 4096

BTB:
Basic BTB sets: 1024 ways: 8
Indirect:
history lengths: 0 0 10 16 27 44 60 96 109 219 449 487 714 1313 2146 3881 
ITTAGE tables: 64768 bytes;Region table: 240 bytes;IUM: 384 bytes;Total Storage= 65392 bytes;
RAS:
RAS size: 64
Berti Prefetcher
CPU 0 Entangling prefetcher
Off-chip DRAM Size: 8 GiB Channels: 2 Width: 64-bit Data Race: 6400 MT/s
Heartbeat CPU 0 instructions: 10000002 cycles: 1714791 heartbeat IPC: 5.832 cumulative IPC: 5.832 (Simulation time: 00 hr 00 min 32 sec)
Heartbeat CPU 0 instructions: 20000006 cycles: 3431123 heartbeat IPC: 5.826 cumulative IPC: 5.829 (Simulation time: 00 hr 01 min 03 sec)
Heartbeat CPU 0 instructions: 30000002 cycles: 5097854 heartbeat IPC: 6 cumulative IPC: 5.885 (Simulation time: 00 hr 01 min 33 sec)
Warmup finished CPU 0 instructions: 30000002 cycles: 5097855 cumulative IPC: 5.885 (Simulation time: 00 hr 01 min 33 sec)
Warmup complete CPU 0 instructions: 30000002 cycles: 5097855 cumulative IPC: 5.885 (Simulation time: 00 hr 01 min 33 sec)
Heartbeat CPU 0 instructions: 40000002 cycles: 6765799 heartbeat IPC: 5.995 cumulative IPC: 5.995 (Simulation time: 00 hr 02 min 08 sec)
Heartbeat CPU 0 instructions: 50000007 cycles: 8433714 heartbeat IPC: 5.996 cumulative IPC: 5.995 (Simulation time: 00 hr 02 min 42 sec)
*** Reached end of trace: (0, "../traces/secret_traces/crypto/crypto31.champsimtrace.xz")
Heartbeat CPU 0 instructions: 60000006 cycles: 10719621 heartbeat IPC: 4.375 cumulative IPC: 5.336 (Simulation time: 00 hr 03 min 23 sec)
Heartbeat CPU 0 instructions: 70000009 cycles: 12694936 heartbeat IPC: 5.062 cumulative IPC: 5.265 (Simulation time: 00 hr 04 min 01 sec)
Heartbeat CPU 0 instructions: 80000005 cycles: 15245897 heartbeat IPC: 3.92 cumulative IPC: 4.927 (Simulation time: 00 hr 04 min 48 sec)
Heartbeat CPU 0 instructions: 90000001 cycles: 16929865 heartbeat IPC: 5.938 cumulative IPC: 5.071 (Simulation time: 00 hr 05 min 23 sec)
Heartbeat CPU 0 instructions: 100000004 cycles: 18597587 heartbeat IPC: 5.996 cumulative IPC: 5.185 (Simulation time: 00 hr 05 min 58 sec)
Heartbeat CPU 0 instructions: 110000009 cycles: 20265938 heartbeat IPC: 5.994 cumulative IPC: 5.274 (Simulation time: 00 hr 06 min 32 sec)
*** Reached end of trace: (0, "../traces/secret_traces/crypto/crypto31.champsimtrace.xz")
Heartbeat CPU 0 instructions: 120000005 cycles: 22652757 heartbeat IPC: 4.19 cumulative IPC: 5.127 (Simulation time: 00 hr 07 min 16 sec)
Heartbeat CPU 0 instructions: 130000005 cycles: 24393278 heartbeat IPC: 5.745 cumulative IPC: 5.183 (Simulation time: 00 hr 07 min 52 sec)
Simulation finished CPU 0 instructions: 100000003 cycles: 19295424 cumulative IPC: 5.183 (Simulation time: 00 hr 07 min 52 sec)
Simulation complete CPU 0 instructions: 100000003 cycles: 19295424 cumulative IPC: 5.183 (Simulation time: 00 hr 07 min 52 sec)

ChampSim completed all CPUs

=== Simulation ===
CPU 0 runs ../traces/secret_traces/crypto/crypto31.champsimtrace.xz
Region of Interest Statistics

CPU 0 cumulative IPC: 5.183 instructions: 100000003 cycles: 19295424
CPU 0 Branch Prediction Accuracy: 99.69% MPKI: 0.4352 Average ROB Occupancy at Mispredict: 32.01
Branch type MPKI
BRANCH_DIRECT_JUMP: 0.0225
BRANCH_INDIRECT: 0.215
BRANCH_CONDITIONAL: 0.0934
BRANCH_DIRECT_CALL: 0.062
BRANCH_INDIRECT_CALL: 0.00824
BRANCH_RETURN: 0.0342

LLC TOTAL        ACCESS:     153693 HIT:      81310 MISS:      72383
LLC LOAD         ACCESS:      17947 HIT:       4532 MISS:      13415
LLC RFO          ACCESS:      43780 HIT:      10960 MISS:      32820
LLC PREFETCH     ACCESS:      38201 HIT:      13213 MISS:      24988
LLC WRITE        ACCESS:      52789 HIT:      52448 MISS:        341
LLC TRANSLATION  ACCESS:        976 HIT:        157 MISS:        819
LLC PREFETCH REQUESTED:          0 ISSUED:          0 USEFUL:          0 USELESS:          0
LLC AVERAGE MISS LATENCY: 270.1 cycles
cpu0_DTLB TOTAL        ACCESS:   10196762 HIT:   10181404 MISS:      15358
cpu0_DTLB LOAD         ACCESS:   10196762 HIT:   10181404 MISS:      15358
cpu0_DTLB RFO          ACCESS:          0 HIT:          0 MISS:          0
cpu0_DTLB PREFETCH     ACCESS:          0 HIT:          0 MISS:          0
cpu0_DTLB WRITE        ACCESS:          0 HIT:          0 MISS:          0
cpu0_DTLB TRANSLATION  ACCESS:          0 HIT:          0 MISS:          0
cpu0_DTLB PREFETCH REQUESTED:          0 ISSUED:          0 USEFUL:          0 USELESS:          0
cpu0_DTLB AVERAGE MISS LATENCY: 16.42 cycles
cpu0_ITLB TOTAL        ACCESS:     297140 HIT:     290920 MISS:       6220
cpu0_ITLB LOAD         ACCESS:     297140 HIT:     290920 MISS:       6220
cpu0_ITLB RFO          ACCESS:          0 HIT:          0 MISS:          0
cpu0_ITLB PREFETCH     ACCESS:          0 HIT:          0 MISS:          0
cpu0_ITLB WRITE        ACCESS:          0 HIT:          0 MISS:          0
cpu0_ITLB TRANSLATION  ACCESS:          0 HIT:          0 MISS:          0
cpu0_ITLB PREFETCH REQUESTED:          0 ISSUED:          0 USEFUL:          0 USELESS:          0
cpu0_ITLB AVERAGE MISS LATENCY: 22.31 cycles
cpu0_L1D TOTAL        ACCESS:   17227510 HIT:   17006724 MISS:     220786
cpu0_L1D LOAD         ACCESS:    5208868 HIT:    5149783 MISS:      59085
cpu0_L1D RFO          ACCESS:          0 HIT:          0 MISS:          0
cpu0_L1D PREFETCH     ACCESS:     284220 HIT:     236959 MISS:      47261
cpu0_L1D WRITE        ACCESS:   11732400 HIT:   11619241 MISS:     113159
cpu0_L1D TRANSLATION  ACCESS:       2022 HIT:        741 MISS:       1281
cpu0_L1D PREFETCH REQUESTED:    2726637 ISSUED:     284220 USEFUL:       3957 USELESS:        574
cpu0_L1D AVERAGE MISS LATENCY: 75.98 cycles
cpu0_L1I TOTAL        ACCESS:     431232 HIT:     359345 MISS:      71887
cpu0_L1I LOAD         ACCESS:     143167 HIT:     124823 MISS:      18344
cpu0_L1I RFO          ACCESS:          0 HIT:          0 MISS:          0
cpu0_L1I PREFETCH     ACCESS:     288065 HIT:     234522 MISS:      53543
cpu0_L1I WRITE        ACCESS:          0 HIT:          0 MISS:          0
cpu0_L1I TRANSLATION  ACCESS:          0 HIT:          0 MISS:          0
cpu0_L1I PREFETCH REQUESTED:     437089 ISSUED:     288065 USEFUL:      28850 USELESS:      21811
cpu0_L1I AVERAGE MISS LATENCY: 36.75 cycles
cpu0_L2C TOTAL        ACCESS:     390345 HIT:     255637 MISS:     134708
cpu0_L2C LOAD         ACCESS:      52116 HIT:      29456 MISS:      22660
cpu0_L2C RFO          ACCESS:      48428 HIT:       4541 MISS:      43887
cpu0_L2C PREFETCH     ACCESS:     230592 HIT:     163407 MISS:      67185
cpu0_L2C WRITE        ACCESS:      57988 HIT:      57988 MISS:          0
cpu0_L2C TRANSLATION  ACCESS:       1221 HIT:        245 MISS:        976
cpu0_L2C PREFETCH REQUESTED:     144947 ISSUED:     137777 USEFUL:      12201 USELESS:       8773
cpu0_L2C AVERAGE MISS LATENCY: 157.5 cycles
cpu0_STLB TOTAL        ACCESS:      10108 HIT:       8242 MISS:       1866
cpu0_STLB LOAD         ACCESS:      10108 HIT:       8242 MISS:       1866
cpu0_STLB RFO          ACCESS:          0 HIT:          0 MISS:          0
cpu0_STLB PREFETCH     ACCESS:          0 HIT:          0 MISS:          0
cpu0_STLB WRITE        ACCESS:          0 HIT:          0 MISS:          0
cpu0_STLB TRANSLATION  ACCESS:          0 HIT:          0 MISS:          0
cpu0_STLB PREFETCH REQUESTED:          0 ISSUED:          0 USEFUL:          0 USELESS:          0
cpu0_STLB AVERAGE MISS LATENCY: 189.1 cycles

DRAM Statistics

Channel 0 RQ ROW_BUFFER_HIT:      15350
  ROW_BUFFER_MISS:      20985
 AVG DBUS CONGESTED CYCLE: 3.941
WQ ROW_BUFFER_HIT: Channel 0 
  ROW_BUFFER_MISS:       2339
  FULL:      17843

Channel 1 RQ ROW_BUFFER_HIT:      15004
  ROW_BUFFER_MISS:      20683
 AVG DBUS CONGESTED CYCLE: 3.932
WQ ROW_BUFFER_HIT: Channel 1 
  ROW_BUFFER_MISS:       2471
  FULL:      16971
BERTI TO_L1: 787580 TO_L2: 2420137 TO_L2_BC_MSHR: 1379153
BERTI AVG_LAT: 93.8656 NUM_TRACK_LATENCY: 75457 NUM_CANT_TRACK_LATENCY: 0
BERTI CROSS_PAGE 614129 NO_CROSS_PAGE: 2593588
BERTI FOUND_BERTI: 571420 NO_FOUND_BERTI: 6862992
BERTI AVERAGE_ISSUED: 4.47046
CPU 0 L1I Entangling prefetcher final stats
IP accesses: 6f71 1bdc40 866 / 143472
IP misses: e9da 3a7680 105 / 18649
IP hits: 0 0 0 / 0
IP late: f9ad 3e6b40 24 / 8905
IP wrong: f801 3e0040 48 / 21721
miss rate: 0.129984
coverage: 0
coverage_late: 0.477506
accuracy: 0
accuracy_late: 0.290767
discarded: 0
evicts entangled j table: 0
evicts entangled k table: 3074
max bb size: 53
formats: 765 0 2683 1384 602 1304 0 
hist_lookups: 2546 2658 1905 1759 1498 1239 947 739 534 452 290 188 138 80 40 0 3 3459 
hist_lookups_evict: 0.0162382 %
hist_lookups_shortlat: 18.7226 %
bb_found_hist: 0 34951 14676 7969 3268 1691 755 529 188 46 0 54 36 20 12 15 2 0 0 0 0 4 0 0 0 0 0 0 0 0 0 2 0 0 2 0 0 0 0 0 0 0 0 0 0 0 0 0 0 0 0 0 0 2 0 0 0 0 0 0 0 0 0 0 
bb_found_summary: 121919 64222 1.8984
entangled_found_hist: 0 19304 12804 25100 4374 815 399 0 
entangled_found_summary: 144177 62796 2.29596
bb_ent_found_hist: 0 46762 20436 15768 6206 3197 1545 681 579 22 0 162 56 5 17 87 74 0 0 0 0 9 0 0 0 0 0 0 0 0 0 2 0 0 3 0 0 0 0 0 0 0 0 0 0 0 0 0 0 0 0 0 0 3 0 0 0 0 0 0 0 0 0 0 
bb_ent_found_summary: 200372 95614 2.09564
