WARNING: physical memory size is smaller than virtual memory size.

*** ChampSim Multicore Out-of-Order Simulator ***
Warmup Instructions: 30000000
Simulation Instructions: 100000000
Number of CPUs: 1
Page size: 4096

BTB:
Basic BTB sets: 1024 ways: 8
Indirect:
history lengths: 0 0 10 16 27 44 60 96 109 219 449 487 714 1313 2146 3881 
ITTAGE tables: 64768 bytes;Region table: 240 bytes;IUM: 384 bytes;Total Storage= 65392 bytes;
RAS:
RAS size: 64
Berti Prefetcher
CPU 0 Entangling prefetcher
Off-chip DRAM Size: 8 GiB Channels: 2 Width: 64-bit Data Race: 6400 MT/s
Heartbeat CPU 0 instructions: 10000009 cycles: 1769335 heartbeat IPC: 5.652 cumulative IPC: 5.652 (Simulation time: 00 hr 00 min 33 sec)
Heartbeat CPU 0 instructions: 20000000 cycles: 3559656 heartbeat IPC: 5.586 cumulative IPC: 5.619 (Simulation time: 00 hr 01 min 07 sec)
Heartbeat CPU 0 instructions: 30000006 cycles: 5306470 heartbeat IPC: 5.725 cumulative IPC: 5.653 (Simulation time: 00 hr 01 min 40 sec)
Warmup finished CPU 0 instructions: 30000006 cycles: 5306471 cumulative IPC: 5.653 (Simulation time: 00 hr 01 min 40 sec)
Warmup complete CPU 0 instructions: 30000006 cycles: 5306471 cumulative IPC: 5.653 (Simulation time: 00 hr 01 min 40 sec)
Heartbeat CPU 0 instructions: 40000004 cycles: 7059573 heartbeat IPC: 5.704 cumulative IPC: 5.704 (Simulation time: 00 hr 02 min 17 sec)
Heartbeat CPU 0 instructions: 50000007 cycles: 8814834 heartbeat IPC: 5.697 cumulative IPC: 5.701 (Simulation time: 00 hr 02 min 55 sec)
Heartbeat CPU 0 instructions: 60000003 cycles: 10576408 heartbeat IPC: 5.677 cumulative IPC: 5.693 (Simulation time: 00 hr 03 min 33 sec)
Heartbeat CPU 0 instructions: 70000004 cycles: 12330310 heartbeat IPC: 5.702 cumulative IPC: 5.695 (Simulation time: 00 hr 04 min 14 sec)
Heartbeat CPU 0 instructions: 80000003 cycles: 14082253 heartbeat IPC: 5.708 cumulative IPC: 5.697 (Simulation time: 00 hr 04 min 52 sec)
Heartbeat CPU 0 instructions: 90000009 cycles: 15833953 heartbeat IPC: 5.709 cumulative IPC: 5.699 (Simulation time: 00 hr 05 min 29 sec)
Heartbeat CPU 0 instructions: 100000002 cycles: 17587465 heartbeat IPC: 5.703 cumulative IPC: 5.7 (Simulation time: 00 hr 06 min 08 sec)
Heartbeat CPU 0 instructions: 110000002 cycles: 19339711 heartbeat IPC: 5.707 cumulative IPC: 5.701 (Simulation time: 00 hr 06 min 50 sec)
Heartbeat CPU 0 instructions: 120000000 cycles: 21092904 heartbeat IPC: 5.704 cumulative IPC: 5.701 (Simulation time: 00 hr 07 min 27 sec)
Heartbeat CPU 0 instructions: 130000004 cycles: 22845455 heartbeat IPC: 5.706 cumulative IPC: 5.702 (Simulation time: 00 hr 08 min 04 sec)
Simulation finished CPU 0 instructions: 100000003 cycles: 17538986 cumulative IPC: 5.702 (Simulation time: 00 hr 08 min 04 sec)
Simulation complete CPU 0 instructions: 100000003 cycles: 17538986 cumulative IPC: 5.702 (Simulation time: 00 hr 08 min 04 sec)

ChampSim completed all CPUs

=== Simulation ===
CPU 0 runs ../traces/secret_traces/crypto/crypto12.champsimtrace.xz
Region of Interest Statistics

CPU 0 cumulative IPC: 5.702 instructions: 100000003 cycles: 17538986
CPU 0 Branch Prediction Accuracy: 100% MPKI: 0.00197 Average ROB Occupancy at Mispredict: 50.77
Branch type MPKI
BRANCH_DIRECT_JUMP: 7e-05
BRANCH_INDIRECT: 0.00082
BRANCH_CONDITIONAL: 0.00046
BRANCH_DIRECT_CALL: 0.00024
BRANCH_INDIRECT_CALL: 4e-05
BRANCH_RETURN: 0.00034

LLC TOTAL        ACCESS:        524 HIT:        333 MISS:        191
LLC LOAD         ACCESS:         91 HIT:         35 MISS:         56
LLC RFO          ACCESS:          4 HIT:          3 MISS:          1
LLC PREFETCH     ACCESS:        222 HIT:         96 MISS:        126
LLC WRITE        ACCESS:        197 HIT:        197 MISS:          0
LLC TRANSLATION  ACCESS:         10 HIT:          2 MISS:          8
LLC PREFETCH REQUESTED:          0 ISSUED:          0 USEFUL:          0 USELESS:          0
LLC AVERAGE MISS LATENCY: 217.8 cycles
cpu0_DTLB TOTAL        ACCESS:   10401830 HIT:   10401608 MISS:        222
cpu0_DTLB LOAD         ACCESS:   10401830 HIT:   10401608 MISS:        222
cpu0_DTLB RFO          ACCESS:          0 HIT:          0 MISS:          0
cpu0_DTLB PREFETCH     ACCESS:          0 HIT:          0 MISS:          0
cpu0_DTLB WRITE        ACCESS:          0 HIT:          0 MISS:          0
cpu0_DTLB TRANSLATION  ACCESS:          0 HIT:          0 MISS:          0
cpu0_DTLB PREFETCH REQUESTED:          0 ISSUED:          0 USEFUL:          0 USELESS:          0
cpu0_DTLB AVERAGE MISS LATENCY: 12.33 cycles
cpu0_ITLB TOTAL        ACCESS:   10795969 HIT:   10795949 MISS:         20
cpu0_ITLB LOAD         ACCESS:   10795969 HIT:   10795949 MISS:         20
cpu0_ITLB RFO          ACCESS:          0 HIT:          0 MISS:          0
cpu0_ITLB PREFETCH     ACCESS:          0 HIT:          0 MISS:          0
cpu0_ITLB WRITE        ACCESS:          0 HIT:          0 MISS:          0
cpu0_ITLB TRANSLATION  ACCESS:          0 HIT:          0 MISS:          0
cpu0_ITLB PREFETCH REQUESTED:          0 ISSUED:          0 USEFUL:          0 USELESS:          0
cpu0_ITLB AVERAGE MISS LATENCY: 56.65 cycles
cpu0_L1D TOTAL        ACCESS:   13883082 HIT:   13882907 MISS:        175
cpu0_L1D LOAD         ACCESS:    6503607 HIT:    6503446 MISS:        161
cpu0_L1D RFO          ACCESS:          0 HIT:          0 MISS:          0
cpu0_L1D PREFETCH     ACCESS:          0 HIT:          0 MISS:          0
cpu0_L1D WRITE        ACCESS:    7379465 HIT:    7379461 MISS:          4
cpu0_L1D TRANSLATION  ACCESS:         10 HIT:          0 MISS:         10
cpu0_L1D PREFETCH REQUESTED:          0 ISSUED:          0 USEFUL:          0 USELESS:          0
cpu0_L1D AVERAGE MISS LATENCY: 56.36 cycles
cpu0_L1I TOTAL        ACCESS:   15863720 HIT:   15858400 MISS:       5320
cpu0_L1I LOAD         ACCESS:    7663768 HIT:    7660329 MISS:       3439
cpu0_L1I RFO          ACCESS:          0 HIT:          0 MISS:          0
cpu0_L1I PREFETCH     ACCESS:    8199952 HIT:    8198071 MISS:       1881
cpu0_L1I WRITE        ACCESS:          0 HIT:          0 MISS:          0
cpu0_L1I TRANSLATION  ACCESS:          0 HIT:          0 MISS:          0
cpu0_L1I PREFETCH REQUESTED:   29085931 ISSUED:    8199952 USEFUL:       1004 USELESS:        688
cpu0_L1I AVERAGE MISS LATENCY: 8.43 cycles
cpu0_L2C TOTAL        ACCESS:       7941 HIT:       7574 MISS:        367
cpu0_L2C LOAD         ACCESS:       2425 HIT:       2331 MISS:         94
cpu0_L2C RFO          ACCESS:          4 HIT:          0 MISS:          4
cpu0_L2C PREFETCH     ACCESS:       5436 HIT:       5177 MISS:        259
cpu0_L2C WRITE        ACCESS:         66 HIT:         66 MISS:          0
cpu0_L2C TRANSLATION  ACCESS:         10 HIT:          0 MISS:         10
cpu0_L2C PREFETCH REQUESTED:       4074 ISSUED:       3787 USEFUL:         30 USELESS:         16
cpu0_L2C AVERAGE MISS LATENCY: 130.8 cycles
cpu0_STLB TOTAL        ACCESS:        157 HIT:        150 MISS:          7
cpu0_STLB LOAD         ACCESS:        157 HIT:        150 MISS:          7
cpu0_STLB RFO          ACCESS:          0 HIT:          0 MISS:          0
cpu0_STLB PREFETCH     ACCESS:          0 HIT:          0 MISS:          0
cpu0_STLB WRITE        ACCESS:          0 HIT:          0 MISS:          0
cpu0_STLB TRANSLATION  ACCESS:          0 HIT:          0 MISS:          0
cpu0_STLB PREFETCH REQUESTED:          0 ISSUED:          0 USEFUL:          0 USELESS:          0
cpu0_STLB AVERAGE MISS LATENCY: 409.4 cycles

DRAM Statistics

Channel 0 RQ ROW_BUFFER_HIT:         12
  ROW_BUFFER_MISS:         88
 AVG DBUS CONGESTED CYCLE: 3.819
WQ ROW_BUFFER_HIT: Channel 0 
  ROW_BUFFER_MISS:         19
  FULL:         23

Channel 1 RQ ROW_BUFFER_HIT:         12
  ROW_BUFFER_MISS:         79
 AVG DBUS CONGESTED CYCLE: 3.786
WQ ROW_BUFFER_HIT: Channel 1 
  ROW_BUFFER_MISS:         11
  FULL:         30
BERTI TO_L1: 336604 TO_L2: 113905 TO_L2_BC_MSHR: 7696
BERTI AVG_LAT: 20.7679 NUM_TRACK_LATENCY: 31462 NUM_CANT_TRACK_LATENCY: 0
BERTI CROSS_PAGE 86126 NO_CROSS_PAGE: 364383
BERTI FOUND_BERTI: 361114 NO_FOUND_BERTI: 8731821
BERTI AVERAGE_ISSUED: 4.56805
CPU 0 L1I Entangling prefetcher final stats
IP accesses: 1f31 7cc40 449384 / 7663797
IP misses: 3cb9 f2e40 36 / 3468
IP hits: 0 0 0 / 0
IP late: 3aef ebbc0 9 / 1402
IP wrong: f9e8 3e7a00 10 / 676
miss rate: 0.000452518
coverage: 0
coverage_late: 0.404268
accuracy: 0
accuracy_late: 0.674688
discarded: 0
evicts entangled j table: 0
evicts entangled k table: 373
max bb size: 56
formats: 39 0 313 81 54 82 0 
hist_lookups: 60 154 208 258 259 263 185 111 91 66 54 57 23 8 0 0 0 2454 
hist_lookups_evict: 0 %
hist_lookups_shortlat: 57.7276 %
bb_found_hist: 0 1450064 307318 357217 95300 47671 49 6 3967 0 34794 15 10226 0 0 0 0 0 0 0 14190 0 0 23791 0 3963 0 11633 0 0 0 0 0 0 0 0 0 0 0 0 0 0 0 0 0 0 0 0 0 0 0 0 0 0 0 0 23787 0 0 0 0 0 0 0 
bb_found_summary: 6835026 2383991 2.86706
entangled_found_hist: 0 525042 436204 1650521 105616 32940 14732 0 
entangled_found_summary: 7024569 2765055 2.54049
bb_ent_found_hist: 0 2825517 322379 694332 237386 188023 233 88 21 0 54624 23 10228 0 0 0 0 0 0 0 0 0 0 0 0 3963 0 0 0 0 0 0 0 0 0 0 0 0 0 0 0 0 0 0 0 0 0 0 0 0 0 0 0 0 0 0 125289 0 0 0 0 0 0 0 
bb_ent_found_summary: 15229600 4462106 3.4131
