WARNING: physical memory size is smaller than virtual memory size.

*** ChampSim Multicore Out-of-Order Simulator ***
Warmup Instructions: 30000000
Simulation Instructions: 100000000
Number of CPUs: 1
Page size: 4096

BTB:
Basic BTB sets: 1024 ways: 8
Indirect:
history lengths: 0 0 10 16 27 44 60 96 109 219 449 487 714 1313 2146 3881 
ITTAGE tables: 64768 bytes;Region table: 240 bytes;IUM: 384 bytes;Total Storage= 65392 bytes;
RAS:
RAS size: 64
Berti Prefetcher
CPU 0 Entangling prefetcher
Off-chip DRAM Size: 8 GiB Channels: 2 Width: 64-bit Data Race: 6400 MT/s
Heartbeat CPU 0 instructions: 10000006 cycles: 2076758 heartbeat IPC: 4.815 cumulative IPC: 4.815 (Simulation time: 00 hr 00 min 56 sec)
Heartbeat CPU 0 instructions: 20000002 cycles: 4107456 heartbeat IPC: 4.924 cumulative IPC: 4.869 (Simulation time: 00 hr 01 min 54 sec)
Heartbeat CPU 0 instructions: 30000006 cycles: 5913353 heartbeat IPC: 5.537 cumulative IPC: 5.073 (Simulation time: 00 hr 02 min 44 sec)
Warmup finished CPU 0 instructions: 30000006 cycles: 5913354 cumulative IPC: 5.073 (Simulation time: 00 hr 02 min 44 sec)
Warmup complete CPU 0 instructions: 30000006 cycles: 5913354 cumulative IPC: 5.073 (Simulation time: 00 hr 02 min 44 sec)
Heartbeat CPU 0 instructions: 40000000 cycles: 13189512 heartbeat IPC: 1.374 cumulative IPC: 1.374 (Simulation time: 00 hr 04 min 15 sec)
Heartbeat CPU 0 instructions: 50000004 cycles: 19603773 heartbeat IPC: 1.559 cumulative IPC: 1.461 (Simulation time: 00 hr 05 min 45 sec)
Heartbeat CPU 0 instructions: 60000004 cycles: 25077232 heartbeat IPC: 1.827 cumulative IPC: 1.565 (Simulation time: 00 hr 07 min 11 sec)
Heartbeat CPU 0 instructions: 70000011 cycles: 30025019 heartbeat IPC: 2.021 cumulative IPC: 1.659 (Simulation time: 00 hr 08 min 36 sec)
Heartbeat CPU 0 instructions: 80000001 cycles: 33110650 heartbeat IPC: 3.241 cumulative IPC: 1.838 (Simulation time: 00 hr 09 min 36 sec)
Heartbeat CPU 0 instructions: 90000001 cycles: 35997246 heartbeat IPC: 3.464 cumulative IPC: 1.994 (Simulation time: 00 hr 10 min 35 sec)
Heartbeat CPU 0 instructions: 100000005 cycles: 40622840 heartbeat IPC: 2.162 cumulative IPC: 2.017 (Simulation time: 00 hr 11 min 47 sec)
*** Reached end of trace: (0, "../traces/secret_traces/crypto/crypto100.champsimtrace.xz")
Heartbeat CPU 0 instructions: 110000007 cycles: 48562654 heartbeat IPC: 1.259 cumulative IPC: 1.876 (Simulation time: 00 hr 13 min 49 sec)
Heartbeat CPU 0 instructions: 120000000 cycles: 59487767 heartbeat IPC: 0.9153 cumulative IPC: 1.68 (Simulation time: 00 hr 16 min 13 sec)
Heartbeat CPU 0 instructions: 130000000 cycles: 67268484 heartbeat IPC: 1.285 cumulative IPC: 1.63 (Simulation time: 00 hr 17 min 35 sec)
Simulation finished CPU 0 instructions: 100000007 cycles: 61355133 cumulative IPC: 1.63 (Simulation time: 00 hr 17 min 35 sec)
Simulation complete CPU 0 instructions: 100000007 cycles: 61355133 cumulative IPC: 1.63 (Simulation time: 00 hr 17 min 35 sec)

ChampSim completed all CPUs

=== Simulation ===
CPU 0 runs ../traces/secret_traces/crypto/crypto100.champsimtrace.xz
Region of Interest Statistics

CPU 0 cumulative IPC: 1.63 instructions: 100000007 cycles: 61355133
CPU 0 Branch Prediction Accuracy: 94.21% MPKI: 10.65 Average ROB Occupancy at Mispredict: 24.3
Branch type MPKI
BRANCH_DIRECT_JUMP: 0.505
BRANCH_INDIRECT: 3.97
BRANCH_CONDITIONAL: 3.56
BRANCH_DIRECT_CALL: 0.925
BRANCH_INDIRECT_CALL: 0.658
BRANCH_RETURN: 1.03

LLC TOTAL        ACCESS:    1693085 HIT:     908312 MISS:     784773
LLC LOAD         ACCESS:     281909 HIT:     104249 MISS:     177660
LLC RFO          ACCESS:     437842 HIT:     125065 MISS:     312777
LLC PREFETCH     ACCESS:     462729 HIT:     187823 MISS:     274906
LLC WRITE        ACCESS:     492960 HIT:     488540 MISS:       4420
LLC TRANSLATION  ACCESS:      17645 HIT:       2635 MISS:      15010
LLC PREFETCH REQUESTED:          0 ISSUED:          0 USEFUL:          0 USELESS:          0
LLC AVERAGE MISS LATENCY: 250.8 cycles
cpu0_DTLB TOTAL        ACCESS:   19376797 HIT:   19060804 MISS:     315993
cpu0_DTLB LOAD         ACCESS:   19376797 HIT:   19060804 MISS:     315993
cpu0_DTLB RFO          ACCESS:          0 HIT:          0 MISS:          0
cpu0_DTLB PREFETCH     ACCESS:          0 HIT:          0 MISS:          0
cpu0_DTLB WRITE        ACCESS:          0 HIT:          0 MISS:          0
cpu0_DTLB TRANSLATION  ACCESS:          0 HIT:          0 MISS:          0
cpu0_DTLB PREFETCH REQUESTED:          0 ISSUED:          0 USEFUL:          0 USELESS:          0
cpu0_DTLB AVERAGE MISS LATENCY: 12.93 cycles
cpu0_ITLB TOTAL        ACCESS:    8835750 HIT:    8739256 MISS:      96494
cpu0_ITLB LOAD         ACCESS:    8835750 HIT:    8739256 MISS:      96494
cpu0_ITLB RFO          ACCESS:          0 HIT:          0 MISS:          0
cpu0_ITLB PREFETCH     ACCESS:          0 HIT:          0 MISS:          0
cpu0_ITLB WRITE        ACCESS:          0 HIT:          0 MISS:          0
cpu0_ITLB TRANSLATION  ACCESS:          0 HIT:          0 MISS:          0
cpu0_ITLB PREFETCH REQUESTED:          0 ISSUED:          0 USEFUL:          0 USELESS:          0
cpu0_ITLB AVERAGE MISS LATENCY: 17.05 cycles
cpu0_L1D TOTAL        ACCESS:   30159796 HIT:   26670520 MISS:    3489276
cpu0_L1D LOAD         ACCESS:   18018044 HIT:   16716080 MISS:    1301964
cpu0_L1D RFO          ACCESS:          0 HIT:          0 MISS:          0
cpu0_L1D PREFETCH     ACCESS:    1043334 HIT:     725323 MISS:     318011
cpu0_L1D WRITE        ACCESS:   11068464 HIT:    9221819 MISS:    1846645
cpu0_L1D TRANSLATION  ACCESS:      29954 HIT:       7298 MISS:      22656
cpu0_L1D PREFETCH REQUESTED:   22794545 ISSUED:    1043334 USEFUL:      48490 USELESS:       5216
cpu0_L1D AVERAGE MISS LATENCY: 47.5 cycles
cpu0_L1I TOTAL        ACCESS:   12854895 HIT:   10640564 MISS:    2214331
cpu0_L1I LOAD         ACCESS:    4663434 HIT:    3839913 MISS:     823521
cpu0_L1I RFO          ACCESS:          0 HIT:          0 MISS:          0
cpu0_L1I PREFETCH     ACCESS:    8191461 HIT:    6800651 MISS:    1390810
cpu0_L1I WRITE        ACCESS:          0 HIT:          0 MISS:          0
cpu0_L1I TRANSLATION  ACCESS:          0 HIT:          0 MISS:          0
cpu0_L1I PREFETCH REQUESTED:   14005868 ISSUED:    8191461 USEFUL:     715962 USELESS:     577035
cpu0_L1I AVERAGE MISS LATENCY: 18.01 cycles
cpu0_L2C TOTAL        ACCESS:    7067740 HIT:    5477408 MISS:    1590332
cpu0_L2C LOAD         ACCESS:    1396638 HIT:    1050168 MISS:     346470
cpu0_L2C RFO          ACCESS:     589517 HIT:     150732 MISS:     438785
cpu0_L2C PREFETCH     ACCESS:    4340621 HIT:    3553207 MISS:     787414
cpu0_L2C WRITE        ACCESS:     718433 HIT:     718416 MISS:         17
cpu0_L2C TRANSLATION  ACCESS:      22531 HIT:       4885 MISS:      17646
cpu0_L2C PREFETCH REQUESTED:    2946796 ISSUED:    2799161 USEFUL:     166700 USELESS:     129141
cpu0_L2C AVERAGE MISS LATENCY: 135.2 cycles
cpu0_STLB TOTAL        ACCESS:     223517 HIT:     196263 MISS:      27254
cpu0_STLB LOAD         ACCESS:     223517 HIT:     196263 MISS:      27254
cpu0_STLB RFO          ACCESS:          0 HIT:          0 MISS:          0
cpu0_STLB PREFETCH     ACCESS:          0 HIT:          0 MISS:          0
cpu0_STLB WRITE        ACCESS:          0 HIT:          0 MISS:          0
cpu0_STLB TRANSLATION  ACCESS:          0 HIT:          0 MISS:          0
cpu0_STLB PREFETCH REQUESTED:          0 ISSUED:          0 USEFUL:          0 USELESS:          0
cpu0_STLB AVERAGE MISS LATENCY: 171.7 cycles

DRAM Statistics

Channel 0 RQ ROW_BUFFER_HIT:     135186
  ROW_BUFFER_MISS:     258612
 AVG DBUS CONGESTED CYCLE: 3.933
WQ ROW_BUFFER_HIT: Channel 0 
  ROW_BUFFER_MISS:      27503
  FULL:     156894

Channel 1 RQ ROW_BUFFER_HIT:     133020
  ROW_BUFFER_MISS:     253238
 AVG DBUS CONGESTED CYCLE: 3.927
WQ ROW_BUFFER_HIT: Channel 1 
  ROW_BUFFER_MISS:      28307
  FULL:     153678
BERTI TO_L1: 3086483 TO_L2: 22866134 TO_L2_BC_MSHR: 13255938
BERTI AVG_LAT: 67.2266 NUM_TRACK_LATENCY: 1300532 NUM_CANT_TRACK_LATENCY: 2
BERTI CROSS_PAGE 5875536 NO_CROSS_PAGE: 20077081
BERTI FOUND_BERTI: 5307596 NO_FOUND_BERTI: 20117163
BERTI AVERAGE_ISSUED: 3.46944
CPU 0 L1I Entangling prefetcher final stats
IP accesses: 98b3 262cc0 20733 / 4676954
IP misses: 109 4240 2016 / 837041
IP hits: 0 0 0 / 0
IP late: 9a49 269240 484 / 340252
IP wrong: 207f 81fc0 734 / 572524
miss rate: 0.178972
coverage: 0
coverage_late: 0.406494
accuracy: 0
accuracy_late: 0.372767
discarded: 0
evicts entangled j table: 0
evicts entangled k table: 104396
max bb size: 67
formats: 10349 8661 111064 33755 24122 45236 0 
hist_lookups: 91423 88401 67343 65336 59543 48350 37745 29236 22531 17536 13028 8531 5164 2663 1164 0 24 92102 
hist_lookups_evict: 0.00369163 %
hist_lookups_shortlat: 14.167 %
bb_found_hist: 0 942749 431116 221627 91533 43052 23681 19307 12531 6224 3884 2116 779 2656 380 17 2 101 5 12 0 146 1 0 0 0 0 0 0 0 0 0 0 0 0 0 0 0 0 0 0 0 0 0 0 2 0 0 0 0 0 0 0 0 0 0 0 0 0 0 0 0 0 0 
bb_found_summary: 3601565 1801921 1.99874
entangled_found_hist: 0 493206 456367 815845 153408 73545 4586 0 
entangled_found_summary: 4862348 1996957 2.43488
bb_ent_found_hist: 0 1552503 677448 379519 206471 95580 42111 31722 22968 17954 7845 7478 2034 5023 1883 113 0 205 11 56 0 4 23 0 0 0 0 0 0 0 0 0 0 0 0 0 0 0 0 0 0 0 0 0 0 3 0 0 0 0 0 0 0 0 0 0 0 0 0 0 0 0 0 0 
bb_ent_found_summary: 6453734 3050954 2.11532
