WARNING: physical memory size is smaller than virtual memory size.

*** ChampSim Multicore Out-of-Order Simulator ***
Warmup Instructions: 30000000
Simulation Instructions: 100000000
Number of CPUs: 1
Page size: 4096

BTB:
Basic BTB sets: 1024 ways: 8
Indirect:
history lengths: 0 0 10 16 27 44 60 96 109 219 449 487 714 1313 2146 3881 
ITTAGE tables: 64768 bytes;Region table: 240 bytes;IUM: 384 bytes;Total Storage= 65392 bytes;
RAS:
RAS size: 64
Berti Prefetcher
CPU 0 Entangling prefetcher
Off-chip DRAM Size: 8 GiB Channels: 2 Width: 64-bit Data Race: 6400 MT/s
Heartbeat CPU 0 instructions: 10000007 cycles: 1715359 heartbeat IPC: 5.83 cumulative IPC: 5.83 (Simulation time: 00 hr 00 min 32 sec)
Heartbeat CPU 0 instructions: 20000000 cycles: 3431654 heartbeat IPC: 5.827 cumulative IPC: 5.828 (Simulation time: 00 hr 01 min 04 sec)
Heartbeat CPU 0 instructions: 30000001 cycles: 5098373 heartbeat IPC: 6 cumulative IPC: 5.884 (Simulation time: 00 hr 01 min 34 sec)
Warmup finished CPU 0 instructions: 30000001 cycles: 5098374 cumulative IPC: 5.884 (Simulation time: 00 hr 01 min 34 sec)
Warmup complete CPU 0 instructions: 30000001 cycles: 5098374 cumulative IPC: 5.884 (Simulation time: 00 hr 01 min 34 sec)
Heartbeat CPU 0 instructions: 40000005 cycles: 6765051 heartbeat IPC: 6 cumulative IPC: 6 (Simulation time: 00 hr 02 min 10 sec)
*** Reached end of trace: (0, "../traces/secret_traces/crypto/crypto47.champsimtrace.xz")
Heartbeat CPU 0 instructions: 50000005 cycles: 9335480 heartbeat IPC: 3.89 cumulative IPC: 4.72 (Simulation time: 00 hr 02 min 53 sec)
Heartbeat CPU 0 instructions: 60000006 cycles: 11080842 heartbeat IPC: 5.729 cumulative IPC: 5.015 (Simulation time: 00 hr 03 min 33 sec)
Heartbeat CPU 0 instructions: 70000006 cycles: 13671927 heartbeat IPC: 3.859 cumulative IPC: 4.666 (Simulation time: 00 hr 04 min 23 sec)
Heartbeat CPU 0 instructions: 80000006 cycles: 15354794 heartbeat IPC: 5.942 cumulative IPC: 4.875 (Simulation time: 00 hr 05 min 03 sec)
Heartbeat CPU 0 instructions: 90000003 cycles: 17022232 heartbeat IPC: 5.997 cumulative IPC: 5.032 (Simulation time: 00 hr 05 min 40 sec)
*** Reached end of trace: (0, "../traces/secret_traces/crypto/crypto47.champsimtrace.xz")
Heartbeat CPU 0 instructions: 100000000 cycles: 19535075 heartbeat IPC: 3.98 cumulative IPC: 4.849 (Simulation time: 00 hr 06 min 23 sec)
Heartbeat CPU 0 instructions: 110000005 cycles: 21201740 heartbeat IPC: 6 cumulative IPC: 4.968 (Simulation time: 00 hr 06 min 59 sec)
Heartbeat CPU 0 instructions: 120000004 cycles: 23757249 heartbeat IPC: 3.913 cumulative IPC: 4.823 (Simulation time: 00 hr 07 min 43 sec)
Heartbeat CPU 0 instructions: 130000005 cycles: 25439042 heartbeat IPC: 5.946 cumulative IPC: 4.916 (Simulation time: 00 hr 08 min 19 sec)
Simulation finished CPU 0 instructions: 100000004 cycles: 20340669 cumulative IPC: 4.916 (Simulation time: 00 hr 08 min 19 sec)
Simulation complete CPU 0 instructions: 100000004 cycles: 20340669 cumulative IPC: 4.916 (Simulation time: 00 hr 08 min 19 sec)

ChampSim completed all CPUs

=== Simulation ===
CPU 0 runs ../traces/secret_traces/crypto/crypto47.champsimtrace.xz
Region of Interest Statistics

CPU 0 cumulative IPC: 4.916 instructions: 100000004 cycles: 20340669
CPU 0 Branch Prediction Accuracy: 99.5% MPKI: 0.5623 Average ROB Occupancy at Mispredict: 33.18
Branch type MPKI
BRANCH_DIRECT_JUMP: 0.0297
BRANCH_INDIRECT: 0.275
BRANCH_CONDITIONAL: 0.112
BRANCH_DIRECT_CALL: 0.0867
BRANCH_INDIRECT_CALL: 0.011
BRANCH_RETURN: 0.0474

LLC TOTAL        ACCESS:     230888 HIT:     121186 MISS:     109702
LLC LOAD         ACCESS:      27576 HIT:       6286 MISS:      21290
LLC RFO          ACCESS:      68939 HIT:      17874 MISS:      51065
LLC PREFETCH     ACCESS:      54692 HIT:      18850 MISS:      35842
LLC WRITE        ACCESS:      78368 HIT:      77982 MISS:        386
LLC TRANSLATION  ACCESS:       1313 HIT:        194 MISS:       1119
LLC PREFETCH REQUESTED:          0 ISSUED:          0 USEFUL:          0 USELESS:          0
LLC AVERAGE MISS LATENCY: 278.8 cycles
cpu0_DTLB TOTAL        ACCESS:   13242424 HIT:   13219589 MISS:      22835
cpu0_DTLB LOAD         ACCESS:   13242424 HIT:   13219589 MISS:      22835
cpu0_DTLB RFO          ACCESS:          0 HIT:          0 MISS:          0
cpu0_DTLB PREFETCH     ACCESS:          0 HIT:          0 MISS:          0
cpu0_DTLB WRITE        ACCESS:          0 HIT:          0 MISS:          0
cpu0_DTLB TRANSLATION  ACCESS:          0 HIT:          0 MISS:          0
cpu0_DTLB PREFETCH REQUESTED:          0 ISSUED:          0 USEFUL:          0 USELESS:          0
cpu0_DTLB AVERAGE MISS LATENCY: 14.63 cycles
cpu0_ITLB TOTAL        ACCESS:     387294 HIT:     379162 MISS:       8132
cpu0_ITLB LOAD         ACCESS:     387294 HIT:     379162 MISS:       8132
cpu0_ITLB RFO          ACCESS:          0 HIT:          0 MISS:          0
cpu0_ITLB PREFETCH     ACCESS:          0 HIT:          0 MISS:          0
cpu0_ITLB WRITE        ACCESS:          0 HIT:          0 MISS:          0
cpu0_ITLB TRANSLATION  ACCESS:          0 HIT:          0 MISS:          0
cpu0_ITLB PREFETCH REQUESTED:          0 ISSUED:          0 USEFUL:          0 USELESS:          0
cpu0_ITLB AVERAGE MISS LATENCY: 21.54 cycles
cpu0_L1D TOTAL        ACCESS:   19166857 HIT:   18844685 MISS:     322172
cpu0_L1D LOAD         ACCESS:   12917989 HIT:   12831313 MISS:      86676
cpu0_L1D RFO          ACCESS:          0 HIT:          0 MISS:          0
cpu0_L1D PREFETCH     ACCESS:     306882 HIT:     258714 MISS:      48168
cpu0_L1D WRITE        ACCESS:    5939212 HIT:    5753609 MISS:     185603
cpu0_L1D TRANSLATION  ACCESS:       2774 HIT:       1049 MISS:       1725
cpu0_L1D PREFETCH REQUESTED:    4337129 ISSUED:     306882 USEFUL:       5439 USELESS:        617
cpu0_L1D AVERAGE MISS LATENCY: 82.81 cycles
cpu0_L1I TOTAL        ACCESS:     562719 HIT:     466499 MISS:      96220
cpu0_L1I LOAD         ACCESS:     186225 HIT:     162456 MISS:      23769
cpu0_L1I RFO          ACCESS:          0 HIT:          0 MISS:          0
cpu0_L1I PREFETCH     ACCESS:     376494 HIT:     304043 MISS:      72451
cpu0_L1I WRITE        ACCESS:          0 HIT:          0 MISS:          0
cpu0_L1I TRANSLATION  ACCESS:          0 HIT:          0 MISS:          0
cpu0_L1I PREFETCH REQUESTED:     582909 ISSUED:     376494 USEFUL:      39358 USELESS:      29564
cpu0_L1I AVERAGE MISS LATENCY: 38.11 cycles
cpu0_L2C TOTAL        ACCESS:     532215 HIT:     328848 MISS:     203367
cpu0_L2C LOAD         ACCESS:      73938 HIT:      38316 MISS:      35622
cpu0_L2C RFO          ACCESS:      75819 HIT:       6825 MISS:      68994
cpu0_L2C PREFETCH     ACCESS:     292120 HIT:     194682 MISS:      97438
cpu0_L2C WRITE        ACCESS:      88666 HIT:      88666 MISS:          0
cpu0_L2C TRANSLATION  ACCESS:       1672 HIT:        359 MISS:       1313
cpu0_L2C PREFETCH REQUESTED:     186260 ISSUED:     179798 USEFUL:      18245 USELESS:      13411
cpu0_L2C AVERAGE MISS LATENCY: 162 cycles
cpu0_STLB TOTAL        ACCESS:      13513 HIT:      10951 MISS:       2562
cpu0_STLB LOAD         ACCESS:      13513 HIT:      10951 MISS:       2562
cpu0_STLB RFO          ACCESS:          0 HIT:          0 MISS:          0
cpu0_STLB PREFETCH     ACCESS:          0 HIT:          0 MISS:          0
cpu0_STLB WRITE        ACCESS:          0 HIT:          0 MISS:          0
cpu0_STLB TRANSLATION  ACCESS:          0 HIT:          0 MISS:          0
cpu0_STLB PREFETCH REQUESTED:          0 ISSUED:          0 USEFUL:          0 USELESS:          0
cpu0_STLB AVERAGE MISS LATENCY: 181 cycles

DRAM Statistics

Channel 0 RQ ROW_BUFFER_HIT:      23940
  ROW_BUFFER_MISS:      31136
 AVG DBUS CONGESTED CYCLE: 3.949
WQ ROW_BUFFER_HIT: Channel 0 
  ROW_BUFFER_MISS:       3184
  FULL:      26703

Channel 1 RQ ROW_BUFFER_HIT:      23770
  ROW_BUFFER_MISS:      30459
 AVG DBUS CONGESTED CYCLE: 3.941
WQ ROW_BUFFER_HIT: Channel 1 
  ROW_BUFFER_MISS:       3432
  FULL:      25499
BERTI TO_L1: 797093 TO_L2: 4032371 TO_L2_BC_MSHR: 2347119
BERTI AVG_LAT: 119.24 NUM_TRACK_LATENCY: 95612 NUM_CANT_TRACK_LATENCY: 0
BERTI CROSS_PAGE 1033583 NO_CROSS_PAGE: 3795881
BERTI FOUND_BERTI: 992404 NO_FOUND_BERTI: 16541272
BERTI AVERAGE_ISSUED: 4.22209
CPU 0 L1I Entangling prefetcher final stats
IP accesses: 6f71 1bdc40 1073 / 186585
IP misses: 25bf 96fc0 109 / 24129
IP hits: 0 0 0 / 0
IP late: 6e9e 1ba780 47 / 11595
IP wrong: 7cde 1f3780 72 / 29417
miss rate: 0.12932
coverage: 0
coverage_late: 0.480543
accuracy: 0
accuracy_late: 0.282723
discarded: 0
evicts entangled j table: 0
evicts entangled k table: 3790
max bb size: 53
formats: 981 0 3428 1797 721 1604 0 
hist_lookups: 3165 3416 2482 2182 1895 1526 1201 924 686 544 396 263 188 118 56 0 9 4264 
hist_lookups_evict: 0.0386018 %
hist_lookups_shortlat: 18.2887 %
bb_found_hist: 0 45827 18700 9929 4343 2203 995 718 295 51 2 67 57 46 15 20 2 0 0 0 1 4 0 0 0 0 0 0 0 0 0 2 2 0 2 0 0 0 0 0 0 0 0 0 0 0 0 0 0 0 0 0 0 1 0 0 0 0 0 0 0 0 0 0 
bb_found_summary: 158148 83282 1.89895
entangled_found_hist: 0 24469 18747 31951 6639 1116 201 0 
entangled_found_summary: 191158 83123 2.29971
bb_ent_found_hist: 0 62663 29938 19712 7487 4958 2273 1116 1050 25 0 92 56 16 20 105 129 0 0 0 1 9 0 0 0 0 0 0 0 0 0 2 2 0 2 0 0 0 0 0 0 0 0 0 0 0 0 0 0 0 0 0 0 1 0 0 0 0 0 0 0 0 0 0 
bb_ent_found_summary: 272755 129657 2.10367
