WARNING: physical memory size is smaller than virtual memory size.

*** ChampSim Multicore Out-of-Order Simulator ***
Warmup Instructions: 30000000
Simulation Instructions: 100000000
Number of CPUs: 1
Page size: 4096

BTB:
Basic BTB sets: 1024 ways: 8
Indirect:
history lengths: 0 0 10 16 27 44 60 96 109 219 449 487 714 1313 2146 3881 
ITTAGE tables: 64768 bytes;Region table: 240 bytes;IUM: 384 bytes;Total Storage= 65392 bytes;
RAS:
RAS size: 64
Berti Prefetcher
CPU 0 Entangling prefetcher
Off-chip DRAM Size: 8 GiB Channels: 2 Width: 64-bit Data Race: 6400 MT/s
Heartbeat CPU 0 instructions: 10000001 cycles: 1715377 heartbeat IPC: 5.83 cumulative IPC: 5.83 (Simulation time: 00 hr 00 min 33 sec)
Heartbeat CPU 0 instructions: 20000005 cycles: 3431701 heartbeat IPC: 5.826 cumulative IPC: 5.828 (Simulation time: 00 hr 01 min 04 sec)
*** Reached end of trace: (0, "../traces/secret_traces/crypto/crypto56.champsimtrace.xz")
Heartbeat CPU 0 instructions: 30000005 cycles: 5149821 heartbeat IPC: 5.82 cumulative IPC: 5.825 (Simulation time: 00 hr 01 min 36 sec)
Warmup finished CPU 0 instructions: 30000005 cycles: 5149822 cumulative IPC: 5.825 (Simulation time: 00 hr 01 min 36 sec)
Warmup complete CPU 0 instructions: 30000005 cycles: 5149822 cumulative IPC: 5.825 (Simulation time: 00 hr 01 min 36 sec)
Heartbeat CPU 0 instructions: 40000000 cycles: 7275191 heartbeat IPC: 4.705 cumulative IPC: 4.705 (Simulation time: 00 hr 02 min 16 sec)
Heartbeat CPU 0 instructions: 50000001 cycles: 10191997 heartbeat IPC: 3.428 cumulative IPC: 3.967 (Simulation time: 00 hr 03 min 04 sec)
*** Reached end of trace: (0, "../traces/secret_traces/crypto/crypto56.champsimtrace.xz")
Heartbeat CPU 0 instructions: 60000001 cycles: 12976726 heartbeat IPC: 3.591 cumulative IPC: 3.833 (Simulation time: 00 hr 03 min 54 sec)
Heartbeat CPU 0 instructions: 70000001 cycles: 15658022 heartbeat IPC: 3.73 cumulative IPC: 3.807 (Simulation time: 00 hr 04 min 46 sec)
*** Reached end of trace: (0, "../traces/secret_traces/crypto/crypto56.champsimtrace.xz")
Heartbeat CPU 0 instructions: 80000000 cycles: 18293828 heartbeat IPC: 3.794 cumulative IPC: 3.804 (Simulation time: 00 hr 05 min 35 sec)
Heartbeat CPU 0 instructions: 90000007 cycles: 20609490 heartbeat IPC: 4.318 cumulative IPC: 3.881 (Simulation time: 00 hr 06 min 19 sec)
Heartbeat CPU 0 instructions: 100000003 cycles: 23468152 heartbeat IPC: 3.498 cumulative IPC: 3.821 (Simulation time: 00 hr 07 min 09 sec)
*** Reached end of trace: (0, "../traces/secret_traces/crypto/crypto56.champsimtrace.xz")
Heartbeat CPU 0 instructions: 110000004 cycles: 26080597 heartbeat IPC: 3.828 cumulative IPC: 3.822 (Simulation time: 00 hr 07 min 56 sec)
Heartbeat CPU 0 instructions: 120000006 cycles: 28202769 heartbeat IPC: 4.712 cumulative IPC: 3.904 (Simulation time: 00 hr 08 min 41 sec)
Heartbeat CPU 0 instructions: 130000006 cycles: 31059308 heartbeat IPC: 3.501 cumulative IPC: 3.86 (Simulation time: 00 hr 09 min 32 sec)
Simulation finished CPU 0 instructions: 100000001 cycles: 25909487 cumulative IPC: 3.86 (Simulation time: 00 hr 09 min 32 sec)
Simulation complete CPU 0 instructions: 100000001 cycles: 25909487 cumulative IPC: 3.86 (Simulation time: 00 hr 09 min 32 sec)

ChampSim completed all CPUs

=== Simulation ===
CPU 0 runs ../traces/secret_traces/crypto/crypto56.champsimtrace.xz
Region of Interest Statistics

CPU 0 cumulative IPC: 3.86 instructions: 100000001 cycles: 25909487
CPU 0 Branch Prediction Accuracy: 98.29% MPKI: 0.8403 Average ROB Occupancy at Mispredict: 35.47
Branch type MPKI
BRANCH_DIRECT_JUMP: 0.05
BRANCH_INDIRECT: 0.439
BRANCH_CONDITIONAL: 0.108
BRANCH_DIRECT_CALL: 0.145
BRANCH_INDIRECT_CALL: 0.0185
BRANCH_RETURN: 0.0798

LLC TOTAL        ACCESS:     428256 HIT:     230820 MISS:     197436
LLC LOAD         ACCESS:      50130 HIT:      11639 MISS:      38491
LLC RFO          ACCESS:     129792 HIT:      38883 MISS:      90909
LLC PREFETCH     ACCESS:      99968 HIT:      34613 MISS:      65355
LLC WRITE        ACCESS:     145961 HIT:     145332 MISS:        629
LLC TRANSLATION  ACCESS:       2405 HIT:        353 MISS:       2052
LLC PREFETCH REQUESTED:          0 ISSUED:          0 USEFUL:          0 USELESS:          0
LLC AVERAGE MISS LATENCY: 285.6 cycles
cpu0_DTLB TOTAL        ACCESS:   13319002 HIT:   13277071 MISS:      41931
cpu0_DTLB LOAD         ACCESS:   13319002 HIT:   13277071 MISS:      41931
cpu0_DTLB RFO          ACCESS:          0 HIT:          0 MISS:          0
cpu0_DTLB PREFETCH     ACCESS:          0 HIT:          0 MISS:          0
cpu0_DTLB WRITE        ACCESS:          0 HIT:          0 MISS:          0
cpu0_DTLB TRANSLATION  ACCESS:          0 HIT:          0 MISS:          0
cpu0_DTLB PREFETCH REQUESTED:          0 ISSUED:          0 USEFUL:          0 USELESS:          0
cpu0_DTLB AVERAGE MISS LATENCY: 14.78 cycles
cpu0_ITLB TOTAL        ACCESS:     663940 HIT:     650653 MISS:      13287
cpu0_ITLB LOAD         ACCESS:     663940 HIT:     650653 MISS:      13287
cpu0_ITLB RFO          ACCESS:          0 HIT:          0 MISS:          0
cpu0_ITLB PREFETCH     ACCESS:          0 HIT:          0 MISS:          0
cpu0_ITLB WRITE        ACCESS:          0 HIT:          0 MISS:          0
cpu0_ITLB TRANSLATION  ACCESS:          0 HIT:          0 MISS:          0
cpu0_ITLB PREFETCH REQUESTED:          0 ISSUED:          0 USEFUL:          0 USELESS:          0
cpu0_ITLB AVERAGE MISS LATENCY: 22.51 cycles
cpu0_L1D TOTAL        ACCESS:   28091460 HIT:   27497707 MISS:     593753
cpu0_L1D LOAD         ACCESS:    7947811 HIT:    7787458 MISS:     160353
cpu0_L1D RFO          ACCESS:          0 HIT:          0 MISS:          0
cpu0_L1D PREFETCH     ACCESS:   16919211 HIT:   16839854 MISS:      79357
cpu0_L1D WRITE        ACCESS:    3219331 HIT:    2868468 MISS:     350863
cpu0_L1D TRANSLATION  ACCESS:       5107 HIT:       1927 MISS:       3180
cpu0_L1D PREFETCH REQUESTED:   27023215 ISSUED:   16919246 USEFUL:      10398 USELESS:       1396
cpu0_L1D AVERAGE MISS LATENCY: 82.83 cycles
cpu0_L1I TOTAL        ACCESS:     964848 HIT:     806960 MISS:     157888
cpu0_L1I LOAD         ACCESS:     317084 HIT:     281456 MISS:      35628
cpu0_L1I RFO          ACCESS:          0 HIT:          0 MISS:          0
cpu0_L1I PREFETCH     ACCESS:     647764 HIT:     525504 MISS:     122260
cpu0_L1I WRITE        ACCESS:          0 HIT:          0 MISS:          0
cpu0_L1I TRANSLATION  ACCESS:          0 HIT:          0 MISS:          0
cpu0_L1I PREFETCH REQUESTED:    1047109 ISSUED:     647764 USEFUL:      69463 USELESS:      47699
cpu0_L1I AVERAGE MISS LATENCY: 43.33 cycles
cpu0_L2C TOTAL        ACCESS:     934896 HIT:     556817 MISS:     378079
cpu0_L2C LOAD         ACCESS:     130162 HIT:      64509 MISS:      65653
cpu0_L2C RFO          ACCESS:     141471 HIT:      11598 MISS:     129873
cpu0_L2C PREFETCH     ACCESS:     493987 HIT:     313839 MISS:     180148
cpu0_L2C WRITE        ACCESS:     166214 HIT:     166214 MISS:          0
cpu0_L2C TRANSLATION  ACCESS:       3062 HIT:        657 MISS:       2405
cpu0_L2C PREFETCH REQUESTED:     318258 ISSUED:     306326 USEFUL:      33504 USELESS:      24379
cpu0_L2C AVERAGE MISS LATENCY: 160.9 cycles
cpu0_STLB TOTAL        ACCESS:      23647 HIT:      18984 MISS:       4663
cpu0_STLB LOAD         ACCESS:      23647 HIT:      18984 MISS:       4663
cpu0_STLB RFO          ACCESS:          0 HIT:          0 MISS:          0
cpu0_STLB PREFETCH     ACCESS:          0 HIT:          0 MISS:          0
cpu0_STLB WRITE        ACCESS:          0 HIT:          0 MISS:          0
cpu0_STLB TRANSLATION  ACCESS:          0 HIT:          0 MISS:          0
cpu0_STLB PREFETCH REQUESTED:          0 ISSUED:          0 USEFUL:          0 USELESS:          0
cpu0_STLB AVERAGE MISS LATENCY: 182.3 cycles

DRAM Statistics

Channel 0 RQ ROW_BUFFER_HIT:      44395
  ROW_BUFFER_MISS:      55029
 AVG DBUS CONGESTED CYCLE: 3.949
WQ ROW_BUFFER_HIT: Channel 0 
  ROW_BUFFER_MISS:       5195
  FULL:      47592

Channel 1 RQ ROW_BUFFER_HIT:      43557
  ROW_BUFFER_MISS:      53791
 AVG DBUS CONGESTED CYCLE: 3.941
WQ ROW_BUFFER_HIT: Channel 1 
  ROW_BUFFER_MISS:       5610
  FULL:      45308
BERTI TO_L1: 24449901 TO_L2: 8881252 TO_L2_BC_MSHR: 4466180
BERTI AVG_LAT: 127.477 NUM_TRACK_LATENCY: 162447 NUM_CANT_TRACK_LATENCY: 0
BERTI CROSS_PAGE 10767137 NO_CROSS_PAGE: 22564016
BERTI FOUND_BERTI: 4021620 NO_FOUND_BERTI: 7552657
BERTI AVERAGE_ISSUED: 11.2149
CPU 0 L1I Entangling prefetcher final stats
IP accesses: 77e1 1df840 1416 / 319235
IP misses: c453 3114c0 248 / 37779
IP hits: 0 0 0 / 0
IP late: 59b0 166c00 45 / 18025
IP wrong: f801 3e0040 120 / 47502
miss rate: 0.118343
coverage: 0
coverage_late: 0.477117
accuracy: 0
accuracy_late: 0.275078
discarded: 0
evicts entangled j table: 0
evicts entangled k table: 6110
max bb size: 53
formats: 1501 0 5082 2489 997 1874 0 
hist_lookups: 3858 4365 3663 3366 2939 2497 1988 1465 1186 908 655 456 305 189 107 0 6 6672 
hist_lookups_evict: 0.0173286 %
hist_lookups_shortlat: 19.2694 %
bb_found_hist: 0 81350 34584 16750 7469 3694 1797 1518 466 98 6 99 114 98 24 0 3 0 0 0 0 6 0 0 0 0 0 0 0 0 0 3 0 0 3 0 0 0 0 0 0 0 0 0 0 0 0 0 0 0 0 0 0 3 0 0 0 0 0 0 0 0 0 0 
bb_found_summary: 279787 148085 1.88937
entangled_found_hist: 0 41051 31504 60157 12268 2095 607 0 
entangled_found_summary: 347719 147682 2.35452
bb_ent_found_hist: 0 115727 53263 33915 15489 8456 3842 2249 1986 161 0 121 167 70 12 0 3 0 0 0 0 17 0 0 0 0 0 0 0 0 0 6 0 0 6 0 0 0 0 0 0 0 0 0 0 0 0 0 0 0 0 0 0 4 0 0 0 0 0 0 0 0 0 0 
bb_ent_found_summary: 489786 235494 2.07983
