WARNING: physical memory size is smaller than virtual memory size.

*** ChampSim Multicore Out-of-Order Simulator ***
Warmup Instructions: 30000000
Simulation Instructions: 100000000
Number of CPUs: 1
Page size: 4096

BTB:
Basic BTB sets: 1024 ways: 8
Indirect:
history lengths: 0 0 10 16 27 44 60 96 109 219 449 487 714 1313 2146 3881 
ITTAGE tables: 64768 bytes;Region table: 240 bytes;IUM: 384 bytes;Total Storage= 65392 bytes;
RAS:
RAS size: 64
Berti Prefetcher
CPU 0 Entangling prefetcher
Off-chip DRAM Size: 8 GiB Channels: 2 Width: 64-bit Data Race: 6400 MT/s
Heartbeat CPU 0 instructions: 10000003 cycles: 1715536 heartbeat IPC: 5.829 cumulative IPC: 5.829 (Simulation time: 00 hr 00 min 33 sec)
Heartbeat CPU 0 instructions: 20000000 cycles: 3431810 heartbeat IPC: 5.827 cumulative IPC: 5.828 (Simulation time: 00 hr 01 min 05 sec)
Heartbeat CPU 0 instructions: 30000008 cycles: 5098576 heartbeat IPC: 6 cumulative IPC: 5.884 (Simulation time: 00 hr 01 min 36 sec)
Warmup finished CPU 0 instructions: 30000008 cycles: 5098577 cumulative IPC: 5.884 (Simulation time: 00 hr 01 min 36 sec)
Warmup complete CPU 0 instructions: 30000008 cycles: 5098577 cumulative IPC: 5.884 (Simulation time: 00 hr 01 min 36 sec)
Heartbeat CPU 0 instructions: 40000004 cycles: 6766399 heartbeat IPC: 5.996 cumulative IPC: 5.996 (Simulation time: 00 hr 02 min 11 sec)
Heartbeat CPU 0 instructions: 50000000 cycles: 8433060 heartbeat IPC: 6 cumulative IPC: 5.998 (Simulation time: 00 hr 02 min 46 sec)
*** Reached end of trace: (0, "../traces/secret_traces/crypto/crypto3.champsimtrace.xz")
Heartbeat CPU 0 instructions: 60000004 cycles: 11075675 heartbeat IPC: 3.784 cumulative IPC: 5.019 (Simulation time: 00 hr 03 min 30 sec)
Heartbeat CPU 0 instructions: 70000007 cycles: 12742343 heartbeat IPC: 6 cumulative IPC: 5.233 (Simulation time: 00 hr 04 min 06 sec)
Heartbeat CPU 0 instructions: 80000003 cycles: 15316831 heartbeat IPC: 3.884 cumulative IPC: 4.893 (Simulation time: 00 hr 04 min 50 sec)
Heartbeat CPU 0 instructions: 90000000 cycles: 16999518 heartbeat IPC: 5.943 cumulative IPC: 5.042 (Simulation time: 00 hr 05 min 26 sec)
Heartbeat CPU 0 instructions: 100000004 cycles: 18667273 heartbeat IPC: 5.996 cumulative IPC: 5.159 (Simulation time: 00 hr 06 min 03 sec)
*** Reached end of trace: (0, "../traces/secret_traces/crypto/crypto3.champsimtrace.xz")
Heartbeat CPU 0 instructions: 110000004 cycles: 21104890 heartbeat IPC: 4.102 cumulative IPC: 4.998 (Simulation time: 00 hr 06 min 49 sec)
Heartbeat CPU 0 instructions: 120000000 cycles: 22853781 heartbeat IPC: 5.718 cumulative IPC: 5.069 (Simulation time: 00 hr 07 min 30 sec)
Heartbeat CPU 0 instructions: 130000003 cycles: 25391678 heartbeat IPC: 3.94 cumulative IPC: 4.928 (Simulation time: 00 hr 08 min 15 sec)
Simulation finished CPU 0 instructions: 100000006 cycles: 20293104 cumulative IPC: 4.928 (Simulation time: 00 hr 08 min 15 sec)
Simulation complete CPU 0 instructions: 100000006 cycles: 20293104 cumulative IPC: 4.928 (Simulation time: 00 hr 08 min 15 sec)

ChampSim completed all CPUs

=== Simulation ===
CPU 0 runs ../traces/secret_traces/crypto/crypto3.champsimtrace.xz
Region of Interest Statistics

CPU 0 cumulative IPC: 4.928 instructions: 100000006 cycles: 20293104
CPU 0 Branch Prediction Accuracy: 99.49% MPKI: 0.5588 Average ROB Occupancy at Mispredict: 33.66
Branch type MPKI
BRANCH_DIRECT_JUMP: 0.0293
BRANCH_INDIRECT: 0.273
BRANCH_CONDITIONAL: 0.112
BRANCH_DIRECT_CALL: 0.0859
BRANCH_INDIRECT_CALL: 0.011
BRANCH_RETURN: 0.0471

LLC TOTAL        ACCESS:     230101 HIT:     122510 MISS:     107591
LLC LOAD         ACCESS:      27542 HIT:       6511 MISS:      21031
LLC RFO          ACCESS:      68867 HIT:      19138 MISS:      49729
LLC PREFETCH     ACCESS:      54574 HIT:      19277 MISS:      35297
LLC WRITE        ACCESS:      77781 HIT:      77420 MISS:        361
LLC TRANSLATION  ACCESS:       1337 HIT:        164 MISS:       1173
LLC PREFETCH REQUESTED:          0 ISSUED:          0 USEFUL:          0 USELESS:          0
LLC AVERAGE MISS LATENCY: 277.2 cycles
cpu0_DTLB TOTAL        ACCESS:   11126466 HIT:   11103948 MISS:      22518
cpu0_DTLB LOAD         ACCESS:   11126466 HIT:   11103948 MISS:      22518
cpu0_DTLB RFO          ACCESS:          0 HIT:          0 MISS:          0
cpu0_DTLB PREFETCH     ACCESS:          0 HIT:          0 MISS:          0
cpu0_DTLB WRITE        ACCESS:          0 HIT:          0 MISS:          0
cpu0_DTLB TRANSLATION  ACCESS:          0 HIT:          0 MISS:          0
cpu0_DTLB PREFETCH REQUESTED:          0 ISSUED:          0 USEFUL:          0 USELESS:          0
cpu0_DTLB AVERAGE MISS LATENCY: 14.36 cycles
cpu0_ITLB TOTAL        ACCESS:     387238 HIT:     379179 MISS:       8059
cpu0_ITLB LOAD         ACCESS:     387238 HIT:     379179 MISS:       8059
cpu0_ITLB RFO          ACCESS:          0 HIT:          0 MISS:          0
cpu0_ITLB PREFETCH     ACCESS:          0 HIT:          0 MISS:          0
cpu0_ITLB WRITE        ACCESS:          0 HIT:          0 MISS:          0
cpu0_ITLB TRANSLATION  ACCESS:          0 HIT:          0 MISS:          0
cpu0_ITLB PREFETCH REQUESTED:          0 ISSUED:          0 USEFUL:          0 USELESS:          0
cpu0_ITLB AVERAGE MISS LATENCY: 22.46 cycles
cpu0_L1D TOTAL        ACCESS:   17376036 HIT:   17051004 MISS:     325032
cpu0_L1D LOAD         ACCESS:   11176405 HIT:   11089412 MISS:      86993
cpu0_L1D RFO          ACCESS:          0 HIT:          0 MISS:          0
cpu0_L1D PREFETCH     ACCESS:     325435 HIT:     274296 MISS:      51139
cpu0_L1D WRITE        ACCESS:    5871423 HIT:    5686282 MISS:     185141
cpu0_L1D TRANSLATION  ACCESS:       2773 HIT:       1014 MISS:       1759
cpu0_L1D PREFETCH REQUESTED:    4235550 ISSUED:     325435 USEFUL:       5296 USELESS:        573
cpu0_L1D AVERAGE MISS LATENCY: 80.38 cycles
cpu0_L1I TOTAL        ACCESS:     563719 HIT:     466852 MISS:      96867
cpu0_L1I LOAD         ACCESS:     186832 HIT:     162395 MISS:      24437
cpu0_L1I RFO          ACCESS:          0 HIT:          0 MISS:          0
cpu0_L1I PREFETCH     ACCESS:     376887 HIT:     304457 MISS:      72430
cpu0_L1I WRITE        ACCESS:          0 HIT:          0 MISS:          0
cpu0_L1I TRANSLATION  ACCESS:          0 HIT:          0 MISS:          0
cpu0_L1I PREFETCH REQUESTED:     587171 ISSUED:     376887 USEFUL:      39204 USELESS:      29578
cpu0_L1I AVERAGE MISS LATENCY: 37.75 cycles
cpu0_L2C TOTAL        ACCESS:     535268 HIT:     333272 MISS:     201996
cpu0_L2C LOAD         ACCESS:      74657 HIT:      39030 MISS:      35627
cpu0_L2C RFO          ACCESS:      75685 HIT:       6775 MISS:      68910
cpu0_L2C PREFETCH     ACCESS:     294726 HIT:     198604 MISS:      96122
cpu0_L2C WRITE        ACCESS:      88501 HIT:      88501 MISS:          0
cpu0_L2C TRANSLATION  ACCESS:       1699 HIT:        362 MISS:       1337
cpu0_L2C PREFETCH REQUESTED:     188362 ISSUED:     181021 USEFUL:      17918 USELESS:      13460
cpu0_L2C AVERAGE MISS LATENCY: 159.3 cycles
cpu0_STLB TOTAL        ACCESS:      13536 HIT:      11004 MISS:       2532
cpu0_STLB LOAD         ACCESS:      13536 HIT:      11004 MISS:       2532
cpu0_STLB RFO          ACCESS:          0 HIT:          0 MISS:          0
cpu0_STLB PREFETCH     ACCESS:          0 HIT:          0 MISS:          0
cpu0_STLB WRITE        ACCESS:          0 HIT:          0 MISS:          0
cpu0_STLB TRANSLATION  ACCESS:          0 HIT:          0 MISS:          0
cpu0_STLB PREFETCH REQUESTED:          0 ISSUED:          0 USEFUL:          0 USELESS:          0
cpu0_STLB AVERAGE MISS LATENCY: 180.4 cycles

DRAM Statistics

Channel 0 RQ ROW_BUFFER_HIT:      23666
  ROW_BUFFER_MISS:      30293
 AVG DBUS CONGESTED CYCLE: 3.946
WQ ROW_BUFFER_HIT: Channel 0 
  ROW_BUFFER_MISS:       3018
  FULL:      25896

Channel 1 RQ ROW_BUFFER_HIT:      23551
  ROW_BUFFER_MISS:      29698
 AVG DBUS CONGESTED CYCLE: 3.938
WQ ROW_BUFFER_HIT: Channel 1 
  ROW_BUFFER_MISS:       3220
  FULL:      24884
BERTI TO_L1: 780496 TO_L2: 3930226 TO_L2_BC_MSHR: 2238294
BERTI AVG_LAT: 115.227 NUM_TRACK_LATENCY: 95745 NUM_CANT_TRACK_LATENCY: 0
BERTI CROSS_PAGE 979937 NO_CROSS_PAGE: 3730785
BERTI FOUND_BERTI: 796101 NO_FOUND_BERTI: 14462315
BERTI AVERAGE_ISSUED: 4.49283
CPU 0 L1I Entangling prefetcher final stats
IP accesses: 6f71 1bdc40 871 / 187627
IP misses: 7aff 1ebfc0 103 / 25232
IP hits: 0 0 0 / 0
IP late: f9ad 3e6b40 30 / 11830
IP wrong: 7cde 1f3780 67 / 29397
miss rate: 0.13448
coverage: 0
coverage_late: 0.46885
accuracy: 0
accuracy_late: 0.286948
discarded: 0
evicts entangled j table: 0
evicts entangled k table: 3915
max bb size: 53
formats: 1020 0 3386 1801 772 1539 0 
hist_lookups: 3101 3261 2550 2283 1957 1706 1292 891 669 583 454 279 177 109 50 0 9 3909 
hist_lookups_evict: 0.0386598 %
hist_lookups_shortlat: 16.7913 %
bb_found_hist: 0 46780 19305 9777 4265 2307 1013 719 264 48 13 70 60 46 15 20 2 0 0 0 0 4 0 0 0 0 0 0 0 0 0 2 0 0 2 0 0 0 0 0 0 0 0 0 0 0 0 0 0 0 0 0 0 2 0 0 0 0 0 0 0 0 0 0 
bb_found_summary: 160051 84714 1.88931
entangled_found_hist: 0 24436 17771 32368 6845 1282 258 0 
entangled_found_summary: 192420 82960 2.31944
bb_ent_found_hist: 0 65397 28873 19136 7879 5343 2555 970 1042 24 19 78 31 19 20 100 84 0 0 0 0 9 0 0 0 0 0 0 0 0 0 2 0 0 3 0 0 0 0 0 0 0 0 0 0 0 0 0 0 0 0 0 0 2 0 0 0 0 0 0 0 0 0 0 
bb_ent_found_summary: 274704 131586 2.08764
