WARNING: physical memory size is smaller than virtual memory size.

*** ChampSim Multicore Out-of-Order Simulator ***
Warmup Instructions: 30000000
Simulation Instructions: 100000000
Number of CPUs: 1
Page size: 4096

BTB:
Basic BTB sets: 1024 ways: 8
Indirect:
history lengths: 0 0 10 16 27 44 60 96 109 219 449 487 714 1313 2146 3881 
ITTAGE tables: 64768 bytes;Region table: 240 bytes;IUM: 384 bytes;Total Storage= 65392 bytes;
RAS:
RAS size: 64
Berti Prefetcher
CPU 0 Entangling prefetcher
Off-chip DRAM Size: 8 GiB Channels: 2 Width: 64-bit Data Race: 6400 MT/s
Heartbeat CPU 0 instructions: 10000005 cycles: 1715439 heartbeat IPC: 5.829 cumulative IPC: 5.829 (Simulation time: 00 hr 00 min 36 sec)
Heartbeat CPU 0 instructions: 20000004 cycles: 3431780 heartbeat IPC: 5.826 cumulative IPC: 5.828 (Simulation time: 00 hr 01 min 08 sec)
*** Reached end of trace: (0, "../traces/secret_traces/crypto/crypto97.champsimtrace.xz")
Heartbeat CPU 0 instructions: 30000002 cycles: 5151744 heartbeat IPC: 5.814 cumulative IPC: 5.823 (Simulation time: 00 hr 01 min 41 sec)
Warmup finished CPU 0 instructions: 30000002 cycles: 5151745 cumulative IPC: 5.823 (Simulation time: 00 hr 01 min 41 sec)
Warmup complete CPU 0 instructions: 30000002 cycles: 5151745 cumulative IPC: 5.823 (Simulation time: 00 hr 01 min 41 sec)
Heartbeat CPU 0 instructions: 40000000 cycles: 11798680 heartbeat IPC: 1.504 cumulative IPC: 1.504 (Simulation time: 00 hr 03 min 08 sec)
*** Reached end of trace: (0, "../traces/secret_traces/crypto/crypto97.champsimtrace.xz")
Heartbeat CPU 0 instructions: 50000002 cycles: 17226076 heartbeat IPC: 1.843 cumulative IPC: 1.656 (Simulation time: 00 hr 04 min 30 sec)
Heartbeat CPU 0 instructions: 60000001 cycles: 23280974 heartbeat IPC: 1.652 cumulative IPC: 1.655 (Simulation time: 00 hr 05 min 55 sec)
*** Reached end of trace: (0, "../traces/secret_traces/crypto/crypto97.champsimtrace.xz")
Heartbeat CPU 0 instructions: 70000002 cycles: 29154509 heartbeat IPC: 1.703 cumulative IPC: 1.666 (Simulation time: 00 hr 07 min 24 sec)
Heartbeat CPU 0 instructions: 80000000 cycles: 35268667 heartbeat IPC: 1.636 cumulative IPC: 1.66 (Simulation time: 00 hr 08 min 51 sec)
*** Reached end of trace: (0, "../traces/secret_traces/crypto/crypto97.champsimtrace.xz")
Heartbeat CPU 0 instructions: 90000008 cycles: 41262890 heartbeat IPC: 1.668 cumulative IPC: 1.662 (Simulation time: 00 hr 10 min 11 sec)
Heartbeat CPU 0 instructions: 100000000 cycles: 47233289 heartbeat IPC: 1.675 cumulative IPC: 1.663 (Simulation time: 00 hr 11 min 41 sec)
*** Reached end of trace: (0, "../traces/secret_traces/crypto/crypto97.champsimtrace.xz")
Heartbeat CPU 0 instructions: 110000001 cycles: 53920955 heartbeat IPC: 1.495 cumulative IPC: 1.64 (Simulation time: 00 hr 13 min 11 sec)
Heartbeat CPU 0 instructions: 120000000 cycles: 59185017 heartbeat IPC: 1.9 cumulative IPC: 1.666 (Simulation time: 00 hr 14 min 25 sec)
Heartbeat CPU 0 instructions: 130000001 cycles: 65765033 heartbeat IPC: 1.52 cumulative IPC: 1.65 (Simulation time: 00 hr 15 min 58 sec)
Simulation finished CPU 0 instructions: 100000000 cycles: 60613290 cumulative IPC: 1.65 (Simulation time: 00 hr 15 min 58 sec)
Simulation complete CPU 0 instructions: 100000000 cycles: 60613290 cumulative IPC: 1.65 (Simulation time: 00 hr 15 min 58 sec)

ChampSim completed all CPUs

=== Simulation ===
CPU 0 runs ../traces/secret_traces/crypto/crypto97.champsimtrace.xz
Region of Interest Statistics

CPU 0 cumulative IPC: 1.65 instructions: 100000000 cycles: 60613290
CPU 0 Branch Prediction Accuracy: 98.49% MPKI: 1.05 Average ROB Occupancy at Mispredict: 36.28
Branch type MPKI
BRANCH_DIRECT_JUMP: 0.0635
BRANCH_INDIRECT: 0.555
BRANCH_CONDITIONAL: 0.126
BRANCH_DIRECT_CALL: 0.184
BRANCH_INDIRECT_CALL: 0.0223
BRANCH_RETURN: 0.1

LLC TOTAL        ACCESS:     533815 HIT:     284290 MISS:     249525
LLC LOAD         ACCESS:      61976 HIT:      14791 MISS:      47185
LLC RFO          ACCESS:     162814 HIT:      46172 MISS:     116642
LLC PREFETCH     ACCESS:     124170 HIT:      41980 MISS:      82190
LLC WRITE        ACCESS:     181824 HIT:     180880 MISS:        944
LLC TRANSLATION  ACCESS:       3031 HIT:        467 MISS:       2564
LLC PREFETCH REQUESTED:          0 ISSUED:          0 USEFUL:          0 USELESS:          0
LLC AVERAGE MISS LATENCY: 287.5 cycles
cpu0_DTLB TOTAL        ACCESS:   24385711 HIT:   24333541 MISS:      52170
cpu0_DTLB LOAD         ACCESS:   24385711 HIT:   24333541 MISS:      52170
cpu0_DTLB RFO          ACCESS:          0 HIT:          0 MISS:          0
cpu0_DTLB PREFETCH     ACCESS:          0 HIT:          0 MISS:          0
cpu0_DTLB WRITE        ACCESS:          0 HIT:          0 MISS:          0
cpu0_DTLB TRANSLATION  ACCESS:          0 HIT:          0 MISS:          0
cpu0_DTLB PREFETCH REQUESTED:          0 ISSUED:          0 USEFUL:          0 USELESS:          0
cpu0_DTLB AVERAGE MISS LATENCY: 14.9 cycles
cpu0_ITLB TOTAL        ACCESS:     846801 HIT:     829934 MISS:      16867
cpu0_ITLB LOAD         ACCESS:     846801 HIT:     829934 MISS:      16867
cpu0_ITLB RFO          ACCESS:          0 HIT:          0 MISS:          0
cpu0_ITLB PREFETCH     ACCESS:          0 HIT:          0 MISS:          0
cpu0_ITLB WRITE        ACCESS:          0 HIT:          0 MISS:          0
cpu0_ITLB TRANSLATION  ACCESS:          0 HIT:          0 MISS:          0
cpu0_ITLB PREFETCH REQUESTED:          0 ISSUED:          0 USEFUL:          0 USELESS:          0
cpu0_ITLB AVERAGE MISS LATENCY: 22.34 cycles
cpu0_L1D TOTAL        ACCESS:   43260744 HIT:   42472179 MISS:     788565
cpu0_L1D LOAD         ACCESS:   13584362 HIT:   13383195 MISS:     201167
cpu0_L1D RFO          ACCESS:          0 HIT:          0 MISS:          0
cpu0_L1D PREFETCH     ACCESS:   25697400 HIT:   25557084 MISS:     140316
cpu0_L1D WRITE        ACCESS:    3972808 HIT:    3529633 MISS:     443175
cpu0_L1D TRANSLATION  ACCESS:       6174 HIT:       2267 MISS:       3907
cpu0_L1D PREFETCH REQUESTED:   35131009 ISSUED:   25697399 USEFUL:      12896 USELESS:       1592
cpu0_L1D AVERAGE MISS LATENCY: 79 cycles
cpu0_L1I TOTAL        ACCESS:    1233153 HIT:    1032545 MISS:     200608
cpu0_L1I LOAD         ACCESS:     403937 HIT:     358652 MISS:      45285
cpu0_L1I RFO          ACCESS:          0 HIT:          0 MISS:          0
cpu0_L1I PREFETCH     ACCESS:     829216 HIT:     673893 MISS:     155323
cpu0_L1I WRITE        ACCESS:          0 HIT:          0 MISS:          0
cpu0_L1I TRANSLATION  ACCESS:          0 HIT:          0 MISS:          0
cpu0_L1I PREFETCH REQUESTED:    1334774 ISSUED:     829216 USEFUL:      88045 USELESS:      60897
cpu0_L1I AVERAGE MISS LATENCY: 43.91 cycles
cpu0_L2C TOTAL        ACCESS:    1256191 HIT:     784796 MISS:     471395
cpu0_L2C LOAD         ACCESS:     163165 HIT:      82035 MISS:      81130
cpu0_L2C RFO          ACCESS:     178860 HIT:      15950 MISS:     162910
cpu0_L2C PREFETCH     ACCESS:     702026 HIT:     477702 MISS:     224324
cpu0_L2C WRITE        ACCESS:     208351 HIT:     208351 MISS:          0
cpu0_L2C TRANSLATION  ACCESS:       3789 HIT:        758 MISS:       3031
cpu0_L2C PREFETCH REQUESTED:     440620 ISSUED:     424850 USEFUL:      41557 USELESS:      30463
cpu0_L2C AVERAGE MISS LATENCY: 163.9 cycles
cpu0_STLB TOTAL        ACCESS:      29517 HIT:      23924 MISS:       5593
cpu0_STLB LOAD         ACCESS:      29517 HIT:      23924 MISS:       5593
cpu0_STLB RFO          ACCESS:          0 HIT:          0 MISS:          0
cpu0_STLB PREFETCH     ACCESS:          0 HIT:          0 MISS:          0
cpu0_STLB WRITE        ACCESS:          0 HIT:          0 MISS:          0
cpu0_STLB TRANSLATION  ACCESS:          0 HIT:          0 MISS:          0
cpu0_STLB PREFETCH REQUESTED:          0 ISSUED:          0 USEFUL:          0 USELESS:          0
cpu0_STLB AVERAGE MISS LATENCY: 189.9 cycles

DRAM Statistics

Channel 0 RQ ROW_BUFFER_HIT:      55474
  ROW_BUFFER_MISS:      70082
 AVG DBUS CONGESTED CYCLE: 3.95
WQ ROW_BUFFER_HIT: Channel 0 
  ROW_BUFFER_MISS:       6807
  FULL:      60217

Channel 1 RQ ROW_BUFFER_HIT:      54575
  ROW_BUFFER_MISS:      68407
 AVG DBUS CONGESTED CYCLE: 3.941
WQ ROW_BUFFER_HIT: Channel 1 
  ROW_BUFFER_MISS:       7078
  FULL:      57502
BERTI TO_L1: 30603843 TO_L2: 12474352 TO_L2_BC_MSHR: 5610397
BERTI AVG_LAT: 133.046 NUM_TRACK_LATENCY: 192829 NUM_CANT_TRACK_LATENCY: 0
BERTI CROSS_PAGE 6418206 NO_CROSS_PAGE: 36659989
BERTI FOUND_BERTI: 4058362 NO_FOUND_BERTI: 14400251
BERTI AVERAGE_ISSUED: 12.7497
CPU 0 L1I Entangling prefetcher final stats
IP accesses: 25bf 96fc0 1828 / 408652
IP misses: c451 311440 390 / 50000
IP hits: 0 0 0 / 0
IP late: 59b0 166c00 63 / 22708
IP wrong: f801 3e0040 145 / 60666
miss rate: 0.122354
coverage: 0
coverage_late: 0.454161
accuracy: 0
accuracy_late: 0.272364
discarded: 0
evicts entangled j table: 0
evicts entangled k table: 7805
max bb size: 53
formats: 1883 0 6357 3003 1155 2218 0 
hist_lookups: 4589 5490 4548 4226 3847 3152 2400 1803 1457 1203 897 595 413 224 103 0 12 7836 
hist_lookups_evict: 0.0280407 %
hist_lookups_shortlat: 18.3106 %
bb_found_hist: 0 103006 44459 21155 9853 4535 2229 1966 597 111 8 125 44 130 31 0 4 0 0 0 0 8 0 0 0 0 0 0 0 0 0 4 4 0 4 0 0 0 0 0 0 0 0 0 0 0 0 0 0 0 0 0 0 4 0 0 0 0 0 0 0 0 0 0 
bb_found_summary: 355326 188277 1.88726
entangled_found_hist: 0 54633 39318 76034 15082 2527 1086 0 
entangled_found_summary: 440850 188680 2.3365
bb_ent_found_hist: 0 148422 65616 44684 19503 11102 4741 3719 1997 79 0 240 139 55 22 0 4 0 0 0 0 21 0 0 0 0 0 0 0 0 0 8 4 0 8 0 0 0 0 0 0 0 0 0 0 0 0 0 0 0 0 0 0 4 0 0 0 0 0 0 0 0 0 0 
bb_ent_found_summary: 625090 300368 2.08109
