WARNING: physical memory size is smaller than virtual memory size.

*** ChampSim Multicore Out-of-Order Simulator ***
Warmup Instructions: 30000000
Simulation Instructions: 100000000
Number of CPUs: 1
Page size: 4096

BTB:
Basic BTB sets: 1024 ways: 8
Indirect:
history lengths: 0 0 10 16 27 44 60 96 109 219 449 487 714 1313 2146 3881 
ITTAGE tables: 64768 bytes;Region table: 240 bytes;IUM: 384 bytes;Total Storage= 65392 bytes;
RAS:
RAS size: 64
Berti Prefetcher
CPU 0 Entangling prefetcher
Off-chip DRAM Size: 8 GiB Channels: 2 Width: 64-bit Data Race: 6400 MT/s
Heartbeat CPU 0 instructions: 10000003 cycles: 1723867 heartbeat IPC: 5.801 cumulative IPC: 5.801 (Simulation time: 00 hr 00 min 39 sec)
Heartbeat CPU 0 instructions: 20000004 cycles: 3451527 heartbeat IPC: 5.788 cumulative IPC: 5.795 (Simulation time: 00 hr 01 min 24 sec)
*** Reached end of trace: (0, "../traces/secret_traces/crypto/crypto57.champsimtrace.xz")
Heartbeat CPU 0 instructions: 30000000 cycles: 5179465 heartbeat IPC: 5.787 cumulative IPC: 5.792 (Simulation time: 00 hr 02 min 09 sec)
Warmup finished CPU 0 instructions: 30000000 cycles: 5179466 cumulative IPC: 5.792 (Simulation time: 00 hr 02 min 09 sec)
Warmup complete CPU 0 instructions: 30000000 cycles: 5179466 cumulative IPC: 5.792 (Simulation time: 00 hr 02 min 09 sec)
Heartbeat CPU 0 instructions: 40000010 cycles: 7669939 heartbeat IPC: 4.015 cumulative IPC: 4.015 (Simulation time: 00 hr 03 min 03 sec)
*** Reached end of trace: (0, "../traces/secret_traces/crypto/crypto57.champsimtrace.xz")
Heartbeat CPU 0 instructions: 50000002 cycles: 10246732 heartbeat IPC: 3.881 cumulative IPC: 3.947 (Simulation time: 00 hr 03 min 55 sec)
Heartbeat CPU 0 instructions: 60000003 cycles: 12032434 heartbeat IPC: 5.6 cumulative IPC: 4.378 (Simulation time: 00 hr 04 min 34 sec)
*** Reached end of trace: (0, "../traces/secret_traces/crypto/crypto57.champsimtrace.xz")
Heartbeat CPU 0 instructions: 70000002 cycles: 15060471 heartbeat IPC: 3.302 cumulative IPC: 4.048 (Simulation time: 00 hr 05 min 24 sec)
Heartbeat CPU 0 instructions: 80000001 cycles: 17107988 heartbeat IPC: 4.884 cumulative IPC: 4.192 (Simulation time: 00 hr 06 min 06 sec)
Heartbeat CPU 0 instructions: 90000009 cycles: 19663256 heartbeat IPC: 3.913 cumulative IPC: 4.143 (Simulation time: 00 hr 06 min 52 sec)
*** Reached end of trace: (0, "../traces/secret_traces/crypto/crypto57.champsimtrace.xz")
Heartbeat CPU 0 instructions: 100000001 cycles: 22149798 heartbeat IPC: 4.022 cumulative IPC: 4.125 (Simulation time: 00 hr 07 min 44 sec)
Heartbeat CPU 0 instructions: 110000002 cycles: 24698089 heartbeat IPC: 3.924 cumulative IPC: 4.099 (Simulation time: 00 hr 08 min 47 sec)
*** Reached end of trace: (0, "../traces/secret_traces/crypto/crypto57.champsimtrace.xz")
Heartbeat CPU 0 instructions: 120000003 cycles: 27080897 heartbeat IPC: 4.197 cumulative IPC: 4.109 (Simulation time: 00 hr 09 min 41 sec)
Heartbeat CPU 0 instructions: 130000007 cycles: 28862585 heartbeat IPC: 5.613 cumulative IPC: 4.222 (Simulation time: 00 hr 10 min 28 sec)
Simulation finished CPU 0 instructions: 100000007 cycles: 23683120 cumulative IPC: 4.222 (Simulation time: 00 hr 10 min 28 sec)
Simulation complete CPU 0 instructions: 100000007 cycles: 23683120 cumulative IPC: 4.222 (Simulation time: 00 hr 10 min 28 sec)

ChampSim completed all CPUs

=== Simulation ===
CPU 0 runs ../traces/secret_traces/crypto/crypto57.champsimtrace.xz
Region of Interest Statistics

CPU 0 cumulative IPC: 4.222 instructions: 100000007 cycles: 23683120
CPU 0 Branch Prediction Accuracy: 99.19% MPKI: 0.9793 Average ROB Occupancy at Mispredict: 36.4
Branch type MPKI
BRANCH_DIRECT_JUMP: 0.0579
BRANCH_INDIRECT: 0.519
BRANCH_CONDITIONAL: 0.12
BRANCH_DIRECT_CALL: 0.17
BRANCH_INDIRECT_CALL: 0.0213
BRANCH_RETURN: 0.0918

LLC TOTAL        ACCESS:     461521 HIT:     245712 MISS:     215809
LLC LOAD         ACCESS:      52781 HIT:      13545 MISS:      39236
LLC RFO          ACCESS:     139393 HIT:      38770 MISS:     100623
LLC PREFETCH     ACCESS:     109800 HIT:      36894 MISS:      72906
LLC WRITE        ACCESS:     156923 HIT:     156103 MISS:        820
LLC TRANSLATION  ACCESS:       2624 HIT:        400 MISS:       2224
LLC PREFETCH REQUESTED:          0 ISSUED:          0 USEFUL:          0 USELESS:          0
LLC AVERAGE MISS LATENCY: 282 cycles
cpu0_DTLB TOTAL        ACCESS:    8025514 HIT:    7980648 MISS:      44866
cpu0_DTLB LOAD         ACCESS:    8025514 HIT:    7980648 MISS:      44866
cpu0_DTLB RFO          ACCESS:          0 HIT:          0 MISS:          0
cpu0_DTLB PREFETCH     ACCESS:          0 HIT:          0 MISS:          0
cpu0_DTLB WRITE        ACCESS:          0 HIT:          0 MISS:          0
cpu0_DTLB TRANSLATION  ACCESS:          0 HIT:          0 MISS:          0
cpu0_DTLB PREFETCH REQUESTED:          0 ISSUED:          0 USEFUL:          0 USELESS:          0
cpu0_DTLB AVERAGE MISS LATENCY: 14.66 cycles
cpu0_ITLB TOTAL        ACCESS:    6392878 HIT:    6377180 MISS:      15698
cpu0_ITLB LOAD         ACCESS:    6392878 HIT:    6377180 MISS:      15698
cpu0_ITLB RFO          ACCESS:          0 HIT:          0 MISS:          0
cpu0_ITLB PREFETCH     ACCESS:          0 HIT:          0 MISS:          0
cpu0_ITLB WRITE        ACCESS:          0 HIT:          0 MISS:          0
cpu0_ITLB TRANSLATION  ACCESS:          0 HIT:          0 MISS:          0
cpu0_ITLB PREFETCH REQUESTED:          0 ISSUED:          0 USEFUL:          0 USELESS:          0
cpu0_ITLB AVERAGE MISS LATENCY: 20.45 cycles
cpu0_L1D TOTAL        ACCESS:   13785918 HIT:   13126100 MISS:     659818
cpu0_L1D LOAD         ACCESS:    5628788 HIT:    5454284 MISS:     174504
cpu0_L1D RFO          ACCESS:          0 HIT:          0 MISS:          0
cpu0_L1D PREFETCH     ACCESS:    1100485 HIT:     988327 MISS:     112158
cpu0_L1D WRITE        ACCESS:    7051275 HIT:    6681496 MISS:     369779
cpu0_L1D TRANSLATION  ACCESS:       5370 HIT:       1993 MISS:       3377
cpu0_L1D PREFETCH REQUESTED:    8807245 ISSUED:    1100485 USEFUL:      11953 USELESS:       1278
cpu0_L1D AVERAGE MISS LATENCY: 80.08 cycles
cpu0_L1I TOTAL        ACCESS:    9629636 HIT:    9448645 MISS:     180991
cpu0_L1I LOAD         ACCESS:    2180057 HIT:    2139449 MISS:      40608
cpu0_L1I RFO          ACCESS:          0 HIT:          0 MISS:          0
cpu0_L1I PREFETCH     ACCESS:    7449579 HIT:    7309196 MISS:     140383
cpu0_L1I WRITE        ACCESS:          0 HIT:          0 MISS:          0
cpu0_L1I TRANSLATION  ACCESS:          0 HIT:          0 MISS:          0
cpu0_L1I PREFETCH REQUESTED:    8430915 ISSUED:    7449608 USEFUL:      79059 USELESS:      55640
cpu0_L1I AVERAGE MISS LATENCY: 42.14 cycles
cpu0_L2C TOTAL        ACCESS:    1071131 HIT:     664361 MISS:     406770
cpu0_L2C LOAD         ACCESS:     142013 HIT:      73409 MISS:      68604
cpu0_L2C RFO          ACCESS:     151036 HIT:      11557 MISS:     139479
cpu0_L2C PREFETCH     ACCESS:     597781 HIT:     401718 MISS:     196063
cpu0_L2C WRITE        ACCESS:     177051 HIT:     177051 MISS:          0
cpu0_L2C TRANSLATION  ACCESS:       3250 HIT:        626 MISS:       2624
cpu0_L2C PREFETCH REQUESTED:     378191 ISSUED:     362226 USEFUL:      35820 USELESS:      26280
cpu0_L2C AVERAGE MISS LATENCY: 161.5 cycles
cpu0_STLB TOTAL        ACCESS:      26703 HIT:      21786 MISS:       4917
cpu0_STLB LOAD         ACCESS:      26703 HIT:      21786 MISS:       4917
cpu0_STLB RFO          ACCESS:          0 HIT:          0 MISS:          0
cpu0_STLB PREFETCH     ACCESS:          0 HIT:          0 MISS:          0
cpu0_STLB WRITE        ACCESS:          0 HIT:          0 MISS:          0
cpu0_STLB TRANSLATION  ACCESS:          0 HIT:          0 MISS:          0
cpu0_STLB PREFETCH REQUESTED:          0 ISSUED:          0 USEFUL:          0 USELESS:          0
cpu0_STLB AVERAGE MISS LATENCY: 179.3 cycles

DRAM Statistics

Channel 0 RQ ROW_BUFFER_HIT:      47159
  ROW_BUFFER_MISS:      61466
 AVG DBUS CONGESTED CYCLE: 3.951
WQ ROW_BUFFER_HIT: Channel 0 
  ROW_BUFFER_MISS:       6026
  FULL:      52739

Channel 1 RQ ROW_BUFFER_HIT:      46561
  ROW_BUFFER_MISS:      59744
 AVG DBUS CONGESTED CYCLE: 3.938
WQ ROW_BUFFER_HIT: Channel 1 
  ROW_BUFFER_MISS:       6296
  FULL:      50121
BERTI TO_L1: 1994661 TO_L2: 8139974 TO_L2_BC_MSHR: 4594547
BERTI AVG_LAT: 124.269 NUM_TRACK_LATENCY: 173009 NUM_CANT_TRACK_LATENCY: 0
BERTI CROSS_PAGE 1902754 NO_CROSS_PAGE: 8231881
BERTI FOUND_BERTI: 2679548 NO_FOUND_BERTI: 6062253
BERTI AVERAGE_ISSUED: 4.18681
CPU 0 L1I Entangling prefetcher final stats
IP accesses: 3e6e f9b80 84563 / 2183413
IP misses: 7a6f 1e9bc0 358 / 43964
IP hits: 0 0 0 / 0
IP late: 59b0 166c00 61 / 20431
IP wrong: 251e 94780 130 / 55451
miss rate: 0.0201355
coverage: 0
coverage_late: 0.464722
accuracy: 0
accuracy_late: 0.269247
discarded: 0
evicts entangled j table: 0
evicts entangled k table: 7099
max bb size: 53
formats: 1783 0 5756 2696 1143 2101 0 
hist_lookups: 4374 5138 4103 3757 3366 2908 2236 1615 1262 1030 753 495 337 212 131 0 9 7808 
hist_lookups_evict: 0.0227653 %
hist_lookups_shortlat: 19.7501 %
bb_found_hist: 0 702840 207598 214657 64802 4201 2043 1510 529 108 6 109 40 104 28 40 4 0 0 0 0 8 0 0 0 0 0 0 0 0 0 4 4 0 4 0 0 0 0 0 0 0 0 0 0 0 0 0 0 0 0 0 0 4 0 0 0 0 0 0 0 0 0 0 
bb_found_summary: 2075167 1198643 1.73127
entangled_found_hist: 0 251038 255157 560109 13391 13544 13080 0 
entangled_found_summary: 2641443 1106319 2.3876
bb_ent_found_hist: 0 1055703 155995 364059 158194 48206 3963 58152 1928 67 0 99 182 76 16 192 261 0 0 0 0 22 0 0 0 0 0 0 0 0 0 4 4 0 4 0 0 0 0 0 0 0 0 0 0 0 0 0 0 0 0 0 0 7 0 0 0 0 0 0 0 0 0 0 
bb_ent_found_summary: 3793307 1847134 2.05362
