WARNING: physical memory size is smaller than virtual memory size.

*** ChampSim Multicore Out-of-Order Simulator ***
Warmup Instructions: 30000000
Simulation Instructions: 100000000
Number of CPUs: 1
Page size: 4096

BTB:
Basic BTB sets: 1024 ways: 8
Indirect:
history lengths: 0 0 10 16 27 44 60 96 109 219 449 487 714 1313 2146 3881 
ITTAGE tables: 64768 bytes;Region table: 240 bytes;IUM: 384 bytes;Total Storage= 65392 bytes;
RAS:
RAS size: 64
Berti Prefetcher
CPU 0 Entangling prefetcher
Off-chip DRAM Size: 8 GiB Channels: 2 Width: 64-bit Data Race: 6400 MT/s
Heartbeat CPU 0 instructions: 10000002 cycles: 1714847 heartbeat IPC: 5.831 cumulative IPC: 5.831 (Simulation time: 00 hr 00 min 30 sec)
Heartbeat CPU 0 instructions: 20000008 cycles: 3431144 heartbeat IPC: 5.827 cumulative IPC: 5.829 (Simulation time: 00 hr 00 min 59 sec)
Heartbeat CPU 0 instructions: 30000010 cycles: 5097855 heartbeat IPC: 6 cumulative IPC: 5.885 (Simulation time: 00 hr 01 min 26 sec)
Warmup finished CPU 0 instructions: 30000010 cycles: 5097856 cumulative IPC: 5.885 (Simulation time: 00 hr 01 min 26 sec)
Warmup complete CPU 0 instructions: 30000010 cycles: 5097856 cumulative IPC: 5.885 (Simulation time: 00 hr 01 min 26 sec)
Heartbeat CPU 0 instructions: 40000001 cycles: 6765747 heartbeat IPC: 5.996 cumulative IPC: 5.996 (Simulation time: 00 hr 01 min 57 sec)
Heartbeat CPU 0 instructions: 50000001 cycles: 8433924 heartbeat IPC: 5.995 cumulative IPC: 5.995 (Simulation time: 00 hr 02 min 29 sec)
Heartbeat CPU 0 instructions: 60000003 cycles: 10108932 heartbeat IPC: 5.97 cumulative IPC: 5.987 (Simulation time: 00 hr 03 min 00 sec)
Heartbeat CPU 0 instructions: 70000003 cycles: 11775603 heartbeat IPC: 6 cumulative IPC: 5.99 (Simulation time: 00 hr 03 min 31 sec)
Heartbeat CPU 0 instructions: 80000003 cycles: 13442562 heartbeat IPC: 5.999 cumulative IPC: 5.992 (Simulation time: 00 hr 04 min 03 sec)
Heartbeat CPU 0 instructions: 90000007 cycles: 15109400 heartbeat IPC: 5.999 cumulative IPC: 5.993 (Simulation time: 00 hr 04 min 35 sec)
Heartbeat CPU 0 instructions: 100000002 cycles: 16776165 heartbeat IPC: 6 cumulative IPC: 5.994 (Simulation time: 00 hr 05 min 11 sec)
Heartbeat CPU 0 instructions: 110000005 cycles: 18442873 heartbeat IPC: 6 cumulative IPC: 5.995 (Simulation time: 00 hr 05 min 45 sec)
Heartbeat CPU 0 instructions: 120000003 cycles: 20109637 heartbeat IPC: 6 cumulative IPC: 5.995 (Simulation time: 00 hr 06 min 17 sec)
*** Reached end of trace: (0, "../traces/secret_traces/crypto/crypto64.champsimtrace.xz")
Heartbeat CPU 0 instructions: 130000006 cycles: 22325006 heartbeat IPC: 4.514 cumulative IPC: 5.805 (Simulation time: 00 hr 06 min 55 sec)
Simulation finished CPU 0 instructions: 100000004 cycles: 17227152 cumulative IPC: 5.805 (Simulation time: 00 hr 06 min 55 sec)
Simulation complete CPU 0 instructions: 100000004 cycles: 17227152 cumulative IPC: 5.805 (Simulation time: 00 hr 06 min 55 sec)

ChampSim completed all CPUs

=== Simulation ===
CPU 0 runs ../traces/secret_traces/crypto/crypto64.champsimtrace.xz
Region of Interest Statistics

CPU 0 cumulative IPC: 5.805 instructions: 100000004 cycles: 17227152
CPU 0 Branch Prediction Accuracy: 97.54% MPKI: 0.1039 Average ROB Occupancy at Mispredict: 24.3
Branch type MPKI
BRANCH_DIRECT_JUMP: 0.00583
BRANCH_INDIRECT: 0.0452
BRANCH_CONDITIONAL: 0.0276
BRANCH_DIRECT_CALL: 0.0156
BRANCH_INDIRECT_CALL: 0.0015
BRANCH_RETURN: 0.00829

LLC TOTAL        ACCESS:      25486 HIT:      13063 MISS:      12423
LLC LOAD         ACCESS:       3080 HIT:        720 MISS:       2360
LLC RFO          ACCESS:       5602 HIT:        458 MISS:       5144
LLC PREFETCH     ACCESS:       6861 HIT:       2232 MISS:       4629
LLC WRITE        ACCESS:       9694 HIT:       9627 MISS:         67
LLC TRANSLATION  ACCESS:        249 HIT:         26 MISS:        223
LLC PREFETCH REQUESTED:          0 ISSUED:          0 USEFUL:          0 USELESS:          0
LLC AVERAGE MISS LATENCY: 264.5 cycles
cpu0_DTLB TOTAL        ACCESS:    8280135 HIT:    8277541 MISS:       2594
cpu0_DTLB LOAD         ACCESS:    8280135 HIT:    8277541 MISS:       2594
cpu0_DTLB RFO          ACCESS:          0 HIT:          0 MISS:          0
cpu0_DTLB PREFETCH     ACCESS:          0 HIT:          0 MISS:          0
cpu0_DTLB WRITE        ACCESS:          0 HIT:          0 MISS:          0
cpu0_DTLB TRANSLATION  ACCESS:          0 HIT:          0 MISS:          0
cpu0_DTLB PREFETCH REQUESTED:          0 ISSUED:          0 USEFUL:          0 USELESS:          0
cpu0_DTLB AVERAGE MISS LATENCY: 18.82 cycles
cpu0_ITLB TOTAL        ACCESS:     213306 HIT:     211529 MISS:       1777
cpu0_ITLB LOAD         ACCESS:     213306 HIT:     211529 MISS:       1777
cpu0_ITLB RFO          ACCESS:          0 HIT:          0 MISS:          0
cpu0_ITLB PREFETCH     ACCESS:          0 HIT:          0 MISS:          0
cpu0_ITLB WRITE        ACCESS:          0 HIT:          0 MISS:          0
cpu0_ITLB TRANSLATION  ACCESS:          0 HIT:          0 MISS:          0
cpu0_ITLB PREFETCH REQUESTED:          0 ISSUED:          0 USEFUL:          0 USELESS:          0
cpu0_ITLB AVERAGE MISS LATENCY: 24.98 cycles
cpu0_L1D TOTAL        ACCESS:    9363792 HIT:    9340857 MISS:      22935
cpu0_L1D LOAD         ACCESS:    5296457 HIT:    5289296 MISS:       7161
cpu0_L1D RFO          ACCESS:          0 HIT:          0 MISS:          0
cpu0_L1D PREFETCH     ACCESS:     957179 HIT:     955579 MISS:       1600
cpu0_L1D WRITE        ACCESS:    3109771 HIT:    3095902 MISS:      13869
cpu0_L1D TRANSLATION  ACCESS:        385 HIT:         80 MISS:        305
cpu0_L1D PREFETCH REQUESTED:    1311120 ISSUED:     957179 USEFUL:        127 USELESS:         52
cpu0_L1D AVERAGE MISS LATENCY: 114.9 cycles
cpu0_L1I TOTAL        ACCESS:     311681 HIT:     292039 MISS:      19642
cpu0_L1I LOAD         ACCESS:     106604 HIT:     100650 MISS:       5954
cpu0_L1I RFO          ACCESS:          0 HIT:          0 MISS:          0
cpu0_L1I PREFETCH     ACCESS:     205077 HIT:     191389 MISS:      13688
cpu0_L1I WRITE        ACCESS:          0 HIT:          0 MISS:          0
cpu0_L1I TRANSLATION  ACCESS:          0 HIT:          0 MISS:          0
cpu0_L1I PREFETCH REQUESTED:     383037 ISSUED:     205077 USEFUL:       6690 USELESS:       6064
cpu0_L1I AVERAGE MISS LATENCY: 30.75 cycles
cpu0_L2C TOTAL        ACCESS:      60555 HIT:      40721 MISS:      19834
cpu0_L2C LOAD         ACCESS:       9421 HIT:       5671 MISS:       3750
cpu0_L2C RFO          ACCESS:       6074 HIT:        461 MISS:       5613
cpu0_L2C PREFETCH     ACCESS:      37754 HIT:      27532 MISS:      10222
cpu0_L2C WRITE        ACCESS:       7001 HIT:       7001 MISS:          0
cpu0_L2C TRANSLATION  ACCESS:        305 HIT:         56 MISS:        249
cpu0_L2C PREFETCH REQUESTED:      23749 ISSUED:      23426 USEFUL:       1991 USELESS:        792
cpu0_L2C AVERAGE MISS LATENCY: 179 cycles
cpu0_STLB TOTAL        ACCESS:       2299 HIT:       1951 MISS:        348
cpu0_STLB LOAD         ACCESS:       2299 HIT:       1951 MISS:        348
cpu0_STLB RFO          ACCESS:          0 HIT:          0 MISS:          0
cpu0_STLB PREFETCH     ACCESS:          0 HIT:          0 MISS:          0
cpu0_STLB WRITE        ACCESS:          0 HIT:          0 MISS:          0
cpu0_STLB TRANSLATION  ACCESS:          0 HIT:          0 MISS:          0
cpu0_STLB PREFETCH REQUESTED:          0 ISSUED:          0 USEFUL:          0 USELESS:          0
cpu0_STLB AVERAGE MISS LATENCY: 234.2 cycles

DRAM Statistics

Channel 0 RQ ROW_BUFFER_HIT:       2176
  ROW_BUFFER_MISS:       4056
 AVG DBUS CONGESTED CYCLE: 3.939
WQ ROW_BUFFER_HIT: Channel 0 
  ROW_BUFFER_MISS:        501
  FULL:       3166

Channel 1 RQ ROW_BUFFER_HIT:       2165
  ROW_BUFFER_MISS:       3959
 AVG DBUS CONGESTED CYCLE: 3.928
WQ ROW_BUFFER_HIT: Channel 1 
  ROW_BUFFER_MISS:        456
  FULL:       3020
BERTI TO_L1: 1375633 TO_L2: 675991 TO_L2_BC_MSHR: 247879
BERTI AVG_LAT: 44.5692 NUM_TRACK_LATENCY: 36789 NUM_CANT_TRACK_LATENCY: 0
BERTI CROSS_PAGE 454275 NO_CROSS_PAGE: 1597349
BERTI FOUND_BERTI: 675280 NO_FOUND_BERTI: 6968527
BERTI AVERAGE_ISSUED: 9.285
CPU 0 L1I Entangling prefetcher final stats
IP accesses: 1f31 7cc40 8898 / 106618
IP misses: f9ad 3e6b40 30 / 5968
IP hits: 0 0 0 / 0
IP late: 7cdc 1f3700 10 / 2570
IP wrong: 3eb3 facc0 11 / 6038
miss rate: 0.0559756
coverage: 0
coverage_late: 0.430631
accuracy: 0
accuracy_late: 0.29856
discarded: 0
evicts entangled j table: 0
evicts entangled k table: 860
max bb size: 49
formats: 223 0 819 444 216 462 0 
hist_lookups: 959 822 562 519 484 401 297 190 148 111 92 68 40 21 9 0 0 2388 
hist_lookups_evict: 0 %
hist_lookups_shortlat: 33.5818 %
bb_found_hist: 0 16325 6385 4487 1888 443 140 118 41 1249 52 18 5 1 139 437 1 1 339 17 505 0 626 11 0 1 8 0 0 0 302 324 367 97 0 0 0 0 0 0 0 0 0 0 0 0 0 0 234 12 9 0 0 0 0 0 0 0 0 0 0 0 0 0 
bb_found_summary: 151985 34582 4.39492
entangled_found_hist: 0 12988 3840 8738 2733 307 63 0 
entangled_found_summary: 59727 28669 2.08334
bb_ent_found_hist: 0 22603 5737 5461 1400 912 474 242 196 7 53 27 8 2 147 6 7 0 351 2 0 0 20 649 0 0 599 0 0 0 0 1243 0 99 0 0 0 0 0 0 0 0 0 0 0 0 0 0 0 617 0 0 0 0 0 0 0 0 0 0 0 0 0 0 
bb_ent_found_summary: 179328 40862 4.38863
