WARNING: physical memory size is smaller than virtual memory size.

*** ChampSim Multicore Out-of-Order Simulator ***
Warmup Instructions: 30000000
Simulation Instructions: 100000000
Number of CPUs: 1
Page size: 4096

BTB:
Basic BTB sets: 1024 ways: 8
Indirect:
history lengths: 0 0 10 16 27 44 60 96 109 219 449 487 714 1313 2146 3881 
ITTAGE tables: 64768 bytes;Region table: 240 bytes;IUM: 384 bytes;Total Storage= 65392 bytes;
RAS:
RAS size: 64
Berti Prefetcher
CPU 0 Entangling prefetcher
Off-chip DRAM Size: 8 GiB Channels: 2 Width: 64-bit Data Race: 6400 MT/s
Heartbeat CPU 0 instructions: 10000000 cycles: 1714762 heartbeat IPC: 5.832 cumulative IPC: 5.832 (Simulation time: 00 hr 00 min 30 sec)
Heartbeat CPU 0 instructions: 20000001 cycles: 3430744 heartbeat IPC: 5.828 cumulative IPC: 5.83 (Simulation time: 00 hr 00 min 58 sec)
Heartbeat CPU 0 instructions: 30000001 cycles: 5097457 heartbeat IPC: 6 cumulative IPC: 5.885 (Simulation time: 00 hr 01 min 25 sec)
Warmup finished CPU 0 instructions: 30000001 cycles: 5097458 cumulative IPC: 5.885 (Simulation time: 00 hr 01 min 25 sec)
Warmup complete CPU 0 instructions: 30000001 cycles: 5097458 cumulative IPC: 5.885 (Simulation time: 00 hr 01 min 25 sec)
Heartbeat CPU 0 instructions: 40000002 cycles: 6765371 heartbeat IPC: 5.996 cumulative IPC: 5.996 (Simulation time: 00 hr 01 min 56 sec)
Heartbeat CPU 0 instructions: 50000001 cycles: 8433466 heartbeat IPC: 5.995 cumulative IPC: 5.995 (Simulation time: 00 hr 02 min 27 sec)
Heartbeat CPU 0 instructions: 60000005 cycles: 10107950 heartbeat IPC: 5.972 cumulative IPC: 5.987 (Simulation time: 00 hr 02 min 59 sec)
Heartbeat CPU 0 instructions: 70000002 cycles: 11774667 heartbeat IPC: 6 cumulative IPC: 5.991 (Simulation time: 00 hr 03 min 30 sec)
Heartbeat CPU 0 instructions: 80000005 cycles: 13441640 heartbeat IPC: 5.999 cumulative IPC: 5.992 (Simulation time: 00 hr 04 min 01 sec)
Heartbeat CPU 0 instructions: 90000002 cycles: 15108465 heartbeat IPC: 5.999 cumulative IPC: 5.993 (Simulation time: 00 hr 04 min 32 sec)
Heartbeat CPU 0 instructions: 100000003 cycles: 16775202 heartbeat IPC: 6 cumulative IPC: 5.994 (Simulation time: 00 hr 05 min 05 sec)
Heartbeat CPU 0 instructions: 110000003 cycles: 18441927 heartbeat IPC: 6 cumulative IPC: 5.995 (Simulation time: 00 hr 05 min 36 sec)
Heartbeat CPU 0 instructions: 120000002 cycles: 20108765 heartbeat IPC: 5.999 cumulative IPC: 5.995 (Simulation time: 00 hr 06 min 07 sec)
*** Reached end of trace: (0, "../traces/secret_traces/crypto/crypto40.champsimtrace.xz")
Heartbeat CPU 0 instructions: 130000006 cycles: 22432371 heartbeat IPC: 4.304 cumulative IPC: 5.769 (Simulation time: 00 hr 06 min 44 sec)
Simulation finished CPU 0 instructions: 100000005 cycles: 17334914 cumulative IPC: 5.769 (Simulation time: 00 hr 06 min 44 sec)
Simulation complete CPU 0 instructions: 100000005 cycles: 17334914 cumulative IPC: 5.769 (Simulation time: 00 hr 06 min 44 sec)

ChampSim completed all CPUs

=== Simulation ===
CPU 0 runs ../traces/secret_traces/crypto/crypto40.champsimtrace.xz
Region of Interest Statistics

CPU 0 cumulative IPC: 5.769 instructions: 100000005 cycles: 17334914
CPU 0 Branch Prediction Accuracy: 97.78% MPKI: 0.1365 Average ROB Occupancy at Mispredict: 31.09
Branch type MPKI
BRANCH_DIRECT_JUMP: 0.00584
BRANCH_INDIRECT: 0.0667
BRANCH_CONDITIONAL: 0.0377
BRANCH_DIRECT_CALL: 0.0163
BRANCH_INDIRECT_CALL: 0.0015
BRANCH_RETURN: 0.00846

LLC TOTAL        ACCESS:      28892 HIT:      14134 MISS:      14758
LLC LOAD         ACCESS:       3007 HIT:        722 MISS:       2285
LLC RFO          ACCESS:       6768 HIT:        417 MISS:       6351
LLC PREFETCH     ACCESS:       8148 HIT:       2327 MISS:       5821
LLC WRITE        ACCESS:      10723 HIT:      10640 MISS:         83
LLC TRANSLATION  ACCESS:        246 HIT:         28 MISS:        218
LLC PREFETCH REQUESTED:          0 ISSUED:          0 USEFUL:          0 USELESS:          0
LLC AVERAGE MISS LATENCY: 259.2 cycles
cpu0_DTLB TOTAL        ACCESS:    8332855 HIT:    8330086 MISS:       2769
cpu0_DTLB LOAD         ACCESS:    8332855 HIT:    8330086 MISS:       2769
cpu0_DTLB RFO          ACCESS:          0 HIT:          0 MISS:          0
cpu0_DTLB PREFETCH     ACCESS:          0 HIT:          0 MISS:          0
cpu0_DTLB WRITE        ACCESS:          0 HIT:          0 MISS:          0
cpu0_DTLB TRANSLATION  ACCESS:          0 HIT:          0 MISS:          0
cpu0_DTLB PREFETCH REQUESTED:          0 ISSUED:          0 USEFUL:          0 USELESS:          0
cpu0_DTLB AVERAGE MISS LATENCY: 18.13 cycles
cpu0_ITLB TOTAL        ACCESS:     140494 HIT:     138813 MISS:       1681
cpu0_ITLB LOAD         ACCESS:     140494 HIT:     138813 MISS:       1681
cpu0_ITLB RFO          ACCESS:          0 HIT:          0 MISS:          0
cpu0_ITLB PREFETCH     ACCESS:          0 HIT:          0 MISS:          0
cpu0_ITLB WRITE        ACCESS:          0 HIT:          0 MISS:          0
cpu0_ITLB TRANSLATION  ACCESS:          0 HIT:          0 MISS:          0
cpu0_ITLB PREFETCH REQUESTED:          0 ISSUED:          0 USEFUL:          0 USELESS:          0
cpu0_ITLB AVERAGE MISS LATENCY: 23.04 cycles
cpu0_L1D TOTAL        ACCESS:    9377001 HIT:    9339133 MISS:      37868
cpu0_L1D LOAD         ACCESS:    5429052 HIT:    5418989 MISS:      10063
cpu0_L1D RFO          ACCESS:          0 HIT:          0 MISS:          0
cpu0_L1D PREFETCH     ACCESS:     737330 HIT:     725900 MISS:      11430
cpu0_L1D WRITE        ACCESS:    3210234 HIT:    3194154 MISS:      16080
cpu0_L1D TRANSLATION  ACCESS:        385 HIT:         90 MISS:        295
cpu0_L1D PREFETCH REQUESTED:    1108011 ISSUED:     737334 USEFUL:        885 USELESS:        253
cpu0_L1D AVERAGE MISS LATENCY: 80.51 cycles
cpu0_L1I TOTAL        ACCESS:     203055 HIT:     182989 MISS:      20066
cpu0_L1I LOAD         ACCESS:      73654 HIT:      67520 MISS:       6134
cpu0_L1I RFO          ACCESS:          0 HIT:          0 MISS:          0
cpu0_L1I PREFETCH     ACCESS:     129401 HIT:     115469 MISS:      13932
cpu0_L1I WRITE        ACCESS:          0 HIT:          0 MISS:          0
cpu0_L1I TRANSLATION  ACCESS:          0 HIT:          0 MISS:          0
cpu0_L1I PREFETCH REQUESTED:     213483 ISSUED:     129401 USEFUL:       6843 USELESS:       6129
cpu0_L1I AVERAGE MISS LATENCY: 30.95 cycles
cpu0_L2C TOTAL        ACCESS:      88623 HIT:      65373 MISS:      23250
cpu0_L2C LOAD         ACCESS:      11486 HIT:       7795 MISS:       3691
cpu0_L2C RFO          ACCESS:       7609 HIT:        828 MISS:       6781
cpu0_L2C PREFETCH     ACCESS:      59591 HIT:      47059 MISS:      12532
cpu0_L2C WRITE        ACCESS:       9642 HIT:       9642 MISS:          0
cpu0_L2C TRANSLATION  ACCESS:        295 HIT:         49 MISS:        246
cpu0_L2C PREFETCH REQUESTED:      35791 ISSUED:      35288 USEFUL:       2898 USELESS:       1017
cpu0_L2C AVERAGE MISS LATENCY: 177.8 cycles
cpu0_STLB TOTAL        ACCESS:       2301 HIT:       1955 MISS:        346
cpu0_STLB LOAD         ACCESS:       2301 HIT:       1955 MISS:        346
cpu0_STLB RFO          ACCESS:          0 HIT:          0 MISS:          0
cpu0_STLB PREFETCH     ACCESS:          0 HIT:          0 MISS:          0
cpu0_STLB WRITE        ACCESS:          0 HIT:          0 MISS:          0
cpu0_STLB TRANSLATION  ACCESS:          0 HIT:          0 MISS:          0
cpu0_STLB PREFETCH REQUESTED:          0 ISSUED:          0 USEFUL:          0 USELESS:          0
cpu0_STLB AVERAGE MISS LATENCY: 227.8 cycles

DRAM Statistics

Channel 0 RQ ROW_BUFFER_HIT:       2627
  ROW_BUFFER_MISS:       4776
 AVG DBUS CONGESTED CYCLE: 3.932
WQ ROW_BUFFER_HIT: Channel 0 
  ROW_BUFFER_MISS:        593
  FULL:       3769

Channel 1 RQ ROW_BUFFER_HIT:       2654
  ROW_BUFFER_MISS:       4611
 AVG DBUS CONGESTED CYCLE: 3.922
WQ ROW_BUFFER_HIT: Channel 1 
  ROW_BUFFER_MISS:        603
  FULL:       3562
BERTI TO_L1: 1333485 TO_L2: 524556 TO_L2_BC_MSHR: 253287
BERTI AVG_LAT: 41.4174 NUM_TRACK_LATENCY: 40195 NUM_CANT_TRACK_LATENCY: 0
BERTI CROSS_PAGE 433960 NO_CROSS_PAGE: 1424081
BERTI FOUND_BERTI: 622719 NO_FOUND_BERTI: 7153810
BERTI AVERAGE_ISSUED: 10.406
CPU 0 L1I Entangling prefetcher final stats
IP accesses: 1f31 7cc40 4565 / 73736
IP misses: 6e9e 1ba780 54 / 6216
IP hits: 0 0 0 / 0
IP late: 6e9e 1ba780 38 / 2598
IP wrong: 251e 94780 58 / 6094
miss rate: 0.0843008
coverage: 0
coverage_late: 0.417954
accuracy: 0
accuracy_late: 0.298896
discarded: 0
evicts entangled j table: 0
evicts entangled k table: 937
max bb size: 53
formats: 247 0 805 418 227 470 0 
hist_lookups: 986 854 625 575 481 414 323 207 136 132 91 34 32 17 6 0 0 2309 
hist_lookups_evict: 0 %
hist_lookups_shortlat: 31.9718 %
bb_found_hist: 0 12826 5098 3142 1276 536 222 119 43 629 0 18 5 0 3 316 5 0 0 0 0 1 258 14 0 0 9 0 27 0 0 0 0 280 0 0 0 0 0 0 0 0 0 0 0 0 11 0 0 0 0 14 0 116 0 0 0 0 0 0 0 0 0 0 
bb_found_summary: 77139 24968 3.08952
entangled_found_hist: 0 8896 4043 7600 1504 310 65 0 
entangled_found_summary: 47738 22418 2.12945
bb_ent_found_hist: 0 17690 5756 5271 1326 869 433 216 81 7 0 46 9 0 3 0 66 0 0 0 0 3 0 96 0 0 7 0 26 0 0 0 0 39 0 0 0 0 0 0 0 0 0 0 0 0 1 0 0 0 0 287 0 307 0 0 0 0 0 0 0 0 0 0 
bb_ent_found_summary: 96619 32539 2.96933
