WARNING: physical memory size is smaller than virtual memory size.

*** ChampSim Multicore Out-of-Order Simulator ***
Warmup Instructions: 30000000
Simulation Instructions: 100000000
Number of CPUs: 1
Page size: 4096

BTB:
Basic BTB sets: 1024 ways: 8
Indirect:
history lengths: 0 0 10 16 27 44 60 96 109 219 449 487 714 1313 2146 3881 
ITTAGE tables: 64768 bytes;Region table: 240 bytes;IUM: 384 bytes;Total Storage= 65392 bytes;
RAS:
RAS size: 64
Berti Prefetcher
CPU 0 Entangling prefetcher
Off-chip DRAM Size: 8 GiB Channels: 2 Width: 64-bit Data Race: 6400 MT/s
Heartbeat CPU 0 instructions: 10000004 cycles: 1834160 heartbeat IPC: 5.452 cumulative IPC: 5.452 (Simulation time: 00 hr 00 min 35 sec)
Heartbeat CPU 0 instructions: 20000002 cycles: 3713852 heartbeat IPC: 5.32 cumulative IPC: 5.385 (Simulation time: 00 hr 01 min 12 sec)
Heartbeat CPU 0 instructions: 30000008 cycles: 5557110 heartbeat IPC: 5.425 cumulative IPC: 5.398 (Simulation time: 00 hr 01 min 48 sec)
Warmup finished CPU 0 instructions: 30000008 cycles: 5557111 cumulative IPC: 5.398 (Simulation time: 00 hr 01 min 48 sec)
Warmup complete CPU 0 instructions: 30000008 cycles: 5557111 cumulative IPC: 5.398 (Simulation time: 00 hr 01 min 48 sec)
Heartbeat CPU 0 instructions: 40000009 cycles: 7401450 heartbeat IPC: 5.422 cumulative IPC: 5.422 (Simulation time: 00 hr 02 min 28 sec)
*** Reached end of trace: (0, "../traces/secret_traces/crypto/crypto33.champsimtrace.xz")
Heartbeat CPU 0 instructions: 50000003 cycles: 9795560 heartbeat IPC: 4.177 cumulative IPC: 4.719 (Simulation time: 00 hr 03 min 13 sec)
Heartbeat CPU 0 instructions: 60000001 cycles: 11996066 heartbeat IPC: 4.544 cumulative IPC: 4.659 (Simulation time: 00 hr 03 min 56 sec)
Heartbeat CPU 0 instructions: 70000006 cycles: 14765333 heartbeat IPC: 3.611 cumulative IPC: 4.344 (Simulation time: 00 hr 04 min 46 sec)
Heartbeat CPU 0 instructions: 80000006 cycles: 16624778 heartbeat IPC: 5.378 cumulative IPC: 4.518 (Simulation time: 00 hr 05 min 26 sec)
Heartbeat CPU 0 instructions: 90000011 cycles: 18468932 heartbeat IPC: 5.423 cumulative IPC: 4.647 (Simulation time: 00 hr 06 min 07 sec)
*** Reached end of trace: (0, "../traces/secret_traces/crypto/crypto33.champsimtrace.xz")
Heartbeat CPU 0 instructions: 100000001 cycles: 20885493 heartbeat IPC: 4.138 cumulative IPC: 4.567 (Simulation time: 00 hr 06 min 52 sec)
Heartbeat CPU 0 instructions: 110000001 cycles: 22939174 heartbeat IPC: 4.869 cumulative IPC: 4.602 (Simulation time: 00 hr 07 min 38 sec)
Heartbeat CPU 0 instructions: 120000003 cycles: 25667413 heartbeat IPC: 3.665 cumulative IPC: 4.475 (Simulation time: 00 hr 08 min 28 sec)
Heartbeat CPU 0 instructions: 130000011 cycles: 27525570 heartbeat IPC: 5.382 cumulative IPC: 4.552 (Simulation time: 00 hr 09 min 09 sec)
Simulation finished CPU 0 instructions: 100000003 cycles: 21968460 cumulative IPC: 4.552 (Simulation time: 00 hr 09 min 09 sec)
Simulation complete CPU 0 instructions: 100000003 cycles: 21968460 cumulative IPC: 4.552 (Simulation time: 00 hr 09 min 09 sec)

ChampSim completed all CPUs

=== Simulation ===
CPU 0 runs ../traces/secret_traces/crypto/crypto33.champsimtrace.xz
Region of Interest Statistics

CPU 0 cumulative IPC: 4.552 instructions: 100000003 cycles: 21968460
CPU 0 Branch Prediction Accuracy: 99.72% MPKI: 0.5655 Average ROB Occupancy at Mispredict: 33.48
Branch type MPKI
BRANCH_DIRECT_JUMP: 0.0298
BRANCH_INDIRECT: 0.278
BRANCH_CONDITIONAL: 0.111
BRANCH_DIRECT_CALL: 0.0875
BRANCH_INDIRECT_CALL: 0.011
BRANCH_RETURN: 0.0477

LLC TOTAL        ACCESS:     231341 HIT:     122892 MISS:     108449
LLC LOAD         ACCESS:      27369 HIT:       6759 MISS:      20610
LLC RFO          ACCESS:      68849 HIT:      18140 MISS:      50709
LLC PREFETCH     ACCESS:      55180 HIT:      19547 MISS:      35633
LLC WRITE        ACCESS:      78615 HIT:      78228 MISS:        387
LLC TRANSLATION  ACCESS:       1328 HIT:        218 MISS:       1110
LLC PREFETCH REQUESTED:          0 ISSUED:          0 USEFUL:          0 USELESS:          0
LLC AVERAGE MISS LATENCY: 283.7 cycles
cpu0_DTLB TOTAL        ACCESS:   14391392 HIT:   14369079 MISS:      22313
cpu0_DTLB LOAD         ACCESS:   14391392 HIT:   14369079 MISS:      22313
cpu0_DTLB RFO          ACCESS:          0 HIT:          0 MISS:          0
cpu0_DTLB PREFETCH     ACCESS:          0 HIT:          0 MISS:          0
cpu0_DTLB WRITE        ACCESS:          0 HIT:          0 MISS:          0
cpu0_DTLB TRANSLATION  ACCESS:          0 HIT:          0 MISS:          0
cpu0_DTLB PREFETCH REQUESTED:          0 ISSUED:          0 USEFUL:          0 USELESS:          0
cpu0_DTLB AVERAGE MISS LATENCY: 14.71 cycles
cpu0_ITLB TOTAL        ACCESS:    9819306 HIT:    9811413 MISS:       7893
cpu0_ITLB LOAD         ACCESS:    9819306 HIT:    9811413 MISS:       7893
cpu0_ITLB RFO          ACCESS:          0 HIT:          0 MISS:          0
cpu0_ITLB PREFETCH     ACCESS:          0 HIT:          0 MISS:          0
cpu0_ITLB WRITE        ACCESS:          0 HIT:          0 MISS:          0
cpu0_ITLB TRANSLATION  ACCESS:          0 HIT:          0 MISS:          0
cpu0_ITLB PREFETCH REQUESTED:          0 ISSUED:          0 USEFUL:          0 USELESS:          0
cpu0_ITLB AVERAGE MISS LATENCY: 20.7 cycles
cpu0_L1D TOTAL        ACCESS:   22650063 HIT:   22327712 MISS:     322351
cpu0_L1D LOAD         ACCESS:   10065143 HIT:    9977913 MISS:      87230
cpu0_L1D RFO          ACCESS:          0 HIT:          0 MISS:          0
cpu0_L1D PREFETCH     ACCESS:     352451 HIT:     303884 MISS:      48567
cpu0_L1D WRITE        ACCESS:   12229768 HIT:   12044939 MISS:     184829
cpu0_L1D TRANSLATION  ACCESS:       2701 HIT:        976 MISS:       1725
cpu0_L1D PREFETCH REQUESTED:    4428969 ISSUED:     352451 USEFUL:       5846 USELESS:        674
cpu0_L1D AVERAGE MISS LATENCY: 83.35 cycles
cpu0_L1I TOTAL        ACCESS:   13754005 HIT:   13657596 MISS:      96409
cpu0_L1I LOAD         ACCESS:    3215663 HIT:    3191552 MISS:      24111
cpu0_L1I RFO          ACCESS:          0 HIT:          0 MISS:          0
cpu0_L1I PREFETCH     ACCESS:   10538342 HIT:   10466044 MISS:      72298
cpu0_L1I WRITE        ACCESS:          0 HIT:          0 MISS:          0
cpu0_L1I TRANSLATION  ACCESS:          0 HIT:          0 MISS:          0
cpu0_L1I PREFETCH REQUESTED:   10731973 ISSUED:   10538350 USEFUL:      39430 USELESS:      29245
cpu0_L1I AVERAGE MISS LATENCY: 38.07 cycles
cpu0_L2C TOTAL        ACCESS:     531639 HIT:     328925 MISS:     202714
cpu0_L2C LOAD         ACCESS:      74269 HIT:      38808 MISS:      35461
cpu0_L2C RFO          ACCESS:      75648 HIT:       6758 MISS:      68890
cpu0_L2C PREFETCH     ACCESS:     291302 HIT:     194267 MISS:      97035
cpu0_L2C WRITE        ACCESS:      88756 HIT:      88756 MISS:          0
cpu0_L2C TRANSLATION  ACCESS:       1664 HIT:        336 MISS:       1328
cpu0_L2C PREFETCH REQUESTED:     186195 ISSUED:     179376 USEFUL:      18291 USELESS:      13458
cpu0_L2C AVERAGE MISS LATENCY: 163.4 cycles
cpu0_STLB TOTAL        ACCESS:      13485 HIT:      11025 MISS:       2460
cpu0_STLB LOAD         ACCESS:      13485 HIT:      11025 MISS:       2460
cpu0_STLB RFO          ACCESS:          0 HIT:          0 MISS:          0
cpu0_STLB PREFETCH     ACCESS:          0 HIT:          0 MISS:          0
cpu0_STLB WRITE        ACCESS:          0 HIT:          0 MISS:          0
cpu0_STLB TRANSLATION  ACCESS:          0 HIT:          0 MISS:          0
cpu0_STLB PREFETCH REQUESTED:          0 ISSUED:          0 USEFUL:          0 USELESS:          0
cpu0_STLB AVERAGE MISS LATENCY: 179.6 cycles

DRAM Statistics

Channel 0 RQ ROW_BUFFER_HIT:      23843
  ROW_BUFFER_MISS:      30781
 AVG DBUS CONGESTED CYCLE: 3.949
WQ ROW_BUFFER_HIT: Channel 0 
  ROW_BUFFER_MISS:       3205
  FULL:      26516

Channel 1 RQ ROW_BUFFER_HIT:      23409
  ROW_BUFFER_MISS:      30011
 AVG DBUS CONGESTED CYCLE: 3.943
WQ ROW_BUFFER_HIT: Channel 1 
  ROW_BUFFER_MISS:       3238
  FULL:      25368
BERTI TO_L1: 824727 TO_L2: 4074361 TO_L2_BC_MSHR: 2437536
BERTI AVG_LAT: 116.954 NUM_TRACK_LATENCY: 96381 NUM_CANT_TRACK_LATENCY: 0
BERTI CROSS_PAGE 1052560 NO_CROSS_PAGE: 3846528
BERTI FOUND_BERTI: 782844 NO_FOUND_BERTI: 13077367
BERTI AVERAGE_ISSUED: 4.33201
CPU 0 L1I Entangling prefetcher final stats
IP accesses: 1f30 7cc00 247962 / 3216622
IP misses: 3752 dd480 147 / 25070
IP hits: 0 0 0 / 0
IP late: 91b9 246e40 30 / 11906
IP wrong: f801 3e0040 63 / 29119
miss rate: 0.0077939
coverage: 0
coverage_late: 0.474911
accuracy: 0
accuracy_late: 0.290214
discarded: 0
evicts entangled j table: 0
evicts entangled k table: 4043
max bb size: 53
formats: 1020 0 3532 1707 726 1594 0 
hist_lookups: 3002 3264 2518 2339 1976 1607 1252 956 726 595 468 326 229 107 42 0 9 4366 
hist_lookups_evict: 0.0378438 %
hist_lookups_shortlat: 18.3585 %
bb_found_hist: 0 868768 408613 195333 4259 64014 963 734 261 49 2 67 20 52 15 20 2 0 0 0 1 4 0 0 0 0 0 0 0 0 0 2 2 0 2 0 0 0 0 0 0 0 0 0 0 0 0 0 0 0 0 0 0 1 0 0 0 0 0 0 0 0 0 0 
bb_found_summary: 2625110 1543184 1.7011
entangled_found_hist: 0 515589 286019 963560 17082 1162 311 0 
entangled_found_summary: 4054311 1783723 2.27295
bb_ent_found_hist: 0 1462151 333207 257648 116707 69304 1690 50495 928 22 0 153 47 41 12 108 76 0 0 0 1 9 0 0 0 0 0 0 0 0 0 2 2 0 3 0 0 0 0 0 0 0 0 0 0 0 0 0 0 0 0 0 0 1 0 0 0 0 0 0 0 0 0 0 
bb_ent_found_summary: 4092358 2292607 1.78503
