WARNING: physical memory size is smaller than virtual memory size.

*** ChampSim Multicore Out-of-Order Simulator ***
Warmup Instructions: 30000000
Simulation Instructions: 100000000
Number of CPUs: 1
Page size: 4096

BTB:
Basic BTB sets: 1024 ways: 8
Indirect:
history lengths: 0 0 10 16 27 44 60 96 109 219 449 487 714 1313 2146 3881 
ITTAGE tables: 64768 bytes;Region table: 240 bytes;IUM: 384 bytes;Total Storage= 65392 bytes;
RAS:
RAS size: 64
Berti Prefetcher
CPU 0 Entangling prefetcher
Off-chip DRAM Size: 8 GiB Channels: 2 Width: 64-bit Data Race: 6400 MT/s
Heartbeat CPU 0 instructions: 10000003 cycles: 1692649 heartbeat IPC: 5.908 cumulative IPC: 5.908 (Simulation time: 00 hr 00 min 34 sec)
Heartbeat CPU 0 instructions: 20000005 cycles: 3360502 heartbeat IPC: 5.996 cumulative IPC: 5.951 (Simulation time: 00 hr 01 min 04 sec)
Heartbeat CPU 0 instructions: 30000007 cycles: 5058598 heartbeat IPC: 5.889 cumulative IPC: 5.93 (Simulation time: 00 hr 01 min 39 sec)
Warmup finished CPU 0 instructions: 30000007 cycles: 5058599 cumulative IPC: 5.93 (Simulation time: 00 hr 01 min 39 sec)
Warmup complete CPU 0 instructions: 30000007 cycles: 5058599 cumulative IPC: 5.93 (Simulation time: 00 hr 01 min 39 sec)
Heartbeat CPU 0 instructions: 40000005 cycles: 8902581 heartbeat IPC: 2.601 cumulative IPC: 2.601 (Simulation time: 00 hr 02 min 35 sec)
Heartbeat CPU 0 instructions: 50000005 cycles: 11057953 heartbeat IPC: 4.64 cumulative IPC: 3.334 (Simulation time: 00 hr 03 min 14 sec)
Heartbeat CPU 0 instructions: 60000003 cycles: 12865309 heartbeat IPC: 5.533 cumulative IPC: 3.843 (Simulation time: 00 hr 03 min 49 sec)
Heartbeat CPU 0 instructions: 70000001 cycles: 15171779 heartbeat IPC: 4.336 cumulative IPC: 3.955 (Simulation time: 00 hr 04 min 29 sec)
Heartbeat CPU 0 instructions: 80000008 cycles: 19238042 heartbeat IPC: 2.459 cumulative IPC: 3.526 (Simulation time: 00 hr 05 min 28 sec)
Heartbeat CPU 0 instructions: 90000003 cycles: 22546021 heartbeat IPC: 3.023 cumulative IPC: 3.431 (Simulation time: 00 hr 06 min 19 sec)
Heartbeat CPU 0 instructions: 100000009 cycles: 24449265 heartbeat IPC: 5.254 cumulative IPC: 3.61 (Simulation time: 00 hr 06 min 55 sec)
*** Reached end of trace: (0, "../traces/secret_traces/crypto/crypto16.champsimtrace.xz")
Heartbeat CPU 0 instructions: 110000006 cycles: 27599179 heartbeat IPC: 3.175 cumulative IPC: 3.549 (Simulation time: 00 hr 07 min 45 sec)
Heartbeat CPU 0 instructions: 120000000 cycles: 30667590 heartbeat IPC: 3.259 cumulative IPC: 3.514 (Simulation time: 00 hr 08 min 31 sec)
Heartbeat CPU 0 instructions: 130000003 cycles: 32442727 heartbeat IPC: 5.633 cumulative IPC: 3.652 (Simulation time: 00 hr 09 min 05 sec)
Simulation finished CPU 0 instructions: 100000008 cycles: 27384130 cumulative IPC: 3.652 (Simulation time: 00 hr 09 min 05 sec)
Simulation complete CPU 0 instructions: 100000008 cycles: 27384130 cumulative IPC: 3.652 (Simulation time: 00 hr 09 min 05 sec)

ChampSim completed all CPUs

=== Simulation ===
CPU 0 runs ../traces/secret_traces/crypto/crypto16.champsimtrace.xz
Region of Interest Statistics

CPU 0 cumulative IPC: 3.652 instructions: 100000008 cycles: 27384130
CPU 0 Branch Prediction Accuracy: 96.62% MPKI: 4.355 Average ROB Occupancy at Mispredict: 29.95
Branch type MPKI
BRANCH_DIRECT_JUMP: 0.0933
BRANCH_INDIRECT: 1.42
BRANCH_CONDITIONAL: 1.86
BRANCH_DIRECT_CALL: 0.136
BRANCH_INDIRECT_CALL: 0.746
BRANCH_RETURN: 0.0918

LLC TOTAL        ACCESS:     178102 HIT:     123285 MISS:      54817
LLC LOAD         ACCESS:      23018 HIT:      11620 MISS:      11398
LLC RFO          ACCESS:      31417 HIT:      16966 MISS:      14451
LLC PREFETCH     ACCESS:      69977 HIT:      43683 MISS:      26294
LLC WRITE        ACCESS:      52004 HIT:      50461 MISS:       1543
LLC TRANSLATION  ACCESS:       1686 HIT:        555 MISS:       1131
LLC PREFETCH REQUESTED:          0 ISSUED:          0 USEFUL:          0 USELESS:          0
LLC AVERAGE MISS LATENCY: 137.6 cycles
cpu0_DTLB TOTAL        ACCESS:   16170011 HIT:   16074432 MISS:      95579
cpu0_DTLB LOAD         ACCESS:   16170011 HIT:   16074432 MISS:      95579
cpu0_DTLB RFO          ACCESS:          0 HIT:          0 MISS:          0
cpu0_DTLB PREFETCH     ACCESS:          0 HIT:          0 MISS:          0
cpu0_DTLB WRITE        ACCESS:          0 HIT:          0 MISS:          0
cpu0_DTLB TRANSLATION  ACCESS:          0 HIT:          0 MISS:          0
cpu0_DTLB PREFETCH REQUESTED:          0 ISSUED:          0 USEFUL:          0 USELESS:          0
cpu0_DTLB AVERAGE MISS LATENCY: 6.566 cycles
cpu0_ITLB TOTAL        ACCESS:    3079483 HIT:    3058146 MISS:      21337
cpu0_ITLB LOAD         ACCESS:    3079483 HIT:    3058146 MISS:      21337
cpu0_ITLB RFO          ACCESS:          0 HIT:          0 MISS:          0
cpu0_ITLB PREFETCH     ACCESS:          0 HIT:          0 MISS:          0
cpu0_ITLB WRITE        ACCESS:          0 HIT:          0 MISS:          0
cpu0_ITLB TRANSLATION  ACCESS:          0 HIT:          0 MISS:          0
cpu0_ITLB PREFETCH REQUESTED:          0 ISSUED:          0 USEFUL:          0 USELESS:          0
cpu0_ITLB AVERAGE MISS LATENCY: 8.595 cycles
cpu0_L1D TOTAL        ACCESS:   24969347 HIT:   23808688 MISS:    1160659
cpu0_L1D LOAD         ACCESS:   18738887 HIT:   17963647 MISS:     775240
cpu0_L1D RFO          ACCESS:          0 HIT:          0 MISS:          0
cpu0_L1D PREFETCH     ACCESS:     308820 HIT:     217141 MISS:      91679
cpu0_L1D WRITE        ACCESS:    5919273 HIT:    5627609 MISS:     291664
cpu0_L1D TRANSLATION  ACCESS:       2367 HIT:        291 MISS:       2076
cpu0_L1D PREFETCH REQUESTED:     523405 ISSUED:     308820 USEFUL:      12127 USELESS:       2539
cpu0_L1D AVERAGE MISS LATENCY: 8.245 cycles
cpu0_L1I TOTAL        ACCESS:    4592104 HIT:    3961768 MISS:     630336
cpu0_L1I LOAD         ACCESS:    1444572 HIT:    1243913 MISS:     200659
cpu0_L1I RFO          ACCESS:          0 HIT:          0 MISS:          0
cpu0_L1I PREFETCH     ACCESS:    3147532 HIT:    2717855 MISS:     429677
cpu0_L1I WRITE        ACCESS:          0 HIT:          0 MISS:          0
cpu0_L1I TRANSLATION  ACCESS:          0 HIT:          0 MISS:          0
cpu0_L1I PREFETCH REQUESTED:    5660543 ISSUED:    3147532 USEFUL:     213716 USELESS:     191162
cpu0_L1I AVERAGE MISS LATENCY: 14.25 cycles
cpu0_L2C TOTAL        ACCESS:    2469458 HIT:    2310162 MISS:     159296
cpu0_L2C LOAD         ACCESS:     612160 HIT:     585684 MISS:      26476
cpu0_L2C RFO          ACCESS:     112363 HIT:      80679 MISS:      31684
cpu0_L2C PREFETCH     ACCESS:    1530662 HIT:    1431216 MISS:      99446
cpu0_L2C WRITE        ACCESS:     212203 HIT:     212199 MISS:          4
cpu0_L2C TRANSLATION  ACCESS:       2070 HIT:        384 MISS:       1686
cpu0_L2C PREFETCH REQUESTED:    1102708 ISSUED:    1040114 USEFUL:      21802 USELESS:      15285
cpu0_L2C AVERAGE MISS LATENCY: 62.39 cycles
cpu0_STLB TOTAL        ACCESS:      74599 HIT:      72396 MISS:       2203
cpu0_STLB LOAD         ACCESS:      74599 HIT:      72396 MISS:       2203
cpu0_STLB RFO          ACCESS:          0 HIT:          0 MISS:          0
cpu0_STLB PREFETCH     ACCESS:          0 HIT:          0 MISS:          0
cpu0_STLB WRITE        ACCESS:          0 HIT:          0 MISS:          0
cpu0_STLB TRANSLATION  ACCESS:          0 HIT:          0 MISS:          0
cpu0_STLB PREFETCH REQUESTED:          0 ISSUED:          0 USEFUL:          0 USELESS:          0
cpu0_STLB AVERAGE MISS LATENCY: 160.9 cycles

DRAM Statistics

Channel 0 RQ ROW_BUFFER_HIT:       9296
  ROW_BUFFER_MISS:      17812
 AVG DBUS CONGESTED CYCLE: 3.772
WQ ROW_BUFFER_HIT: Channel 0 
  ROW_BUFFER_MISS:       2110
  FULL:       7457

Channel 1 RQ ROW_BUFFER_HIT:       9036
  ROW_BUFFER_MISS:      17122
 AVG DBUS CONGESTED CYCLE: 3.761
WQ ROW_BUFFER_HIT: Channel 1 
  ROW_BUFFER_MISS:       2181
  FULL:       7044
BERTI TO_L1: 372309 TO_L2: 286514 TO_L2_BC_MSHR: 10107
BERTI AVG_LAT: 14.0536 NUM_TRACK_LATENCY: 575479 NUM_CANT_TRACK_LATENCY: 0
BERTI CROSS_PAGE 98388 NO_CROSS_PAGE: 560435
BERTI FOUND_BERTI: 2152633 NO_FOUND_BERTI: 21875659
BERTI AVERAGE_ISSUED: 3.54515
CPU 0 L1I Entangling prefetcher final stats
IP accesses: b2c9 2cb240 5410 / 1451725
IP misses: 80f0 203c00 514 / 207812
IP hits: 0 0 0 / 0
IP late: e2a0 38a800 217 / 89699
IP wrong: e220 388800 558 / 189704
miss rate: 0.143149
coverage: 0
coverage_late: 0.431636
accuracy: 0
accuracy_late: 0.321039
discarded: 0
evicts entangled j table: 0
evicts entangled k table: 24943
max bb size: 67
formats: 169 1203 28745 6048 3406 7979 0 
hist_lookups: 18247 19279 16228 15660 13494 10732 8536 6261 4775 3599 2612 1745 1029 497 218 0 6 17450 
hist_lookups_evict: 0.00427448 %
hist_lookups_shortlat: 12.4317 %
bb_found_hist: 0 289195 160952 87802 53437 24792 18368 9399 7818 3719 2493 1151 986 1313 513 521 464 199 313 215 327 171 323 0 0 27 0 0 0 60 0 0 0 0 0 0 0 0 0 0 100 2 0 0 0 24 0 0 0 0 0 0 0 0 0 0 0 0 0 0 0 8 15 22 
bb_found_summary: 1613862 664729 2.42785
entangled_found_hist: 0 142801 144079 310243 30705 8239 1924 0 
entangled_found_summary: 1537247 637991 2.40952
bb_ent_found_hist: 0 441319 240784 141195 86227 57250 28162 21767 24545 8516 8718 4124 1349 409 767 531 760 0 1233 1845 228 303 102 0 0 15 0 0 0 140 0 0 0 0 0 0 0 0 0 0 53 10 0 0 0 58 0 0 0 0 0 0 0 0 0 0 0 0 0 0 0 5 25 19 
bb_ent_found_summary: 2839930 1070459 2.65301
