WARNING: physical memory size is smaller than virtual memory size.

*** ChampSim Multicore Out-of-Order Simulator ***
Warmup Instructions: 30000000
Simulation Instructions: 100000000
Number of CPUs: 1
Page size: 4096

BTB:
Basic BTB sets: 1024 ways: 8
Indirect:
history lengths: 0 0 10 16 27 44 60 96 109 219 449 487 714 1313 2146 3881 
ITTAGE tables: 64768 bytes;Region table: 240 bytes;IUM: 384 bytes;Total Storage= 65392 bytes;
RAS:
RAS size: 64
Berti Prefetcher
CPU 0 Entangling prefetcher
Off-chip DRAM Size: 8 GiB Channels: 2 Width: 64-bit Data Race: 6400 MT/s
Heartbeat CPU 0 instructions: 10000002 cycles: 1715466 heartbeat IPC: 5.829 cumulative IPC: 5.829 (Simulation time: 00 hr 00 min 32 sec)
Heartbeat CPU 0 instructions: 20000003 cycles: 3432068 heartbeat IPC: 5.825 cumulative IPC: 5.827 (Simulation time: 00 hr 01 min 01 sec)
*** Reached end of trace: (0, "../traces/secret_traces/crypto/crypto46.champsimtrace.xz")
Heartbeat CPU 0 instructions: 30000005 cycles: 5152022 heartbeat IPC: 5.814 cumulative IPC: 5.823 (Simulation time: 00 hr 01 min 33 sec)
Warmup finished CPU 0 instructions: 30000005 cycles: 5152023 cumulative IPC: 5.823 (Simulation time: 00 hr 01 min 33 sec)
Warmup complete CPU 0 instructions: 30000005 cycles: 5152023 cumulative IPC: 5.823 (Simulation time: 00 hr 01 min 33 sec)
Heartbeat CPU 0 instructions: 40000009 cycles: 11220576 heartbeat IPC: 1.648 cumulative IPC: 1.648 (Simulation time: 00 hr 02 min 52 sec)
*** Reached end of trace: (0, "../traces/secret_traces/crypto/crypto46.champsimtrace.xz")
Heartbeat CPU 0 instructions: 50000000 cycles: 16314539 heartbeat IPC: 1.963 cumulative IPC: 1.792 (Simulation time: 00 hr 04 min 01 sec)
Heartbeat CPU 0 instructions: 60000000 cycles: 21896471 heartbeat IPC: 1.791 cumulative IPC: 1.792 (Simulation time: 00 hr 05 min 19 sec)
*** Reached end of trace: (0, "../traces/secret_traces/crypto/crypto46.champsimtrace.xz")
Heartbeat CPU 0 instructions: 70000003 cycles: 27742935 heartbeat IPC: 1.71 cumulative IPC: 1.771 (Simulation time: 00 hr 06 min 36 sec)
Heartbeat CPU 0 instructions: 80000000 cycles: 33026152 heartbeat IPC: 1.893 cumulative IPC: 1.794 (Simulation time: 00 hr 07 min 52 sec)
Heartbeat CPU 0 instructions: 90000000 cycles: 39121145 heartbeat IPC: 1.641 cumulative IPC: 1.766 (Simulation time: 00 hr 09 min 15 sec)
*** Reached end of trace: (0, "../traces/secret_traces/crypto/crypto46.champsimtrace.xz")
Heartbeat CPU 0 instructions: 100000001 cycles: 44133793 heartbeat IPC: 1.995 cumulative IPC: 1.796 (Simulation time: 00 hr 10 min 24 sec)
Heartbeat CPU 0 instructions: 110000000 cycles: 50216828 heartbeat IPC: 1.644 cumulative IPC: 1.775 (Simulation time: 00 hr 11 min 49 sec)
*** Reached end of trace: (0, "../traces/secret_traces/crypto/crypto46.champsimtrace.xz")
Heartbeat CPU 0 instructions: 120000000 cycles: 55225614 heartbeat IPC: 1.996 cumulative IPC: 1.797 (Simulation time: 00 hr 12 min 58 sec)
Heartbeat CPU 0 instructions: 130000005 cycles: 60740400 heartbeat IPC: 1.813 cumulative IPC: 1.799 (Simulation time: 00 hr 14 min 12 sec)
Simulation finished CPU 0 instructions: 100000000 cycles: 55588378 cumulative IPC: 1.799 (Simulation time: 00 hr 14 min 12 sec)
Simulation complete CPU 0 instructions: 100000000 cycles: 55588378 cumulative IPC: 1.799 (Simulation time: 00 hr 14 min 12 sec)

ChampSim completed all CPUs

=== Simulation ===
CPU 0 runs ../traces/secret_traces/crypto/crypto46.champsimtrace.xz
Region of Interest Statistics

CPU 0 cumulative IPC: 1.799 instructions: 100000000 cycles: 55588378
CPU 0 Branch Prediction Accuracy: 98.69% MPKI: 0.9658 Average ROB Occupancy at Mispredict: 36.48
Branch type MPKI
BRANCH_DIRECT_JUMP: 0.0575
BRANCH_INDIRECT: 0.513
BRANCH_CONDITIONAL: 0.117
BRANCH_DIRECT_CALL: 0.167
BRANCH_INDIRECT_CALL: 0.0204
BRANCH_RETURN: 0.0908

LLC TOTAL        ACCESS:     461170 HIT:     245345 MISS:     215825
LLC LOAD         ACCESS:      52880 HIT:      12148 MISS:      40732
LLC RFO          ACCESS:     139581 HIT:      39710 MISS:      99871
LLC PREFETCH     ACCESS:     108342 HIT:      36072 MISS:      72270
LLC WRITE        ACCESS:     157695 HIT:     157032 MISS:        663
LLC TRANSLATION  ACCESS:       2672 HIT:        383 MISS:       2289
LLC PREFETCH REQUESTED:          0 ISSUED:          0 USEFUL:          0 USELESS:          0
LLC AVERAGE MISS LATENCY: 284.9 cycles
cpu0_DTLB TOTAL        ACCESS:   16798187 HIT:   16752911 MISS:      45276
cpu0_DTLB LOAD         ACCESS:   16798187 HIT:   16752911 MISS:      45276
cpu0_DTLB RFO          ACCESS:          0 HIT:          0 MISS:          0
cpu0_DTLB PREFETCH     ACCESS:          0 HIT:          0 MISS:          0
cpu0_DTLB WRITE        ACCESS:          0 HIT:          0 MISS:          0
cpu0_DTLB TRANSLATION  ACCESS:          0 HIT:          0 MISS:          0
cpu0_DTLB PREFETCH REQUESTED:          0 ISSUED:          0 USEFUL:          0 USELESS:          0
cpu0_DTLB AVERAGE MISS LATENCY: 15.16 cycles
cpu0_ITLB TOTAL        ACCESS:     765240 HIT:     749862 MISS:      15378
cpu0_ITLB LOAD         ACCESS:     765240 HIT:     749862 MISS:      15378
cpu0_ITLB RFO          ACCESS:          0 HIT:          0 MISS:          0
cpu0_ITLB PREFETCH     ACCESS:          0 HIT:          0 MISS:          0
cpu0_ITLB WRITE        ACCESS:          0 HIT:          0 MISS:          0
cpu0_ITLB TRANSLATION  ACCESS:          0 HIT:          0 MISS:          0
cpu0_ITLB PREFETCH REQUESTED:          0 ISSUED:          0 USEFUL:          0 USELESS:          0
cpu0_ITLB AVERAGE MISS LATENCY: 21.51 cycles
cpu0_L1D TOTAL        ACCESS:   20229277 HIT:   19491380 MISS:     737897
cpu0_L1D LOAD         ACCESS:   13537042 HIT:   13363649 MISS:     173393
cpu0_L1D RFO          ACCESS:          0 HIT:          0 MISS:          0
cpu0_L1D PREFETCH     ACCESS:    2570723 HIT:    2383965 MISS:     186758
cpu0_L1D WRITE        ACCESS:    4115997 HIT:    3741789 MISS:     374208
cpu0_L1D TRANSLATION  ACCESS:       5515 HIT:       1977 MISS:       3538
cpu0_L1D PREFETCH REQUESTED:   10602130 ISSUED:    2570723 USEFUL:       9700 USELESS:       1176
cpu0_L1D AVERAGE MISS LATENCY: 71.93 cycles
cpu0_L1I TOTAL        ACCESS:    1114881 HIT:     937153 MISS:     177728
cpu0_L1I LOAD         ACCESS:     362499 HIT:     323112 MISS:      39387
cpu0_L1I RFO          ACCESS:          0 HIT:          0 MISS:          0
cpu0_L1I PREFETCH     ACCESS:     752382 HIT:     614041 MISS:     138341
cpu0_L1I WRITE        ACCESS:          0 HIT:          0 MISS:          0
cpu0_L1I TRANSLATION  ACCESS:          0 HIT:          0 MISS:          0
cpu0_L1I PREFETCH REQUESTED:    1193936 ISSUED:     752382 USEFUL:      78338 USELESS:      54265
cpu0_L1I AVERAGE MISS LATENCY: 43.76 cycles
cpu0_L2C TOTAL        ACCESS:    1212920 HIT:     809150 MISS:     403770
cpu0_L2C LOAD         ACCESS:     141206 HIT:      72730 MISS:      68476
cpu0_L2C RFO          ACCESS:     152582 HIT:      12887 MISS:     139695
cpu0_L2C PREFETCH     ACCESS:     738853 HIT:     545926 MISS:     192927
cpu0_L2C WRITE        ACCESS:     176872 HIT:     176872 MISS:          0
cpu0_L2C TRANSLATION  ACCESS:       3407 HIT:        735 MISS:       2672
cpu0_L2C PREFETCH REQUESTED:     447989 ISSUED:     432130 USEFUL:      35395 USELESS:      26120
cpu0_L2C AVERAGE MISS LATENCY: 164.1 cycles
cpu0_STLB TOTAL        ACCESS:      26436 HIT:      21411 MISS:       5025
cpu0_STLB LOAD         ACCESS:      26436 HIT:      21411 MISS:       5025
cpu0_STLB RFO          ACCESS:          0 HIT:          0 MISS:          0
cpu0_STLB PREFETCH     ACCESS:          0 HIT:          0 MISS:          0
cpu0_STLB WRITE        ACCESS:          0 HIT:          0 MISS:          0
cpu0_STLB TRANSLATION  ACCESS:          0 HIT:          0 MISS:          0
cpu0_STLB PREFETCH REQUESTED:          0 ISSUED:          0 USEFUL:          0 USELESS:          0
cpu0_STLB AVERAGE MISS LATENCY: 184.6 cycles

DRAM Statistics

Channel 0 RQ ROW_BUFFER_HIT:      47644
  ROW_BUFFER_MISS:      60995
 AVG DBUS CONGESTED CYCLE: 3.947
WQ ROW_BUFFER_HIT: Channel 0 
  ROW_BUFFER_MISS:       6255
  FULL:      52154

Channel 1 RQ ROW_BUFFER_HIT:      46912
  ROW_BUFFER_MISS:      59570
 AVG DBUS CONGESTED CYCLE: 3.938
WQ ROW_BUFFER_HIT: Channel 1 
  ROW_BUFFER_MISS:       6385
  FULL:      49883
BERTI TO_L1: 2096486 TO_L2: 9758814 TO_L2_BC_MSHR: 4718046
BERTI AVG_LAT: 127.706 NUM_TRACK_LATENCY: 170414 NUM_CANT_TRACK_LATENCY: 0
BERTI CROSS_PAGE 1988803 NO_CROSS_PAGE: 9866497
BERTI FOUND_BERTI: 3697335 NO_FOUND_BERTI: 14560622
BERTI AVERAGE_ISSUED: 3.13394
CPU 0 L1I Entangling prefetcher final stats
IP accesses: 6f71 1bdc40 1942 / 365380
IP misses: e9db 3a76c0 246 / 42268
IP hits: 0 0 0 / 0
IP late: 59b0 166c00 53 / 19685
IP wrong: f801 3e0040 118 / 54020
miss rate: 0.115683
coverage: 0
coverage_late: 0.465719
accuracy: 0
accuracy_late: 0.267079
discarded: 0
evicts entangled j table: 0
evicts entangled k table: 6990
max bb size: 53
formats: 1719 0 5632 2732 1117 2086 0 
hist_lookups: 4238 4977 4035 3828 3366 2781 2162 1579 1259 1054 777 591 371 175 90 0 3 7001 
hist_lookups_evict: 0.00783556 %
hist_lookups_shortlat: 18.2856 %
bb_found_hist: 0 94283 38031 19222 8949 4085 2089 1715 516 110 6 109 39 104 28 0 4 0 0 0 0 8 0 0 0 0 0 0 0 0 0 4 4 0 4 0 0 0 0 0 0 0 0 0 0 0 0 0 0 0 0 0 0 4 0 0 0 0 0 0 0 0 0 0 
bb_found_summary: 318192 169314 1.87931
entangled_found_hist: 0 48704 38098 67773 12951 2317 1067 0 
entangled_found_summary: 398010 170910 2.32877
bb_ent_found_hist: 0 137673 57139 40922 16182 10556 4335 2250 1739 93 0 207 91 113 20 0 4 0 0 0 0 23 0 0 0 0 0 0 0 0 0 8 4 0 8 0 0 0 0 0 0 0 0 0 0 0 0 0 0 0 0 0 0 7 0 0 0 0 0 0 0 0 0 0 
bb_ent_found_summary: 555418 271374 2.04669
