WARNING: physical memory size is smaller than virtual memory size.

*** ChampSim Multicore Out-of-Order Simulator ***
Warmup Instructions: 30000000
Simulation Instructions: 100000000
Number of CPUs: 1
Page size: 4096

BTB:
Basic BTB sets: 1024 ways: 8
Indirect:
history lengths: 0 0 10 16 27 44 60 96 109 219 449 487 714 1313 2146 3881 
ITTAGE tables: 64768 bytes;Region table: 240 bytes;IUM: 384 bytes;Total Storage= 65392 bytes;
RAS:
RAS size: 64
Berti Prefetcher
CPU 0 Entangling prefetcher
Off-chip DRAM Size: 8 GiB Channels: 2 Width: 64-bit Data Race: 6400 MT/s
Heartbeat CPU 0 instructions: 10000001 cycles: 1739320 heartbeat IPC: 5.749 cumulative IPC: 5.749 (Simulation time: 00 hr 00 min 39 sec)
Heartbeat CPU 0 instructions: 20000005 cycles: 3488454 heartbeat IPC: 5.717 cumulative IPC: 5.733 (Simulation time: 00 hr 01 min 15 sec)
Heartbeat CPU 0 instructions: 30000000 cycles: 5190771 heartbeat IPC: 5.874 cumulative IPC: 5.779 (Simulation time: 00 hr 01 min 48 sec)
Warmup finished CPU 0 instructions: 30000000 cycles: 5190772 cumulative IPC: 5.779 (Simulation time: 00 hr 01 min 48 sec)
Warmup complete CPU 0 instructions: 30000000 cycles: 5190772 cumulative IPC: 5.779 (Simulation time: 00 hr 01 min 48 sec)
Heartbeat CPU 0 instructions: 40000003 cycles: 6898698 heartbeat IPC: 5.855 cumulative IPC: 5.855 (Simulation time: 00 hr 02 min 22 sec)
Heartbeat CPU 0 instructions: 50000000 cycles: 8609826 heartbeat IPC: 5.844 cumulative IPC: 5.85 (Simulation time: 00 hr 02 min 57 sec)
Heartbeat CPU 0 instructions: 60000000 cycles: 10323011 heartbeat IPC: 5.837 cumulative IPC: 5.845 (Simulation time: 00 hr 03 min 31 sec)
Heartbeat CPU 0 instructions: 70000005 cycles: 12028556 heartbeat IPC: 5.863 cumulative IPC: 5.85 (Simulation time: 00 hr 04 min 05 sec)
*** Reached end of trace: (0, "../traces/secret_traces/crypto/crypto63.champsimtrace.xz")
Heartbeat CPU 0 instructions: 80000005 cycles: 14689756 heartbeat IPC: 3.758 cumulative IPC: 5.264 (Simulation time: 00 hr 04 min 48 sec)
Heartbeat CPU 0 instructions: 90000003 cycles: 17177805 heartbeat IPC: 4.019 cumulative IPC: 5.005 (Simulation time: 00 hr 05 min 34 sec)
Heartbeat CPU 0 instructions: 100000000 cycles: 19042978 heartbeat IPC: 5.361 cumulative IPC: 5.053 (Simulation time: 00 hr 06 min 12 sec)
Heartbeat CPU 0 instructions: 110000005 cycles: 20763862 heartbeat IPC: 5.811 cumulative IPC: 5.137 (Simulation time: 00 hr 06 min 47 sec)
Heartbeat CPU 0 instructions: 120000000 cycles: 22473406 heartbeat IPC: 5.85 cumulative IPC: 5.208 (Simulation time: 00 hr 07 min 21 sec)
Heartbeat CPU 0 instructions: 130000001 cycles: 24184806 heartbeat IPC: 5.843 cumulative IPC: 5.265 (Simulation time: 00 hr 07 min 56 sec)
Simulation finished CPU 0 instructions: 100000001 cycles: 18994035 cumulative IPC: 5.265 (Simulation time: 00 hr 07 min 56 sec)
Simulation complete CPU 0 instructions: 100000001 cycles: 18994035 cumulative IPC: 5.265 (Simulation time: 00 hr 07 min 56 sec)

ChampSim completed all CPUs

=== Simulation ===
CPU 0 runs ../traces/secret_traces/crypto/crypto63.champsimtrace.xz
Region of Interest Statistics

CPU 0 cumulative IPC: 5.265 instructions: 100000001 cycles: 18994035
CPU 0 Branch Prediction Accuracy: 99.41% MPKI: 0.3043 Average ROB Occupancy at Mispredict: 32.03
Branch type MPKI
BRANCH_DIRECT_JUMP: 0.0151
BRANCH_INDIRECT: 0.144
BRANCH_CONDITIONAL: 0.071
BRANCH_DIRECT_CALL: 0.0442
BRANCH_INDIRECT_CALL: 0.00536
BRANCH_RETURN: 0.0244

LLC TOTAL        ACCESS:     116538 HIT:      61512 MISS:      55026
LLC LOAD         ACCESS:      14042 HIT:       3424 MISS:      10618
LLC RFO          ACCESS:      34449 HIT:       8867 MISS:      25582
LLC PREFETCH     ACCESS:      27982 HIT:       9936 MISS:      18046
LLC WRITE        ACCESS:      39371 HIT:      39194 MISS:        177
LLC TRANSLATION  ACCESS:        694 HIT:         91 MISS:        603
LLC PREFETCH REQUESTED:          0 ISSUED:          0 USEFUL:          0 USELESS:          0
LLC AVERAGE MISS LATENCY: 276.5 cycles
cpu0_DTLB TOTAL        ACCESS:    9505648 HIT:    9494108 MISS:      11540
cpu0_DTLB LOAD         ACCESS:    9505648 HIT:    9494108 MISS:      11540
cpu0_DTLB RFO          ACCESS:          0 HIT:          0 MISS:          0
cpu0_DTLB PREFETCH     ACCESS:          0 HIT:          0 MISS:          0
cpu0_DTLB WRITE        ACCESS:          0 HIT:          0 MISS:          0
cpu0_DTLB TRANSLATION  ACCESS:          0 HIT:          0 MISS:          0
cpu0_DTLB PREFETCH REQUESTED:          0 ISSUED:          0 USEFUL:          0 USELESS:          0
cpu0_DTLB AVERAGE MISS LATENCY: 15.39 cycles
cpu0_ITLB TOTAL        ACCESS:    6156339 HIT:    6152083 MISS:       4256
cpu0_ITLB LOAD         ACCESS:    6156339 HIT:    6152083 MISS:       4256
cpu0_ITLB RFO          ACCESS:          0 HIT:          0 MISS:          0
cpu0_ITLB PREFETCH     ACCESS:          0 HIT:          0 MISS:          0
cpu0_ITLB WRITE        ACCESS:          0 HIT:          0 MISS:          0
cpu0_ITLB TRANSLATION  ACCESS:          0 HIT:          0 MISS:          0
cpu0_ITLB PREFETCH REQUESTED:          0 ISSUED:          0 USEFUL:          0 USELESS:          0
cpu0_ITLB AVERAGE MISS LATENCY: 21.68 cycles
cpu0_L1D TOTAL        ACCESS:   11791929 HIT:   11630286 MISS:     161643
cpu0_L1D LOAD         ACCESS:    6249311 HIT:    6205850 MISS:      43461
cpu0_L1D RFO          ACCESS:          0 HIT:          0 MISS:          0
cpu0_L1D PREFETCH     ACCESS:     188726 HIT:     164431 MISS:      24295
cpu0_L1D WRITE        ACCESS:    5352450 HIT:    5259481 MISS:      92969
cpu0_L1D TRANSLATION  ACCESS:       1442 HIT:        524 MISS:        918
cpu0_L1D PREFETCH REQUESTED:    2221994 ISSUED:     188726 USEFUL:       2640 USELESS:        327
cpu0_L1D AVERAGE MISS LATENCY: 82.37 cycles
cpu0_L1I TOTAL        ACCESS:    9019505 HIT:    8964274 MISS:      55231
cpu0_L1I LOAD         ACCESS:    3762520 HIT:    3746423 MISS:      16097
cpu0_L1I RFO          ACCESS:          0 HIT:          0 MISS:          0
cpu0_L1I PREFETCH     ACCESS:    5256985 HIT:    5217851 MISS:      39134
cpu0_L1I WRITE        ACCESS:          0 HIT:          0 MISS:          0
cpu0_L1I TRANSLATION  ACCESS:          0 HIT:          0 MISS:          0
cpu0_L1I PREFETCH REQUESTED:   18905067 ISSUED:    5256985 USEFUL:      20394 USELESS:      16400
cpu0_L1I AVERAGE MISS LATENCY: 33.68 cycles
cpu0_L2C TOTAL        ACCESS:     278660 HIT:     175646 MISS:     103014
cpu0_L2C LOAD         ACCESS:      40377 HIT:      22264 MISS:      18113
cpu0_L2C RFO          ACCESS:      38088 HIT:       3609 MISS:      34479
cpu0_L2C PREFETCH     ACCESS:     154861 HIT:     105133 MISS:      49728
cpu0_L2C WRITE        ACCESS:      44447 HIT:      44447 MISS:          0
cpu0_L2C TRANSLATION  ACCESS:        887 HIT:        193 MISS:        694
cpu0_L2C PREFETCH REQUESTED:      98943 ISSUED:      96295 USEFUL:       9428 USELESS:       6706
cpu0_L2C AVERAGE MISS LATENCY: 159.7 cycles
cpu0_STLB TOTAL        ACCESS:       7058 HIT:       5745 MISS:       1313
cpu0_STLB LOAD         ACCESS:       7058 HIT:       5745 MISS:       1313
cpu0_STLB RFO          ACCESS:          0 HIT:          0 MISS:          0
cpu0_STLB PREFETCH     ACCESS:          0 HIT:          0 MISS:          0
cpu0_STLB WRITE        ACCESS:          0 HIT:          0 MISS:          0
cpu0_STLB TRANSLATION  ACCESS:          0 HIT:          0 MISS:          0
cpu0_STLB PREFETCH REQUESTED:          0 ISSUED:          0 USEFUL:          0 USELESS:          0
cpu0_STLB AVERAGE MISS LATENCY: 187.5 cycles

DRAM Statistics

Channel 0 RQ ROW_BUFFER_HIT:      11909
  ROW_BUFFER_MISS:      15790
 AVG DBUS CONGESTED CYCLE: 3.947
WQ ROW_BUFFER_HIT: Channel 0 
  ROW_BUFFER_MISS:       1688
  FULL:      13261

Channel 1 RQ ROW_BUFFER_HIT:      11743
  ROW_BUFFER_MISS:      15402
 AVG DBUS CONGESTED CYCLE: 3.94
WQ ROW_BUFFER_HIT: Channel 1 
  ROW_BUFFER_MISS:       1765
  FULL:      12676
BERTI TO_L1: 576253 TO_L2: 2103916 TO_L2_BC_MSHR: 1213913
BERTI AVG_LAT: 90.7334 NUM_TRACK_LATENCY: 63790 NUM_CANT_TRACK_LATENCY: 0
BERTI CROSS_PAGE 531387 NO_CROSS_PAGE: 2148782
BERTI FOUND_BERTI: 893155 NO_FOUND_BERTI: 8029249
BERTI AVERAGE_ISSUED: 4.6334
CPU 0 L1I Entangling prefetcher final stats
IP accesses: 1f31 7cc40 188938 / 3762825
IP misses: 7bf5 1efd40 104 / 16402
IP hits: 0 0 0 / 0
IP late: 4a86 12a180 17 / 7544
IP wrong: f9eb 3e7ac0 32 / 16341
miss rate: 0.00435896
coverage: 0
coverage_late: 0.459944
accuracy: 0
accuracy_late: 0.315847
discarded: 0
evicts entangled j table: 0
evicts entangled k table: 2370
max bb size: 56
formats: 538 0 2255 1051 464 1051 0 
hist_lookups: 2016 2099 1554 1485 1249 986 691 547 425 389 298 201 90 60 31 0 6 3320 
hist_lookups_evict: 0.0388425 %
hist_lookups_shortlat: 21.4929 %
bb_found_hist: 0 709069 199481 205294 42940 11588 15879 336 134 20996 10480 46 27 20 8 10 1 0 0 1 20966 8417 1 0 6057 0 0 0 0 0 0 1 1 0 1 8716 0 0 0 0 0 0 0 10484 7232 0 0 0 0 0 0 0 0 10484 10484 0 10486 0 0 0 0 0 0 0 
bb_found_summary: 5872110 1309640 4.48376
entangled_found_hist: 0 255832 286209 678094 48637 41362 4892 0 
entangled_found_summary: 3293242 1315026 2.50432
bb_ent_found_hist: 0 1428953 189535 313468 76212 66315 1082 493 455 51 17868 52 20 24 8 33 10 0 0 0 8436 18 0 0 0 0 0 0 0 0 0 1 1 0 1 3 0 0 0 0 0 0 0 0 0 0 0 0 0 0 0 0 0 21538 11657 0 75794 0 0 0 0 0 0 0 
bb_ent_found_summary: 9764219 2212028 4.41415
