WARNING: physical memory size is smaller than virtual memory size.

*** ChampSim Multicore Out-of-Order Simulator ***
Warmup Instructions: 30000000
Simulation Instructions: 100000000
Number of CPUs: 1
Page size: 4096

BTB:
Basic BTB sets: 1024 ways: 8
Indirect:
history lengths: 0 0 10 16 27 44 60 96 109 219 449 487 714 1313 2146 3881 
ITTAGE tables: 64768 bytes;Region table: 240 bytes;IUM: 384 bytes;Total Storage= 65392 bytes;
RAS:
RAS size: 64
Berti Prefetcher
CPU 0 Entangling prefetcher
Off-chip DRAM Size: 8 GiB Channels: 2 Width: 64-bit Data Race: 6400 MT/s
Heartbeat CPU 0 instructions: 10000004 cycles: 1715467 heartbeat IPC: 5.829 cumulative IPC: 5.829 (Simulation time: 00 hr 00 min 36 sec)
Heartbeat CPU 0 instructions: 20000004 cycles: 3431552 heartbeat IPC: 5.827 cumulative IPC: 5.828 (Simulation time: 00 hr 01 min 11 sec)
*** Reached end of trace: (0, "../traces/secret_traces/crypto/crypto54.champsimtrace.xz")
Heartbeat CPU 0 instructions: 30000002 cycles: 5149767 heartbeat IPC: 5.82 cumulative IPC: 5.826 (Simulation time: 00 hr 01 min 47 sec)
Warmup finished CPU 0 instructions: 30000002 cycles: 5149768 cumulative IPC: 5.826 (Simulation time: 00 hr 01 min 47 sec)
Warmup complete CPU 0 instructions: 30000002 cycles: 5149768 cumulative IPC: 5.826 (Simulation time: 00 hr 01 min 47 sec)
Heartbeat CPU 0 instructions: 40000010 cycles: 7277155 heartbeat IPC: 4.701 cumulative IPC: 4.701 (Simulation time: 00 hr 02 min 27 sec)
Heartbeat CPU 0 instructions: 50000005 cycles: 10191337 heartbeat IPC: 3.431 cumulative IPC: 3.967 (Simulation time: 00 hr 03 min 18 sec)
*** Reached end of trace: (0, "../traces/secret_traces/crypto/crypto54.champsimtrace.xz")
Heartbeat CPU 0 instructions: 60000006 cycles: 12982465 heartbeat IPC: 3.583 cumulative IPC: 3.83 (Simulation time: 00 hr 04 min 15 sec)
Heartbeat CPU 0 instructions: 70000003 cycles: 15471775 heartbeat IPC: 4.017 cumulative IPC: 3.875 (Simulation time: 00 hr 05 min 08 sec)
*** Reached end of trace: (0, "../traces/secret_traces/crypto/crypto54.champsimtrace.xz")
Heartbeat CPU 0 instructions: 80000000 cycles: 18309434 heartbeat IPC: 3.524 cumulative IPC: 3.799 (Simulation time: 00 hr 06 min 03 sec)
Heartbeat CPU 0 instructions: 90000001 cycles: 20626854 heartbeat IPC: 4.315 cumulative IPC: 3.877 (Simulation time: 00 hr 06 min 53 sec)
Heartbeat CPU 0 instructions: 100000001 cycles: 23493717 heartbeat IPC: 3.488 cumulative IPC: 3.816 (Simulation time: 00 hr 07 min 49 sec)
*** Reached end of trace: (0, "../traces/secret_traces/crypto/crypto54.champsimtrace.xz")
Heartbeat CPU 0 instructions: 110000007 cycles: 26119483 heartbeat IPC: 3.808 cumulative IPC: 3.815 (Simulation time: 00 hr 08 min 43 sec)
Heartbeat CPU 0 instructions: 120000000 cycles: 28237332 heartbeat IPC: 4.722 cumulative IPC: 3.898 (Simulation time: 00 hr 09 min 31 sec)
Heartbeat CPU 0 instructions: 130000004 cycles: 31100445 heartbeat IPC: 3.493 cumulative IPC: 3.853 (Simulation time: 00 hr 10 min 27 sec)
Simulation finished CPU 0 instructions: 100000002 cycles: 25950678 cumulative IPC: 3.853 (Simulation time: 00 hr 10 min 27 sec)
Simulation complete CPU 0 instructions: 100000002 cycles: 25950678 cumulative IPC: 3.853 (Simulation time: 00 hr 10 min 27 sec)

ChampSim completed all CPUs

=== Simulation ===
CPU 0 runs ../traces/secret_traces/crypto/crypto54.champsimtrace.xz
Region of Interest Statistics

CPU 0 cumulative IPC: 3.853 instructions: 100000002 cycles: 25950678
CPU 0 Branch Prediction Accuracy: 98.31% MPKI: 0.837 Average ROB Occupancy at Mispredict: 35.9
Branch type MPKI
BRANCH_DIRECT_JUMP: 0.0501
BRANCH_INDIRECT: 0.436
BRANCH_CONDITIONAL: 0.108
BRANCH_DIRECT_CALL: 0.145
BRANCH_INDIRECT_CALL: 0.0183
BRANCH_RETURN: 0.0797

LLC TOTAL        ACCESS:     424417 HIT:     225717 MISS:     198700
LLC LOAD         ACCESS:      49878 HIT:      11136 MISS:      38742
LLC RFO          ACCESS:     128995 HIT:      37034 MISS:      91961
LLC PREFETCH     ACCESS:      98984 HIT:      33640 MISS:      65344
LLC WRITE        ACCESS:     144155 HIT:     143539 MISS:        616
LLC TRANSLATION  ACCESS:       2405 HIT:        368 MISS:       2037
LLC PREFETCH REQUESTED:          0 ISSUED:          0 USEFUL:          0 USELESS:          0
LLC AVERAGE MISS LATENCY: 286.3 cycles
cpu0_DTLB TOTAL        ACCESS:   12389534 HIT:   12347715 MISS:      41819
cpu0_DTLB LOAD         ACCESS:   12389534 HIT:   12347715 MISS:      41819
cpu0_DTLB RFO          ACCESS:          0 HIT:          0 MISS:          0
cpu0_DTLB PREFETCH     ACCESS:          0 HIT:          0 MISS:          0
cpu0_DTLB WRITE        ACCESS:          0 HIT:          0 MISS:          0
cpu0_DTLB TRANSLATION  ACCESS:          0 HIT:          0 MISS:          0
cpu0_DTLB PREFETCH REQUESTED:          0 ISSUED:          0 USEFUL:          0 USELESS:          0
cpu0_DTLB AVERAGE MISS LATENCY: 15.02 cycles
cpu0_ITLB TOTAL        ACCESS:     666238 HIT:     652958 MISS:      13280
cpu0_ITLB LOAD         ACCESS:     666238 HIT:     652958 MISS:      13280
cpu0_ITLB RFO          ACCESS:          0 HIT:          0 MISS:          0
cpu0_ITLB PREFETCH     ACCESS:          0 HIT:          0 MISS:          0
cpu0_ITLB WRITE        ACCESS:          0 HIT:          0 MISS:          0
cpu0_ITLB TRANSLATION  ACCESS:          0 HIT:          0 MISS:          0
cpu0_ITLB PREFETCH REQUESTED:          0 ISSUED:          0 USEFUL:          0 USELESS:          0
cpu0_ITLB AVERAGE MISS LATENCY: 22.28 cycles
cpu0_L1D TOTAL        ACCESS:   23085469 HIT:   22484647 MISS:     600822
cpu0_L1D LOAD         ACCESS:    7803565 HIT:    7643221 MISS:     160344
cpu0_L1D RFO          ACCESS:          0 HIT:          0 MISS:          0
cpu0_L1D PREFETCH     ACCESS:   12031627 HIT:   11946401 MISS:      85226
cpu0_L1D WRITE        ACCESS:    3245214 HIT:    2893095 MISS:     352119
cpu0_L1D TRANSLATION  ACCESS:       5063 HIT:       1930 MISS:       3133
cpu0_L1D PREFETCH REQUESTED:   20016929 ISSUED:   12031619 USEFUL:       9046 USELESS:       1437
cpu0_L1D AVERAGE MISS LATENCY: 82.51 cycles
cpu0_L1I TOTAL        ACCESS:     969459 HIT:     810720 MISS:     158739
cpu0_L1I LOAD         ACCESS:     317237 HIT:     281013 MISS:      36224
cpu0_L1I RFO          ACCESS:          0 HIT:          0 MISS:          0
cpu0_L1I PREFETCH     ACCESS:     652222 HIT:     529707 MISS:     122515
cpu0_L1I WRITE        ACCESS:          0 HIT:          0 MISS:          0
cpu0_L1I TRANSLATION  ACCESS:          0 HIT:          0 MISS:          0
cpu0_L1I PREFETCH REQUESTED:    1057481 ISSUED:     652222 USEFUL:      69217 USELESS:      48160
cpu0_L1I AVERAGE MISS LATENCY: 42.67 cycles
cpu0_L2C TOTAL        ACCESS:     944645 HIT:     570155 MISS:     374490
cpu0_L2C LOAD         ACCESS:     130325 HIT:      64947 MISS:      65378
cpu0_L2C RFO          ACCESS:     141807 HIT:      12725 MISS:     129082
cpu0_L2C PREFETCH     ACCESS:     504674 HIT:     327049 MISS:     177625
cpu0_L2C WRITE        ACCESS:     164835 HIT:     164835 MISS:          0
cpu0_L2C TRANSLATION  ACCESS:       3004 HIT:        599 MISS:       2405
cpu0_L2C PREFETCH REQUESTED:     323297 ISSUED:     311702 USEFUL:      33005 USELESS:      24339
cpu0_L2C AVERAGE MISS LATENCY: 163.5 cycles
cpu0_STLB TOTAL        ACCESS:      23650 HIT:      19034 MISS:       4616
cpu0_STLB LOAD         ACCESS:      23650 HIT:      19034 MISS:       4616
cpu0_STLB RFO          ACCESS:          0 HIT:          0 MISS:          0
cpu0_STLB PREFETCH     ACCESS:          0 HIT:          0 MISS:          0
cpu0_STLB WRITE        ACCESS:          0 HIT:          0 MISS:          0
cpu0_STLB TRANSLATION  ACCESS:          0 HIT:          0 MISS:          0
cpu0_STLB PREFETCH REQUESTED:          0 ISSUED:          0 USEFUL:          0 USELESS:          0
cpu0_STLB AVERAGE MISS LATENCY: 183.9 cycles

DRAM Statistics

Channel 0 RQ ROW_BUFFER_HIT:      44016
  ROW_BUFFER_MISS:      56160
 AVG DBUS CONGESTED CYCLE: 3.949
WQ ROW_BUFFER_HIT: Channel 0 
  ROW_BUFFER_MISS:       5379
  FULL:      47817

Channel 1 RQ ROW_BUFFER_HIT:      43282
  ROW_BUFFER_MISS:      54542
 AVG DBUS CONGESTED CYCLE: 3.939
WQ ROW_BUFFER_HIT: Channel 1 
  ROW_BUFFER_MISS:       5507
  FULL:      45646
BERTI TO_L1: 16547861 TO_L2: 9308281 TO_L2_BC_MSHR: 4539954
BERTI AVG_LAT: 129.098 NUM_TRACK_LATENCY: 160256 NUM_CANT_TRACK_LATENCY: 0
BERTI CROSS_PAGE 6631654 NO_CROSS_PAGE: 19224488
BERTI FOUND_BERTI: 3865251 NO_FOUND_BERTI: 7577023
BERTI AVERAGE_ISSUED: 8.14912
CPU 0 L1I Entangling prefetcher final stats
IP accesses: 77e1 1df840 1403 / 319331
IP misses: c43a 310e80 322 / 38318
IP hits: 0 0 0 / 0
IP late: 91b9 246e40 47 / 17958
IP wrong: f801 3e0040 107 / 47979
miss rate: 0.119995
coverage: 0
coverage_late: 0.468658
accuracy: 0
accuracy_late: 0.272351
discarded: 0
evicts entangled j table: 0
evicts entangled k table: 6212
max bb size: 53
formats: 1587 0 5089 2493 1029 1870 0 
hist_lookups: 3817 4574 3643 3431 3089 2598 2092 1445 1104 949 694 470 299 153 72 0 9 6841 
hist_lookups_evict: 0.0255103 %
hist_lookups_shortlat: 19.3906 %
bb_found_hist: 0 81428 35639 16607 7852 3696 1744 1525 484 98 6 99 114 98 24 0 3 0 0 0 0 6 0 0 0 0 0 0 0 0 0 3 3 0 3 0 0 0 0 0 0 0 0 0 0 0 0 0 0 0 0 0 0 3 0 0 0 0 0 0 0 0 0 0 
bb_found_summary: 283059 149435 1.8942
entangled_found_hist: 0 44327 32216 60501 11312 2235 699 0 
entangled_found_summary: 350879 151290 2.31925
bb_ent_found_hist: 0 117423 54677 36026 14636 8925 3718 2042 1324 97 0 87 127 105 15 0 3 0 0 0 0 25 0 0 0 0 0 0 0 0 0 6 3 0 6 0 0 0 0 0 0 0 0 0 0 0 0 0 0 0 0 0 0 3 0 0 0 0 0 0 0 0 0 0 
bb_ent_found_summary: 491365 239248 2.05379
