WARNING: physical memory size is smaller than virtual memory size.

*** ChampSim Multicore Out-of-Order Simulator ***
Warmup Instructions: 30000000
Simulation Instructions: 100000000
Number of CPUs: 1
Page size: 4096

BTB:
Basic BTB sets: 1024 ways: 8
Indirect:
history lengths: 0 0 10 16 27 44 60 96 109 219 449 487 714 1313 2146 3881 
ITTAGE tables: 64768 bytes;Region table: 240 bytes;IUM: 384 bytes;Total Storage= 65392 bytes;
RAS:
RAS size: 64
Berti Prefetcher
CPU 0 Entangling prefetcher
Off-chip DRAM Size: 8 GiB Channels: 2 Width: 64-bit Data Race: 6400 MT/s
Heartbeat CPU 0 instructions: 10000006 cycles: 1715391 heartbeat IPC: 5.83 cumulative IPC: 5.83 (Simulation time: 00 hr 00 min 33 sec)
Heartbeat CPU 0 instructions: 20000002 cycles: 3432158 heartbeat IPC: 5.825 cumulative IPC: 5.827 (Simulation time: 00 hr 01 min 07 sec)
*** Reached end of trace: (0, "../traces/secret_traces/crypto/crypto66.champsimtrace.xz")
Heartbeat CPU 0 instructions: 30000002 cycles: 5152233 heartbeat IPC: 5.814 cumulative IPC: 5.823 (Simulation time: 00 hr 01 min 43 sec)
Warmup finished CPU 0 instructions: 30000002 cycles: 5152234 cumulative IPC: 5.823 (Simulation time: 00 hr 01 min 43 sec)
Warmup complete CPU 0 instructions: 30000002 cycles: 5152234 cumulative IPC: 5.823 (Simulation time: 00 hr 01 min 43 sec)
Heartbeat CPU 0 instructions: 40000000 cycles: 11845692 heartbeat IPC: 1.494 cumulative IPC: 1.494 (Simulation time: 00 hr 03 min 15 sec)
*** Reached end of trace: (0, "../traces/secret_traces/crypto/crypto66.champsimtrace.xz")
Heartbeat CPU 0 instructions: 50000002 cycles: 17333029 heartbeat IPC: 1.822 cumulative IPC: 1.642 (Simulation time: 00 hr 04 min 39 sec)
Heartbeat CPU 0 instructions: 60000001 cycles: 23448678 heartbeat IPC: 1.635 cumulative IPC: 1.64 (Simulation time: 00 hr 06 min 02 sec)
*** Reached end of trace: (0, "../traces/secret_traces/crypto/crypto66.champsimtrace.xz")
Heartbeat CPU 0 instructions: 70000000 cycles: 29350065 heartbeat IPC: 1.695 cumulative IPC: 1.653 (Simulation time: 00 hr 07 min 41 sec)
Heartbeat CPU 0 instructions: 80000001 cycles: 35528393 heartbeat IPC: 1.619 cumulative IPC: 1.646 (Simulation time: 00 hr 09 min 25 sec)
*** Reached end of trace: (0, "../traces/secret_traces/crypto/crypto66.champsimtrace.xz")
Heartbeat CPU 0 instructions: 90000007 cycles: 41464679 heartbeat IPC: 1.685 cumulative IPC: 1.652 (Simulation time: 00 hr 11 min 02 sec)
Heartbeat CPU 0 instructions: 100000001 cycles: 47570834 heartbeat IPC: 1.638 cumulative IPC: 1.65 (Simulation time: 00 hr 12 min 36 sec)
*** Reached end of trace: (0, "../traces/secret_traces/crypto/crypto66.champsimtrace.xz")
Heartbeat CPU 0 instructions: 110000003 cycles: 54119655 heartbeat IPC: 1.527 cumulative IPC: 1.634 (Simulation time: 00 hr 14 min 03 sec)
Heartbeat CPU 0 instructions: 120000001 cycles: 59598727 heartbeat IPC: 1.825 cumulative IPC: 1.653 (Simulation time: 00 hr 15 min 19 sec)
Heartbeat CPU 0 instructions: 130000000 cycles: 66224631 heartbeat IPC: 1.509 cumulative IPC: 1.637 (Simulation time: 00 hr 16 min 48 sec)
Simulation finished CPU 0 instructions: 100000001 cycles: 61072400 cumulative IPC: 1.637 (Simulation time: 00 hr 16 min 48 sec)
Simulation complete CPU 0 instructions: 100000001 cycles: 61072400 cumulative IPC: 1.637 (Simulation time: 00 hr 16 min 48 sec)

ChampSim completed all CPUs

=== Simulation ===
CPU 0 runs ../traces/secret_traces/crypto/crypto66.champsimtrace.xz
Region of Interest Statistics

CPU 0 cumulative IPC: 1.637 instructions: 100000001 cycles: 61072400
CPU 0 Branch Prediction Accuracy: 98.45% MPKI: 1.067 Average ROB Occupancy at Mispredict: 43.93
Branch type MPKI
BRANCH_DIRECT_JUMP: 0.0635
BRANCH_INDIRECT: 0.555
BRANCH_CONDITIONAL: 0.143
BRANCH_DIRECT_CALL: 0.184
BRANCH_INDIRECT_CALL: 0.0221
BRANCH_RETURN: 0.1

LLC TOTAL        ACCESS:     535114 HIT:     285441 MISS:     249673
LLC LOAD         ACCESS:      62705 HIT:      14829 MISS:      47876
LLC RFO          ACCESS:     162558 HIT:      45799 MISS:     116759
LLC PREFETCH     ACCESS:     123953 HIT:      42256 MISS:      81697
LLC WRITE        ACCESS:     182996 HIT:     182156 MISS:        840
LLC TRANSLATION  ACCESS:       2902 HIT:        401 MISS:       2501
LLC PREFETCH REQUESTED:          0 ISSUED:          0 USEFUL:          0 USELESS:          0
LLC AVERAGE MISS LATENCY: 283.8 cycles
cpu0_DTLB TOTAL        ACCESS:   25647587 HIT:   25595315 MISS:      52272
cpu0_DTLB LOAD         ACCESS:   25647587 HIT:   25595315 MISS:      52272
cpu0_DTLB RFO          ACCESS:          0 HIT:          0 MISS:          0
cpu0_DTLB PREFETCH     ACCESS:          0 HIT:          0 MISS:          0
cpu0_DTLB WRITE        ACCESS:          0 HIT:          0 MISS:          0
cpu0_DTLB TRANSLATION  ACCESS:          0 HIT:          0 MISS:          0
cpu0_DTLB PREFETCH REQUESTED:          0 ISSUED:          0 USEFUL:          0 USELESS:          0
cpu0_DTLB AVERAGE MISS LATENCY: 14.31 cycles
cpu0_ITLB TOTAL        ACCESS:     844091 HIT:     827591 MISS:      16500
cpu0_ITLB LOAD         ACCESS:     844091 HIT:     827591 MISS:      16500
cpu0_ITLB RFO          ACCESS:          0 HIT:          0 MISS:          0
cpu0_ITLB PREFETCH     ACCESS:          0 HIT:          0 MISS:          0
cpu0_ITLB WRITE        ACCESS:          0 HIT:          0 MISS:          0
cpu0_ITLB TRANSLATION  ACCESS:          0 HIT:          0 MISS:          0
cpu0_ITLB PREFETCH REQUESTED:          0 ISSUED:          0 USEFUL:          0 USELESS:          0
cpu0_ITLB AVERAGE MISS LATENCY: 21.85 cycles
cpu0_L1D TOTAL        ACCESS:   46806919 HIT:   46022602 MISS:     784317
cpu0_L1D LOAD         ACCESS:   13584088 HIT:   13383084 MISS:     201004
cpu0_L1D RFO          ACCESS:          0 HIT:          0 MISS:          0
cpu0_L1D PREFETCH     ACCESS:   29262820 HIT:   29129432 MISS:     133388
cpu0_L1D WRITE        ACCESS:    3953899 HIT:    3507789 MISS:     446110
cpu0_L1D TRANSLATION  ACCESS:       6112 HIT:       2297 MISS:       3815
cpu0_L1D PREFETCH REQUESTED:   38852832 ISSUED:   29262813 USEFUL:      13208 USELESS:       1421
cpu0_L1D AVERAGE MISS LATENCY: 78.92 cycles
cpu0_L1I TOTAL        ACCESS:    1230207 HIT:    1031459 MISS:     198748
cpu0_L1I LOAD         ACCESS:     403546 HIT:     358739 MISS:      44807
cpu0_L1I RFO          ACCESS:          0 HIT:          0 MISS:          0
cpu0_L1I PREFETCH     ACCESS:     826661 HIT:     672720 MISS:     153941
cpu0_L1I WRITE        ACCESS:          0 HIT:          0 MISS:          0
cpu0_L1I TRANSLATION  ACCESS:          0 HIT:          0 MISS:          0
cpu0_L1I PREFETCH REQUESTED:    1339450 ISSUED:     826661 USEFUL:      88036 USELESS:      59864
cpu0_L1I AVERAGE MISS LATENCY: 43.65 cycles
cpu0_L2C TOTAL        ACCESS:    1240531 HIT:     769846 MISS:     470685
cpu0_L2C LOAD         ACCESS:     163549 HIT:      81826 MISS:      81723
cpu0_L2C RFO          ACCESS:     179649 HIT:      16984 MISS:     162665
cpu0_L2C PREFETCH     ACCESS:     683611 HIT:     460216 MISS:     223395
cpu0_L2C WRITE        ACCESS:     210030 HIT:     210030 MISS:          0
cpu0_L2C TRANSLATION  ACCESS:       3692 HIT:        790 MISS:       2902
cpu0_L2C PREFETCH REQUESTED:     432410 ISSUED:     415203 USEFUL:      42658 USELESS:      30262
cpu0_L2C AVERAGE MISS LATENCY: 162.5 cycles
cpu0_STLB TOTAL        ACCESS:      29129 HIT:      23527 MISS:       5602
cpu0_STLB LOAD         ACCESS:      29129 HIT:      23527 MISS:       5602
cpu0_STLB RFO          ACCESS:          0 HIT:          0 MISS:          0
cpu0_STLB PREFETCH     ACCESS:          0 HIT:          0 MISS:          0
cpu0_STLB WRITE        ACCESS:          0 HIT:          0 MISS:          0
cpu0_STLB TRANSLATION  ACCESS:          0 HIT:          0 MISS:          0
cpu0_STLB PREFETCH REQUESTED:          0 ISSUED:          0 USEFUL:          0 USELESS:          0
cpu0_STLB AVERAGE MISS LATENCY: 182.3 cycles

DRAM Statistics

Channel 0 RQ ROW_BUFFER_HIT:      55701
  ROW_BUFFER_MISS:      70027
 AVG DBUS CONGESTED CYCLE: 3.951
WQ ROW_BUFFER_HIT: Channel 0 
  ROW_BUFFER_MISS:       6711
  FULL:      60659

Channel 1 RQ ROW_BUFFER_HIT:      54954
  ROW_BUFFER_MISS:      68087
 AVG DBUS CONGESTED CYCLE: 3.941
WQ ROW_BUFFER_HIT: Channel 1 
  ROW_BUFFER_MISS:       7041
  FULL:      57870
BERTI TO_L1: 37979393 TO_L2: 9573101 TO_L2_BC_MSHR: 5942044
BERTI AVG_LAT: 128.428 NUM_TRACK_LATENCY: 194361 NUM_CANT_TRACK_LATENCY: 0
BERTI CROSS_PAGE 7075257 NO_CROSS_PAGE: 40477237
BERTI FOUND_BERTI: 4063720 NO_FOUND_BERTI: 14352193
BERTI AVERAGE_ISSUED: 14.3721
CPU 0 L1I Entangling prefetcher final stats
IP accesses: 25bf 96fc0 1895 / 408391
IP misses: 7a68 1e9a00 734 / 49652
IP hits: 0 0 0 / 0
IP late: f9b1 3e6c40 55 / 22269
IP wrong: f7ec 3dfb00 139 / 59574
miss rate: 0.12158
coverage: 0
coverage_late: 0.448502
accuracy: 0
accuracy_late: 0.272095
discarded: 0
evicts entangled j table: 0
evicts entangled k table: 7773
max bb size: 53
formats: 1926 0 6234 3093 1186 2183 0 
hist_lookups: 4778 5389 4425 4220 3847 3153 2472 1791 1422 1202 946 608 354 177 107 0 3 8068 
hist_lookups_evict: 0.00698292 %
hist_lookups_shortlat: 18.7794 %
bb_found_hist: 0 104982 44163 21120 10101 4692 2335 1952 591 111 8 125 144 124 31 0 4 0 0 0 0 8 0 0 0 0 0 0 0 0 0 4 0 0 4 0 0 0 0 0 0 0 0 0 0 0 0 0 0 0 0 0 0 4 0 0 0 0 0 0 0 0 0 0 
bb_found_summary: 359866 190503 1.88904
entangled_found_hist: 0 57432 38479 76384 14533 2385 1194 0 
entangled_found_summary: 440763 190407 2.31485
bb_ent_found_hist: 0 149153 64690 43550 20533 13017 4059 2901 2313 79 0 380 135 138 15 0 4 0 0 0 0 16 0 0 0 0 0 0 0 0 0 8 0 0 8 0 0 0 0 0 0 0 0 0 0 0 0 0 0 0 0 0 0 5 0 0 0 0 0 0 0 0 0 0 
bb_ent_found_summary: 629265 301004 2.09056
