WARNING: physical memory size is smaller than virtual memory size.

*** ChampSim Multicore Out-of-Order Simulator ***
Warmup Instructions: 30000000
Simulation Instructions: 100000000
Number of CPUs: 1
Page size: 4096

BTB:
Basic BTB sets: 1024 ways: 8
Indirect:
history lengths: 0 0 10 16 27 44 60 96 109 219 449 487 714 1313 2146 3881 
ITTAGE tables: 64768 bytes;Region table: 240 bytes;IUM: 384 bytes;Total Storage= 65392 bytes;
RAS:
RAS size: 64
Berti Prefetcher
CPU 0 Entangling prefetcher
Off-chip DRAM Size: 8 GiB Channels: 2 Width: 64-bit Data Race: 6400 MT/s
Heartbeat CPU 0 instructions: 10000001 cycles: 1715458 heartbeat IPC: 5.829 cumulative IPC: 5.829 (Simulation time: 00 hr 00 min 30 sec)
Heartbeat CPU 0 instructions: 20000007 cycles: 3432022 heartbeat IPC: 5.826 cumulative IPC: 5.827 (Simulation time: 00 hr 01 min 00 sec)
Heartbeat CPU 0 instructions: 30000002 cycles: 5098739 heartbeat IPC: 6 cumulative IPC: 5.884 (Simulation time: 00 hr 01 min 28 sec)
Warmup finished CPU 0 instructions: 30000002 cycles: 5098740 cumulative IPC: 5.884 (Simulation time: 00 hr 01 min 28 sec)
Warmup complete CPU 0 instructions: 30000002 cycles: 5098740 cumulative IPC: 5.884 (Simulation time: 00 hr 01 min 28 sec)
*** Reached end of trace: (0, "../traces/secret_traces/crypto/crypto19.champsimtrace.xz")
Heartbeat CPU 0 instructions: 40000000 cycles: 7938147 heartbeat IPC: 3.522 cumulative IPC: 3.522 (Simulation time: 00 hr 02 min 15 sec)
Heartbeat CPU 0 instructions: 50000001 cycles: 10803263 heartbeat IPC: 3.49 cumulative IPC: 3.506 (Simulation time: 00 hr 03 min 03 sec)
Heartbeat CPU 0 instructions: 60000007 cycles: 12783629 heartbeat IPC: 5.05 cumulative IPC: 3.904 (Simulation time: 00 hr 03 min 45 sec)
*** Reached end of trace: (0, "../traces/secret_traces/crypto/crypto19.champsimtrace.xz")
Heartbeat CPU 0 instructions: 70000003 cycles: 15497365 heartbeat IPC: 3.685 cumulative IPC: 3.847 (Simulation time: 00 hr 04 min 31 sec)
Heartbeat CPU 0 instructions: 80000000 cycles: 18289668 heartbeat IPC: 3.581 cumulative IPC: 3.79 (Simulation time: 00 hr 05 min 22 sec)
Heartbeat CPU 0 instructions: 90000007 cycles: 20287223 heartbeat IPC: 5.006 cumulative IPC: 3.95 (Simulation time: 00 hr 06 min 05 sec)
*** Reached end of trace: (0, "../traces/secret_traces/crypto/crypto19.champsimtrace.xz")
Heartbeat CPU 0 instructions: 100000000 cycles: 22970859 heartbeat IPC: 3.726 cumulative IPC: 3.917 (Simulation time: 00 hr 06 min 50 sec)
Heartbeat CPU 0 instructions: 110000005 cycles: 24935461 heartbeat IPC: 5.09 cumulative IPC: 4.033 (Simulation time: 00 hr 07 min 30 sec)
Heartbeat CPU 0 instructions: 120000003 cycles: 27746212 heartbeat IPC: 3.558 cumulative IPC: 3.974 (Simulation time: 00 hr 08 min 17 sec)
*** Reached end of trace: (0, "../traces/secret_traces/crypto/crypto19.champsimtrace.xz")
Heartbeat CPU 0 instructions: 130000002 cycles: 30418732 heartbeat IPC: 3.742 cumulative IPC: 3.949 (Simulation time: 00 hr 09 min 04 sec)
Simulation finished CPU 0 instructions: 100000000 cycles: 25319993 cumulative IPC: 3.949 (Simulation time: 00 hr 09 min 04 sec)
Simulation complete CPU 0 instructions: 100000000 cycles: 25319993 cumulative IPC: 3.949 (Simulation time: 00 hr 09 min 04 sec)

ChampSim completed all CPUs

=== Simulation ===
CPU 0 runs ../traces/secret_traces/crypto/crypto19.champsimtrace.xz
Region of Interest Statistics

CPU 0 cumulative IPC: 3.949 instructions: 100000000 cycles: 25319993
CPU 0 Branch Prediction Accuracy: 98.34% MPKI: 0.9525 Average ROB Occupancy at Mispredict: 34.72
Branch type MPKI
BRANCH_DIRECT_JUMP: 0.0531
BRANCH_INDIRECT: 0.487
BRANCH_CONDITIONAL: 0.153
BRANCH_DIRECT_CALL: 0.155
BRANCH_INDIRECT_CALL: 0.02
BRANCH_RETURN: 0.0847

LLC TOTAL        ACCESS:     390894 HIT:     205908 MISS:     184986
LLC LOAD         ACCESS:      44891 HIT:      10413 MISS:      34478
LLC RFO          ACCESS:     114027 HIT:      29776 MISS:      84251
LLC PREFETCH     ACCESS:      96353 HIT:      32659 MISS:      63694
LLC WRITE        ACCESS:     133292 HIT:     132728 MISS:        564
LLC TRANSLATION  ACCESS:       2331 HIT:        332 MISS:       1999
LLC PREFETCH REQUESTED:          0 ISSUED:          0 USEFUL:          0 USELESS:          0
LLC AVERAGE MISS LATENCY: 279.3 cycles
cpu0_DTLB TOTAL        ACCESS:   14073646 HIT:   14034782 MISS:      38864
cpu0_DTLB LOAD         ACCESS:   14073646 HIT:   14034782 MISS:      38864
cpu0_DTLB RFO          ACCESS:          0 HIT:          0 MISS:          0
cpu0_DTLB PREFETCH     ACCESS:          0 HIT:          0 MISS:          0
cpu0_DTLB WRITE        ACCESS:          0 HIT:          0 MISS:          0
cpu0_DTLB TRANSLATION  ACCESS:          0 HIT:          0 MISS:          0
cpu0_DTLB PREFETCH REQUESTED:          0 ISSUED:          0 USEFUL:          0 USELESS:          0
cpu0_DTLB AVERAGE MISS LATENCY: 16.08 cycles
cpu0_ITLB TOTAL        ACCESS:     681086 HIT:     666686 MISS:      14400
cpu0_ITLB LOAD         ACCESS:     681086 HIT:     666686 MISS:      14400
cpu0_ITLB RFO          ACCESS:          0 HIT:          0 MISS:          0
cpu0_ITLB PREFETCH     ACCESS:          0 HIT:          0 MISS:          0
cpu0_ITLB WRITE        ACCESS:          0 HIT:          0 MISS:          0
cpu0_ITLB TRANSLATION  ACCESS:          0 HIT:          0 MISS:          0
cpu0_ITLB PREFETCH REQUESTED:          0 ISSUED:          0 USEFUL:          0 USELESS:          0
cpu0_ITLB AVERAGE MISS LATENCY: 20.86 cycles
cpu0_L1D TOTAL        ACCESS:   26631974 HIT:   26093479 MISS:     538495
cpu0_L1D LOAD         ACCESS:    8958600 HIT:    8810112 MISS:     148488
cpu0_L1D RFO          ACCESS:          0 HIT:          0 MISS:          0
cpu0_L1D PREFETCH     ACCESS:   14543626 HIT:   14454305 MISS:      89321
cpu0_L1D WRITE        ACCESS:    3124817 HIT:    2827241 MISS:     297576
cpu0_L1D TRANSLATION  ACCESS:       4931 HIT:       1821 MISS:       3110
cpu0_L1D PREFETCH REQUESTED:   23388143 ISSUED:   14543619 USEFUL:      11524 USELESS:       1324
cpu0_L1D AVERAGE MISS LATENCY: 82.5 cycles
cpu0_L1I TOTAL        ACCESS:     990910 HIT:     829102 MISS:     161808
cpu0_L1I LOAD         ACCESS:     323657 HIT:     287495 MISS:      36162
cpu0_L1I RFO          ACCESS:          0 HIT:          0 MISS:          0
cpu0_L1I PREFETCH     ACCESS:     667253 HIT:     541607 MISS:     125646
cpu0_L1I WRITE        ACCESS:          0 HIT:          0 MISS:          0
cpu0_L1I TRANSLATION  ACCESS:          0 HIT:          0 MISS:          0
cpu0_L1I PREFETCH REQUESTED:    1009830 ISSUED:     667253 USEFUL:      69924 USELESS:      50221
cpu0_L1I AVERAGE MISS LATENCY: 40.81 cycles
cpu0_L2C TOTAL        ACCESS:     907967 HIT:     564982 MISS:     342985
cpu0_L2C LOAD         ACCESS:     122107 HIT:      64442 MISS:      57665
cpu0_L2C RFO          ACCESS:     123615 HIT:       9455 MISS:     114160
cpu0_L2C PREFETCH     ACCESS:     510743 HIT:     341914 MISS:     168829
cpu0_L2C WRITE        ACCESS:     148516 HIT:     148516 MISS:          0
cpu0_L2C TRANSLATION  ACCESS:       2986 HIT:        655 MISS:       2331
cpu0_L2C PREFETCH REQUESTED:     323237 ISSUED:     309613 USEFUL:      31674 USELESS:      22611
cpu0_L2C AVERAGE MISS LATENCY: 162.8 cycles
cpu0_STLB TOTAL        ACCESS:      23718 HIT:      19169 MISS:       4549
cpu0_STLB LOAD         ACCESS:      23718 HIT:      19169 MISS:       4549
cpu0_STLB RFO          ACCESS:          0 HIT:          0 MISS:          0
cpu0_STLB PREFETCH     ACCESS:          0 HIT:          0 MISS:          0
cpu0_STLB WRITE        ACCESS:          0 HIT:          0 MISS:          0
cpu0_STLB TRANSLATION  ACCESS:          0 HIT:          0 MISS:          0
cpu0_STLB PREFETCH REQUESTED:          0 ISSUED:          0 USEFUL:          0 USELESS:          0
cpu0_STLB AVERAGE MISS LATENCY: 185.5 cycles

DRAM Statistics

Channel 0 RQ ROW_BUFFER_HIT:      39970
  ROW_BUFFER_MISS:      53117
 AVG DBUS CONGESTED CYCLE: 3.946
WQ ROW_BUFFER_HIT: Channel 0 
  ROW_BUFFER_MISS:       5630
  FULL:      45017

Channel 1 RQ ROW_BUFFER_HIT:      39707
  ROW_BUFFER_MISS:      51565
 AVG DBUS CONGESTED CYCLE: 3.938
WQ ROW_BUFFER_HIT: Channel 1 
  ROW_BUFFER_MISS:       5628
  FULL:      43050
BERTI TO_L1: 15964982 TO_L2: 10878247 TO_L2_BC_MSHR: 3917520
BERTI AVG_LAT: 125.696 NUM_TRACK_LATENCY: 143535 NUM_CANT_TRACK_LATENCY: 0
BERTI CROSS_PAGE 3953490 NO_CROSS_PAGE: 22889739
BERTI FOUND_BERTI: 4602124 NO_FOUND_BERTI: 7793315
BERTI AVERAGE_ISSUED: 10.1356
CPU 0 L1I Entangling prefetcher final stats
IP accesses: 6f71 1bdc40 1757 / 324942
IP misses: 25bf 96fc0 160 / 37447
IP hits: 0 0 0 / 0
IP late: 6e9e 1ba780 53 / 18098
IP wrong: f7ec 3dfb00 107 / 50007
miss rate: 0.115243
coverage: 0
coverage_late: 0.483297
accuracy: 0
accuracy_late: 0.265737
discarded: 0
evicts entangled j table: 0
evicts entangled k table: 5949
max bb size: 53
formats: 1513 0 5239 2643 1056 2186 0 
hist_lookups: 4392 4898 3873 3317 2909 2389 1843 1409 1051 846 641 459 273 176 98 0 15 5685 
hist_lookups_evict: 0.043765 %
hist_lookups_shortlat: 16.587 %
bb_found_hist: 0 81019 34041 17055 7202 3712 1755 1496 464 132 4 110 96 72 25 0 4 0 0 0 0 8 0 0 0 0 0 0 0 0 0 4 0 0 4 0 0 0 0 0 0 0 0 0 0 0 0 0 0 0 0 0 0 4 0 0 0 0 0 0 0 0 0 0 
bb_found_summary: 277928 147207 1.88801
entangled_found_hist: 0 43517 32290 55793 11522 1953 680 0 
entangled_found_summary: 335409 145755 2.30119
bb_ent_found_hist: 0 115140 49768 33428 13171 7957 3497 1768 1375 156 0 222 70 27 13 0 204 0 0 0 0 20 0 0 0 0 0 0 0 0 0 4 0 0 4 0 0 0 0 0 0 0 0 0 0 0 0 0 0 0 0 0 0 5 0 0 0 0 0 0 0 0 0 0 
bb_ent_found_summary: 461215 226829 2.03332
