WARNING: physical memory size is smaller than virtual memory size.

*** ChampSim Multicore Out-of-Order Simulator ***
Warmup Instructions: 30000000
Simulation Instructions: 100000000
Number of CPUs: 1
Page size: 4096

BTB:
Basic BTB sets: 1024 ways: 8
Indirect:
history lengths: 0 0 10 16 27 44 60 96 109 219 449 487 714 1313 2146 3881 
ITTAGE tables: 64768 bytes;Region table: 240 bytes;IUM: 384 bytes;Total Storage= 65392 bytes;
RAS:
RAS size: 64
Berti Prefetcher
CPU 0 Entangling prefetcher
Off-chip DRAM Size: 8 GiB Channels: 2 Width: 64-bit Data Race: 6400 MT/s
Heartbeat CPU 0 instructions: 10000001 cycles: 1716618 heartbeat IPC: 5.825 cumulative IPC: 5.825 (Simulation time: 00 hr 00 min 33 sec)
*** Reached end of trace: (0, "../traces/secret_traces/crypto/crypto35.champsimtrace.xz")
Heartbeat CPU 0 instructions: 20000003 cycles: 3409751 heartbeat IPC: 5.906 cumulative IPC: 5.866 (Simulation time: 00 hr 01 min 05 sec)
Heartbeat CPU 0 instructions: 30000001 cycles: 5105362 heartbeat IPC: 5.898 cumulative IPC: 5.876 (Simulation time: 00 hr 01 min 37 sec)
Warmup finished CPU 0 instructions: 30000001 cycles: 5105363 cumulative IPC: 5.876 (Simulation time: 00 hr 01 min 37 sec)
Warmup complete CPU 0 instructions: 30000001 cycles: 5105363 cumulative IPC: 5.876 (Simulation time: 00 hr 01 min 37 sec)
*** Reached end of trace: (0, "../traces/secret_traces/crypto/crypto35.champsimtrace.xz")
Heartbeat CPU 0 instructions: 40000008 cycles: 7273639 heartbeat IPC: 4.612 cumulative IPC: 4.612 (Simulation time: 00 hr 02 min 23 sec)
Heartbeat CPU 0 instructions: 50000005 cycles: 9136158 heartbeat IPC: 5.369 cumulative IPC: 4.962 (Simulation time: 00 hr 03 min 08 sec)
*** Reached end of trace: (0, "../traces/secret_traces/crypto/crypto35.champsimtrace.xz")
Heartbeat CPU 0 instructions: 60000003 cycles: 11291074 heartbeat IPC: 4.641 cumulative IPC: 4.85 (Simulation time: 00 hr 03 min 53 sec)
Heartbeat CPU 0 instructions: 70000002 cycles: 13129395 heartbeat IPC: 5.44 cumulative IPC: 4.985 (Simulation time: 00 hr 04 min 38 sec)
*** Reached end of trace: (0, "../traces/secret_traces/crypto/crypto35.champsimtrace.xz")
Heartbeat CPU 0 instructions: 80000000 cycles: 15268437 heartbeat IPC: 4.675 cumulative IPC: 4.92 (Simulation time: 00 hr 05 min 24 sec)
*** Reached end of trace: (0, "../traces/secret_traces/crypto/crypto35.champsimtrace.xz")
Heartbeat CPU 0 instructions: 90000002 cycles: 17269891 heartbeat IPC: 4.996 cumulative IPC: 4.932 (Simulation time: 00 hr 06 min 09 sec)
Heartbeat CPU 0 instructions: 100000001 cycles: 19240938 heartbeat IPC: 5.073 cumulative IPC: 4.952 (Simulation time: 00 hr 06 min 57 sec)
*** Reached end of trace: (0, "../traces/secret_traces/crypto/crypto35.champsimtrace.xz")
Heartbeat CPU 0 instructions: 110000008 cycles: 21352878 heartbeat IPC: 4.735 cumulative IPC: 4.924 (Simulation time: 00 hr 07 min 42 sec)
Heartbeat CPU 0 instructions: 120000000 cycles: 23213198 heartbeat IPC: 5.375 cumulative IPC: 4.97 (Simulation time: 00 hr 08 min 27 sec)
*** Reached end of trace: (0, "../traces/secret_traces/crypto/crypto35.champsimtrace.xz")
Heartbeat CPU 0 instructions: 130000001 cycles: 25322176 heartbeat IPC: 4.742 cumulative IPC: 4.946 (Simulation time: 00 hr 09 min 13 sec)
Simulation finished CPU 0 instructions: 100000000 cycles: 20216814 cumulative IPC: 4.946 (Simulation time: 00 hr 09 min 13 sec)
Simulation complete CPU 0 instructions: 100000000 cycles: 20216814 cumulative IPC: 4.946 (Simulation time: 00 hr 09 min 13 sec)

ChampSim completed all CPUs

=== Simulation ===
CPU 0 runs ../traces/secret_traces/crypto/crypto35.champsimtrace.xz
Region of Interest Statistics

CPU 0 cumulative IPC: 4.946 instructions: 100000000 cycles: 20216814
CPU 0 Branch Prediction Accuracy: 98.42% MPKI: 0.8771 Average ROB Occupancy at Mispredict: 28.7
Branch type MPKI
BRANCH_DIRECT_JUMP: 0.0452
BRANCH_INDIRECT: 0.5
BRANCH_CONDITIONAL: 0.0893
BRANCH_DIRECT_CALL: 0.145
BRANCH_INDIRECT_CALL: 0.0205
BRANCH_RETURN: 0.0773

LLC TOTAL        ACCESS:     198919 HIT:     196473 MISS:       2446
LLC LOAD         ACCESS:      24665 HIT:      24518 MISS:        147
LLC RFO          ACCESS:      56045 HIT:      55764 MISS:        281
LLC PREFETCH     ACCESS:      55702 HIT:      53873 MISS:       1829
LLC WRITE        ACCESS:      61689 HIT:      61689 MISS:          0
LLC TRANSLATION  ACCESS:        818 HIT:        629 MISS:        189
LLC PREFETCH REQUESTED:          0 ISSUED:          0 USEFUL:          0 USELESS:          0
LLC AVERAGE MISS LATENCY: 154.8 cycles
cpu0_DTLB TOTAL        ACCESS:   17031322 HIT:   17009474 MISS:      21848
cpu0_DTLB LOAD         ACCESS:   17031322 HIT:   17009474 MISS:      21848
cpu0_DTLB RFO          ACCESS:          0 HIT:          0 MISS:          0
cpu0_DTLB PREFETCH     ACCESS:          0 HIT:          0 MISS:          0
cpu0_DTLB WRITE        ACCESS:          0 HIT:          0 MISS:          0
cpu0_DTLB TRANSLATION  ACCESS:          0 HIT:          0 MISS:          0
cpu0_DTLB PREFETCH REQUESTED:          0 ISSUED:          0 USEFUL:          0 USELESS:          0
cpu0_DTLB AVERAGE MISS LATENCY: 5.236 cycles
cpu0_ITLB TOTAL        ACCESS:    1276997 HIT:    1265332 MISS:      11665
cpu0_ITLB LOAD         ACCESS:    1276997 HIT:    1265332 MISS:      11665
cpu0_ITLB RFO          ACCESS:          0 HIT:          0 MISS:          0
cpu0_ITLB PREFETCH     ACCESS:          0 HIT:          0 MISS:          0
cpu0_ITLB WRITE        ACCESS:          0 HIT:          0 MISS:          0
cpu0_ITLB TRANSLATION  ACCESS:          0 HIT:          0 MISS:          0
cpu0_ITLB PREFETCH REQUESTED:          0 ISSUED:          0 USEFUL:          0 USELESS:          0
cpu0_ITLB AVERAGE MISS LATENCY: 7.899 cycles
cpu0_L1D TOTAL        ACCESS:   33249728 HIT:   32930306 MISS:     319422
cpu0_L1D LOAD         ACCESS:   12931621 HIT:   12834068 MISS:      97553
cpu0_L1D RFO          ACCESS:          0 HIT:          0 MISS:          0
cpu0_L1D PREFETCH     ACCESS:   17380138 HIT:   17295462 MISS:      84676
cpu0_L1D WRITE        ACCESS:    2935896 HIT:    2799923 MISS:     135973
cpu0_L1D TRANSLATION  ACCESS:       2073 HIT:        853 MISS:       1220
cpu0_L1D PREFETCH REQUESTED:   18760477 ISSUED:   17380138 USEFUL:       6713 USELESS:       1908
cpu0_L1D AVERAGE MISS LATENCY: 10.6 cycles
cpu0_L1I TOTAL        ACCESS:    1803605 HIT:    1684928 MISS:     118677
cpu0_L1I LOAD         ACCESS:     496932 HIT:     473879 MISS:      23053
cpu0_L1I RFO          ACCESS:          0 HIT:          0 MISS:          0
cpu0_L1I PREFETCH     ACCESS:    1306673 HIT:    1211049 MISS:      95624
cpu0_L1I WRITE        ACCESS:          0 HIT:          0 MISS:          0
cpu0_L1I TRANSLATION  ACCESS:          0 HIT:          0 MISS:          0
cpu0_L1I PREFETCH REQUESTED:    1568492 ISSUED:    1306683 USEFUL:      59715 USELESS:      32537
cpu0_L1I AVERAGE MISS LATENCY: 15.62 cycles
cpu0_L2C TOTAL        ACCESS:     634689 HIT:     475865 MISS:     158824
cpu0_L2C LOAD         ACCESS:      79123 HIT:      54085 MISS:      25038
cpu0_L2C RFO          ACCESS:      69145 HIT:      13084 MISS:      56061
cpu0_L2C PREFETCH     ACCESS:     400991 HIT:     324084 MISS:      76907
cpu0_L2C WRITE        ACCESS:      84281 HIT:      84281 MISS:          0
cpu0_L2C TRANSLATION  ACCESS:       1149 HIT:        331 MISS:        818
cpu0_L2C PREFETCH REQUESTED:     248052 ISSUED:     232062 USEFUL:      11207 USELESS:      17202
cpu0_L2C AVERAGE MISS LATENCY: 19.86 cycles
cpu0_STLB TOTAL        ACCESS:      19036 HIT:      17112 MISS:       1924
cpu0_STLB LOAD         ACCESS:      19036 HIT:      17112 MISS:       1924
cpu0_STLB RFO          ACCESS:          0 HIT:          0 MISS:          0
cpu0_STLB PREFETCH     ACCESS:          0 HIT:          0 MISS:          0
cpu0_STLB WRITE        ACCESS:          0 HIT:          0 MISS:          0
cpu0_STLB TRANSLATION  ACCESS:          0 HIT:          0 MISS:          0
cpu0_STLB PREFETCH REQUESTED:          0 ISSUED:          0 USEFUL:          0 USELESS:          0
cpu0_STLB AVERAGE MISS LATENCY: 45.55 cycles

DRAM Statistics

Channel 0 RQ ROW_BUFFER_HIT:        206
  ROW_BUFFER_MISS:       1117
 AVG DBUS CONGESTED CYCLE: 3.633
WQ ROW_BUFFER_HIT: Channel 0 
  ROW_BUFFER_MISS:         16
  FULL:        199

Channel 1 RQ ROW_BUFFER_HIT:        178
  ROW_BUFFER_MISS:        945
 AVG DBUS CONGESTED CYCLE: 3.674
WQ ROW_BUFFER_HIT: Channel 1 
  ROW_BUFFER_MISS:          7
  FULL:        102
BERTI TO_L1: 23435163 TO_L2: 946273 TO_L2_BC_MSHR: 167954
BERTI AVG_LAT: 19.427 NUM_TRACK_LATENCY: 98354 NUM_CANT_TRACK_LATENCY: 0
BERTI CROSS_PAGE 3440940 NO_CROSS_PAGE: 20940496
BERTI FOUND_BERTI: 2191655 NO_FOUND_BERTI: 14939387
BERTI AVERAGE_ISSUED: 13.5284
CPU 0 L1I Entangling prefetcher final stats
IP accesses: 1f30 7cc00 28158 / 497530
IP misses: f7cb 3df2c0 225 / 23651
IP hits: 0 0 0 / 0
IP late: 6e9e 1ba780 52 / 11380
IP wrong: 251e 94780 137 / 32390
miss rate: 0.0475369
coverage: 0
coverage_late: 0.481164
accuracy: 0
accuracy_late: 0.259996
discarded: 0
evicts entangled j table: 0
evicts entangled k table: 4104
max bb size: 53
formats: 1121 0 3163 1586 585 1204 0 
hist_lookups: 2692 3094 2354 1975 1860 1576 1299 949 733 599 420 272 158 89 37 0 6 4689 
hist_lookups_evict: 0.0263135 %
hist_lookups_shortlat: 20.564 %
bb_found_hist: 0 141260 39706 19673 6855 15973 1498 1074 313 139 0 39 24 0 24 27 6 0 0 0 0 12 0 0 0 0 0 0 0 0 0 6 6 0 6 0 0 0 0 0 0 0 0 0 0 0 0 0 0 0 0 0 0 6 0 0 0 0 0 0 0 0 0 0 
bb_found_summary: 409943 226647 1.80873
entangled_found_hist: 0 70446 43750 111421 12350 1529 527 0 
entangled_found_summary: 552416 240023 2.30152
bb_ent_found_hist: 0 197863 66233 39308 18541 12002 1441 5558 945 78 0 48 76 0 6 156 401 0 0 0 0 33 0 0 0 0 0 0 0 0 0 12 6 0 6 0 0 0 0 0 0 0 0 0 0 0 0 0 0 0 0 0 0 10 0 0 0 0 0 0 0 0 0 0 
bb_ent_found_summary: 650512 342723 1.89807
