WARNING: physical memory size is smaller than virtual memory size.

*** ChampSim Multicore Out-of-Order Simulator ***
Warmup Instructions: 30000000
Simulation Instructions: 100000000
Number of CPUs: 1
Page size: 4096

BTB:
Basic BTB sets: 1024 ways: 8
Indirect:
history lengths: 0 0 10 16 27 44 60 96 109 219 449 487 714 1313 2146 3881 
ITTAGE tables: 64768 bytes;Region table: 240 bytes;IUM: 384 bytes;Total Storage= 65392 bytes;
RAS:
RAS size: 64
Berti Prefetcher
CPU 0 Entangling prefetcher
Off-chip DRAM Size: 8 GiB Channels: 2 Width: 64-bit Data Race: 6400 MT/s
Heartbeat CPU 0 instructions: 10000003 cycles: 1716339 heartbeat IPC: 5.826 cumulative IPC: 5.826 (Simulation time: 00 hr 00 min 31 sec)
*** Reached end of trace: (0, "../traces/secret_traces/crypto/crypto17.champsimtrace.xz")
Heartbeat CPU 0 instructions: 20000002 cycles: 3434983 heartbeat IPC: 5.819 cumulative IPC: 5.822 (Simulation time: 00 hr 01 min 03 sec)
*** Reached end of trace: (0, "../traces/secret_traces/crypto/crypto17.champsimtrace.xz")
Heartbeat CPU 0 instructions: 30000000 cycles: 5128460 heartbeat IPC: 5.905 cumulative IPC: 5.85 (Simulation time: 00 hr 01 min 33 sec)
Warmup finished CPU 0 instructions: 30000000 cycles: 5128461 cumulative IPC: 5.85 (Simulation time: 00 hr 01 min 33 sec)
Warmup complete CPU 0 instructions: 30000000 cycles: 5128461 cumulative IPC: 5.85 (Simulation time: 00 hr 01 min 33 sec)
Heartbeat CPU 0 instructions: 40000000 cycles: 7267561 heartbeat IPC: 4.675 cumulative IPC: 4.675 (Simulation time: 00 hr 02 min 17 sec)
*** Reached end of trace: (0, "../traces/secret_traces/crypto/crypto17.champsimtrace.xz")
Heartbeat CPU 0 instructions: 50000004 cycles: 9543887 heartbeat IPC: 4.393 cumulative IPC: 4.53 (Simulation time: 00 hr 03 min 02 sec)
*** Reached end of trace: (0, "../traces/secret_traces/crypto/crypto17.champsimtrace.xz")
Heartbeat CPU 0 instructions: 60000001 cycles: 11745843 heartbeat IPC: 4.541 cumulative IPC: 4.534 (Simulation time: 00 hr 03 min 47 sec)
Heartbeat CPU 0 instructions: 70000004 cycles: 13827069 heartbeat IPC: 4.805 cumulative IPC: 4.598 (Simulation time: 00 hr 04 min 30 sec)
*** Reached end of trace: (0, "../traces/secret_traces/crypto/crypto17.champsimtrace.xz")
Heartbeat CPU 0 instructions: 80000001 cycles: 16079347 heartbeat IPC: 4.44 cumulative IPC: 4.566 (Simulation time: 00 hr 05 min 15 sec)
*** Reached end of trace: (0, "../traces/secret_traces/crypto/crypto17.champsimtrace.xz")
Heartbeat CPU 0 instructions: 90000002 cycles: 18310180 heartbeat IPC: 4.483 cumulative IPC: 4.552 (Simulation time: 00 hr 06 min 00 sec)
*** Reached end of trace: (0, "../traces/secret_traces/crypto/crypto17.champsimtrace.xz")
Heartbeat CPU 0 instructions: 100000000 cycles: 20446072 heartbeat IPC: 4.682 cumulative IPC: 4.57 (Simulation time: 00 hr 06 min 44 sec)
Heartbeat CPU 0 instructions: 110000004 cycles: 22600406 heartbeat IPC: 4.642 cumulative IPC: 4.579 (Simulation time: 00 hr 07 min 29 sec)
*** Reached end of trace: (0, "../traces/secret_traces/crypto/crypto17.champsimtrace.xz")
Heartbeat CPU 0 instructions: 120000003 cycles: 24847109 heartbeat IPC: 4.451 cumulative IPC: 4.564 (Simulation time: 00 hr 08 min 13 sec)
*** Reached end of trace: (0, "../traces/secret_traces/crypto/crypto17.champsimtrace.xz")
Heartbeat CPU 0 instructions: 130000000 cycles: 26999755 heartbeat IPC: 4.645 cumulative IPC: 4.572 (Simulation time: 00 hr 08 min 57 sec)
Simulation finished CPU 0 instructions: 100000000 cycles: 21871295 cumulative IPC: 4.572 (Simulation time: 00 hr 08 min 57 sec)
Simulation complete CPU 0 instructions: 100000000 cycles: 21871295 cumulative IPC: 4.572 (Simulation time: 00 hr 08 min 57 sec)

ChampSim completed all CPUs

=== Simulation ===
CPU 0 runs ../traces/secret_traces/crypto/crypto17.champsimtrace.xz
Region of Interest Statistics

CPU 0 cumulative IPC: 4.572 instructions: 100000000 cycles: 21871295
CPU 0 Branch Prediction Accuracy: 98.23% MPKI: 1.036 Average ROB Occupancy at Mispredict: 41.9
Branch type MPKI
BRANCH_DIRECT_JUMP: 0.0533
BRANCH_INDIRECT: 0.607
BRANCH_CONDITIONAL: 0.0888
BRANCH_DIRECT_CALL: 0.171
BRANCH_INDIRECT_CALL: 0.0246
BRANCH_RETURN: 0.0915

LLC TOTAL        ACCESS:     235089 HIT:     232769 MISS:       2320
LLC LOAD         ACCESS:      27194 HIT:      27044 MISS:        150
LLC RFO          ACCESS:      66009 HIT:      65802 MISS:        207
LLC PREFETCH     ACCESS:      66905 HIT:      65106 MISS:       1799
LLC WRITE        ACCESS:      73899 HIT:      73898 MISS:          1
LLC TRANSLATION  ACCESS:       1082 HIT:        919 MISS:        163
LLC PREFETCH REQUESTED:          0 ISSUED:          0 USEFUL:          0 USELESS:          0
LLC AVERAGE MISS LATENCY: 151.4 cycles
cpu0_DTLB TOTAL        ACCESS:   12686762 HIT:   12660494 MISS:      26268
cpu0_DTLB LOAD         ACCESS:   12686762 HIT:   12660494 MISS:      26268
cpu0_DTLB RFO          ACCESS:          0 HIT:          0 MISS:          0
cpu0_DTLB PREFETCH     ACCESS:          0 HIT:          0 MISS:          0
cpu0_DTLB WRITE        ACCESS:          0 HIT:          0 MISS:          0
cpu0_DTLB TRANSLATION  ACCESS:          0 HIT:          0 MISS:          0
cpu0_DTLB PREFETCH REQUESTED:          0 ISSUED:          0 USEFUL:          0 USELESS:          0
cpu0_DTLB AVERAGE MISS LATENCY: 5.381 cycles
cpu0_ITLB TOTAL        ACCESS:    1315622 HIT:    1302257 MISS:      13365
cpu0_ITLB LOAD         ACCESS:    1315622 HIT:    1302257 MISS:      13365
cpu0_ITLB RFO          ACCESS:          0 HIT:          0 MISS:          0
cpu0_ITLB PREFETCH     ACCESS:          0 HIT:          0 MISS:          0
cpu0_ITLB WRITE        ACCESS:          0 HIT:          0 MISS:          0
cpu0_ITLB TRANSLATION  ACCESS:          0 HIT:          0 MISS:          0
cpu0_ITLB PREFETCH REQUESTED:          0 ISSUED:          0 USEFUL:          0 USELESS:          0
cpu0_ITLB AVERAGE MISS LATENCY: 7.644 cycles
cpu0_L1D TOTAL        ACCESS:   30819031 HIT:   30429784 MISS:     389247
cpu0_L1D LOAD         ACCESS:    5043708 HIT:    4925943 MISS:     117765
cpu0_L1D RFO          ACCESS:          0 HIT:          0 MISS:          0
cpu0_L1D PREFETCH     ACCESS:   22743941 HIT:   22631996 MISS:     111945
cpu0_L1D WRITE        ACCESS:    3028649 HIT:    2870680 MISS:     157969
cpu0_L1D TRANSLATION  ACCESS:       2733 HIT:       1165 MISS:       1568
cpu0_L1D PREFETCH REQUESTED:   24269682 ISSUED:   22743941 USEFUL:      11150 USELESS:       2028
cpu0_L1D AVERAGE MISS LATENCY: 10.15 cycles
cpu0_L1I TOTAL        ACCESS:    1943158 HIT:    1804093 MISS:     139065
cpu0_L1I LOAD         ACCESS:     526740 HIT:     500335 MISS:      26405
cpu0_L1I RFO          ACCESS:          0 HIT:          0 MISS:          0
cpu0_L1I PREFETCH     ACCESS:    1416418 HIT:    1303758 MISS:     112660
cpu0_L1I WRITE        ACCESS:          0 HIT:          0 MISS:          0
cpu0_L1I TRANSLATION  ACCESS:          0 HIT:          0 MISS:          0
cpu0_L1I PREFETCH REQUESTED:    1896947 ISSUED:    1416418 USEFUL:      70862 USELESS:      38331
cpu0_L1I AVERAGE MISS LATENCY: 15.52 cycles
cpu0_L2C TOTAL        ACCESS:     767154 HIT:     578380 MISS:     188774
cpu0_L2C LOAD         ACCESS:      93435 HIT:      65621 MISS:      27814
cpu0_L2C RFO          ACCESS:      80707 HIT:      14655 MISS:      66052
cpu0_L2C PREFETCH     ACCESS:     491832 HIT:     398006 MISS:      93826
cpu0_L2C WRITE        ACCESS:      99735 HIT:      99735 MISS:          0
cpu0_L2C TRANSLATION  ACCESS:       1445 HIT:        363 MISS:       1082
cpu0_L2C PREFETCH REQUESTED:     303107 ISSUED:     282160 USEFUL:      13886 USELESS:      19513
cpu0_L2C AVERAGE MISS LATENCY: 19.13 cycles
cpu0_STLB TOTAL        ACCESS:      22858 HIT:      20355 MISS:       2503
cpu0_STLB LOAD         ACCESS:      22858 HIT:      20355 MISS:       2503
cpu0_STLB RFO          ACCESS:          0 HIT:          0 MISS:          0
cpu0_STLB PREFETCH     ACCESS:          0 HIT:          0 MISS:          0
cpu0_STLB WRITE        ACCESS:          0 HIT:          0 MISS:          0
cpu0_STLB TRANSLATION  ACCESS:          0 HIT:          0 MISS:          0
cpu0_STLB PREFETCH REQUESTED:          0 ISSUED:          0 USEFUL:          0 USELESS:          0
cpu0_STLB AVERAGE MISS LATENCY: 39.66 cycles

DRAM Statistics

Channel 0 RQ ROW_BUFFER_HIT:        233
  ROW_BUFFER_MISS:       1124
 AVG DBUS CONGESTED CYCLE: 3.603
WQ ROW_BUFFER_HIT: Channel 0 
  ROW_BUFFER_MISS:         22
  FULL:        216

Channel 1 RQ ROW_BUFFER_HIT:        163
  ROW_BUFFER_MISS:        798
 AVG DBUS CONGESTED CYCLE: 3.638
WQ ROW_BUFFER_HIT: Channel 1 
  ROW_BUFFER_MISS:          0
  FULL:         45
BERTI TO_L1: 28924522 TO_L2: 1849787 TO_L2_BC_MSHR: 173279
BERTI AVG_LAT: 20.317 NUM_TRACK_LATENCY: 120986 NUM_CANT_TRACK_LATENCY: 0
BERTI CROSS_PAGE 4408478 NO_CROSS_PAGE: 26365831
BERTI FOUND_BERTI: 2687191 NO_FOUND_BERTI: 4191673
BERTI AVERAGE_ISSUED: 13.8878
CPU 0 L1I Entangling prefetcher final stats
IP accesses: 1f30 7cc00 10684 / 527416
IP misses: f7cb 3df2c0 268 / 27081
IP hits: 0 0 0 / 0
IP late: 6e9e 1ba780 147 / 12347
IP wrong: 251e 94780 192 / 38174
miss rate: 0.0513466
coverage: 0
coverage_late: 0.455929
accuracy: 0
accuracy_late: 0.244394
discarded: 0
evicts entangled j table: 0
evicts entangled k table: 4601
max bb size: 53
formats: 1390 0 3445 1697 663 1282 0 
hist_lookups: 3140 3547 2566 2182 2068 1905 1504 1023 819 683 503 308 203 110 52 0 12 5550 
hist_lookups_evict: 0.0458453 %
hist_lookups_shortlat: 21.2035 %
bb_found_hist: 0 150390 45808 40570 14173 3345 1732 1217 361 158 0 51 28 0 28 35 7 0 0 0 0 14 0 0 0 0 0 0 0 0 0 7 0 0 7 0 0 0 0 0 0 0 0 0 0 0 0 0 0 0 0 0 0 7 0 0 0 0 0 0 0 0 0 0 
bb_found_summary: 463400 257938 1.79656
entangled_found_hist: 0 67384 55940 121715 13676 1881 1282 0 
entangled_found_summary: 616210 261878 2.35305
bb_ent_found_hist: 0 236993 69397 61685 25293 18467 2044 9830 2387 74 0 83 94 0 7 247 482 0 0 0 0 35 0 0 0 0 0 0 0 0 0 14 0 0 7 0 0 0 0 0 0 0 0 0 0 0 0 0 0 0 0 0 0 13 0 0 0 0 0 0 0 0 0 0 
bb_ent_found_summary: 870837 427152 2.03871
