WARNING: physical memory size is smaller than virtual memory size.

*** ChampSim Multicore Out-of-Order Simulator ***
Warmup Instructions: 30000000
Simulation Instructions: 100000000
Number of CPUs: 1
Page size: 4096

BTB:
Basic BTB sets: 1024 ways: 8
Indirect:
history lengths: 0 0 10 16 27 44 60 96 109 219 449 487 714 1313 2146 3881 
ITTAGE tables: 64768 bytes;Region table: 240 bytes;IUM: 384 bytes;Total Storage= 65392 bytes;
RAS:
RAS size: 64
Berti Prefetcher
CPU 0 Entangling prefetcher
Off-chip DRAM Size: 8 GiB Channels: 2 Width: 64-bit Data Race: 6400 MT/s
Heartbeat CPU 0 instructions: 10000001 cycles: 1714850 heartbeat IPC: 5.831 cumulative IPC: 5.831 (Simulation time: 00 hr 00 min 34 sec)
*** Reached end of trace: (0, "../traces/secret_traces/crypto/crypto102.champsimtrace.xz")
Heartbeat CPU 0 instructions: 20000001 cycles: 3432293 heartbeat IPC: 5.823 cumulative IPC: 5.827 (Simulation time: 00 hr 01 min 08 sec)
Heartbeat CPU 0 instructions: 30000008 cycles: 5100739 heartbeat IPC: 5.994 cumulative IPC: 5.882 (Simulation time: 00 hr 01 min 42 sec)
Warmup finished CPU 0 instructions: 30000008 cycles: 5100740 cumulative IPC: 5.882 (Simulation time: 00 hr 01 min 42 sec)
Warmup complete CPU 0 instructions: 30000008 cycles: 5100740 cumulative IPC: 5.882 (Simulation time: 00 hr 01 min 42 sec)
*** Reached end of trace: (0, "../traces/secret_traces/crypto/crypto102.champsimtrace.xz")
Heartbeat CPU 0 instructions: 40000006 cycles: 7190501 heartbeat IPC: 4.785 cumulative IPC: 4.785 (Simulation time: 00 hr 02 min 38 sec)
*** Reached end of trace: (0, "../traces/secret_traces/crypto/crypto102.champsimtrace.xz")
Heartbeat CPU 0 instructions: 50000000 cycles: 9098667 heartbeat IPC: 5.241 cumulative IPC: 5.003 (Simulation time: 00 hr 03 min 26 sec)
Heartbeat CPU 0 instructions: 60000002 cycles: 10974236 heartbeat IPC: 5.332 cumulative IPC: 5.108 (Simulation time: 00 hr 04 min 13 sec)
*** Reached end of trace: (0, "../traces/secret_traces/crypto/crypto102.champsimtrace.xz")
Heartbeat CPU 0 instructions: 70000001 cycles: 12993519 heartbeat IPC: 4.952 cumulative IPC: 5.068 (Simulation time: 00 hr 05 min 01 sec)
Heartbeat CPU 0 instructions: 80000000 cycles: 14743855 heartbeat IPC: 5.713 cumulative IPC: 5.185 (Simulation time: 00 hr 05 min 46 sec)
*** Reached end of trace: (0, "../traces/secret_traces/crypto/crypto102.champsimtrace.xz")
Heartbeat CPU 0 instructions: 90000003 cycles: 16777025 heartbeat IPC: 4.918 cumulative IPC: 5.139 (Simulation time: 00 hr 06 min 34 sec)
*** Reached end of trace: (0, "../traces/secret_traces/crypto/crypto102.champsimtrace.xz")
Heartbeat CPU 0 instructions: 100000008 cycles: 18718576 heartbeat IPC: 5.151 cumulative IPC: 5.14 (Simulation time: 00 hr 07 min 21 sec)
Heartbeat CPU 0 instructions: 110000000 cycles: 20535910 heartbeat IPC: 5.503 cumulative IPC: 5.183 (Simulation time: 00 hr 08 min 07 sec)
*** Reached end of trace: (0, "../traces/secret_traces/crypto/crypto102.champsimtrace.xz")
Heartbeat CPU 0 instructions: 120000003 cycles: 22563260 heartbeat IPC: 4.933 cumulative IPC: 5.154 (Simulation time: 00 hr 08 min 52 sec)
Heartbeat CPU 0 instructions: 130000004 cycles: 24304222 heartbeat IPC: 5.744 cumulative IPC: 5.207 (Simulation time: 00 hr 09 min 32 sec)
Simulation finished CPU 0 instructions: 100000002 cycles: 19203486 cumulative IPC: 5.207 (Simulation time: 00 hr 09 min 32 sec)
Simulation complete CPU 0 instructions: 100000002 cycles: 19203486 cumulative IPC: 5.207 (Simulation time: 00 hr 09 min 32 sec)

ChampSim completed all CPUs

=== Simulation ===
CPU 0 runs ../traces/secret_traces/crypto/crypto102.champsimtrace.xz
Region of Interest Statistics

CPU 0 cumulative IPC: 5.207 instructions: 100000002 cycles: 19203486
CPU 0 Branch Prediction Accuracy: 98.87% MPKI: 0.7816 Average ROB Occupancy at Mispredict: 27.27
Branch type MPKI
BRANCH_DIRECT_JUMP: 0.0435
BRANCH_INDIRECT: 0.444
BRANCH_CONDITIONAL: 0.0839
BRANCH_DIRECT_CALL: 0.125
BRANCH_INDIRECT_CALL: 0.0167
BRANCH_RETURN: 0.0681

LLC TOTAL        ACCESS:     194366 HIT:     192273 MISS:       2093
LLC LOAD         ACCESS:      24583 HIT:      24475 MISS:        108
LLC RFO          ACCESS:      55449 HIT:      55309 MISS:        140
LLC PREFETCH     ACCESS:      51616 HIT:      49925 MISS:       1691
LLC WRITE        ACCESS:      61872 HIT:      61872 MISS:          0
LLC TRANSLATION  ACCESS:        846 HIT:        692 MISS:        154
LLC PREFETCH REQUESTED:          0 ISSUED:          0 USEFUL:          0 USELESS:          0
LLC AVERAGE MISS LATENCY: 156.9 cycles
cpu0_DTLB TOTAL        ACCESS:    5783590 HIT:    5761536 MISS:      22054
cpu0_DTLB LOAD         ACCESS:    5783590 HIT:    5761536 MISS:      22054
cpu0_DTLB RFO          ACCESS:          0 HIT:          0 MISS:          0
cpu0_DTLB PREFETCH     ACCESS:          0 HIT:          0 MISS:          0
cpu0_DTLB WRITE        ACCESS:          0 HIT:          0 MISS:          0
cpu0_DTLB TRANSLATION  ACCESS:          0 HIT:          0 MISS:          0
cpu0_DTLB PREFETCH REQUESTED:          0 ISSUED:          0 USEFUL:          0 USELESS:          0
cpu0_DTLB AVERAGE MISS LATENCY: 5.519 cycles
cpu0_ITLB TOTAL        ACCESS:     613250 HIT:     601383 MISS:      11867
cpu0_ITLB LOAD         ACCESS:     613250 HIT:     601383 MISS:      11867
cpu0_ITLB RFO          ACCESS:          0 HIT:          0 MISS:          0
cpu0_ITLB PREFETCH     ACCESS:          0 HIT:          0 MISS:          0
cpu0_ITLB WRITE        ACCESS:          0 HIT:          0 MISS:          0
cpu0_ITLB TRANSLATION  ACCESS:          0 HIT:          0 MISS:          0
cpu0_ITLB PREFETCH REQUESTED:          0 ISSUED:          0 USEFUL:          0 USELESS:          0
cpu0_ITLB AVERAGE MISS LATENCY: 7.535 cycles
cpu0_L1D TOTAL        ACCESS:    9556162 HIT:    9215544 MISS:     340618
cpu0_L1D LOAD         ACCESS:    4074963 HIT:    3981246 MISS:      93717
cpu0_L1D RFO          ACCESS:          0 HIT:          0 MISS:          0
cpu0_L1D PREFETCH     ACCESS:    1006730 HIT:     892219 MISS:     114511
cpu0_L1D WRITE        ACCESS:    4472174 HIT:    4341062 MISS:     131112
cpu0_L1D TRANSLATION  ACCESS:       2295 HIT:       1017 MISS:       1278
cpu0_L1D PREFETCH REQUESTED:    2316792 ISSUED:    1006730 USEFUL:       5554 USELESS:       1432
cpu0_L1D AVERAGE MISS LATENCY: 9.763 cycles
cpu0_L1I TOTAL        ACCESS:     889966 HIT:     769850 MISS:     120116
cpu0_L1I LOAD         ACCESS:     290116 HIT:     266487 MISS:      23629
cpu0_L1I RFO          ACCESS:          0 HIT:          0 MISS:          0
cpu0_L1I PREFETCH     ACCESS:     599850 HIT:     503363 MISS:      96487
cpu0_L1I WRITE        ACCESS:          0 HIT:          0 MISS:          0
cpu0_L1I TRANSLATION  ACCESS:          0 HIT:          0 MISS:          0
cpu0_L1I PREFETCH REQUESTED:     868152 ISSUED:     599883 USEFUL:      59675 USELESS:      33213
cpu0_L1I AVERAGE MISS LATENCY: 15.38 cycles
cpu0_L2C TOTAL        ACCESS:     698662 HIT:     548354 MISS:     150308
cpu0_L2C LOAD         ACCESS:      79768 HIT:      54804 MISS:      24964
cpu0_L2C RFO          ACCESS:      67296 HIT:      11827 MISS:      55469
cpu0_L2C PREFETCH     ACCESS:     467184 HIT:     398155 MISS:      69029
cpu0_L2C WRITE        ACCESS:      83230 HIT:      83230 MISS:          0
cpu0_L2C TRANSLATION  ACCESS:       1184 HIT:        338 MISS:        846
cpu0_L2C PREFETCH REQUESTED:     281289 ISSUED:     265663 USEFUL:       9417 USELESS:      16031
cpu0_L2C AVERAGE MISS LATENCY: 20.03 cycles
cpu0_STLB TOTAL        ACCESS:      19460 HIT:      17317 MISS:       2143
cpu0_STLB LOAD         ACCESS:      19460 HIT:      17317 MISS:       2143
cpu0_STLB RFO          ACCESS:          0 HIT:          0 MISS:          0
cpu0_STLB PREFETCH     ACCESS:          0 HIT:          0 MISS:          0
cpu0_STLB WRITE        ACCESS:          0 HIT:          0 MISS:          0
cpu0_STLB TRANSLATION  ACCESS:          0 HIT:          0 MISS:          0
cpu0_STLB PREFETCH REQUESTED:          0 ISSUED:          0 USEFUL:          0 USELESS:          0
cpu0_STLB AVERAGE MISS LATENCY: 41.35 cycles

DRAM Statistics

Channel 0 RQ ROW_BUFFER_HIT:        144
  ROW_BUFFER_MISS:        914
 AVG DBUS CONGESTED CYCLE: 3.643
WQ ROW_BUFFER_HIT: Channel 0 
  ROW_BUFFER_MISS:         16
  FULL:         72

Channel 1 RQ ROW_BUFFER_HIT:        204
  ROW_BUFFER_MISS:        831
 AVG DBUS CONGESTED CYCLE: 3.735
WQ ROW_BUFFER_HIT: Channel 1 
  ROW_BUFFER_MISS:          4
  FULL:         70
BERTI TO_L1: 1933407 TO_L2: 1200885 TO_L2_BC_MSHR: 170611
BERTI AVG_LAT: 19.473 NUM_TRACK_LATENCY: 95031 NUM_CANT_TRACK_LATENCY: 0
BERTI CROSS_PAGE 382807 NO_CROSS_PAGE: 2751485
BERTI FOUND_BERTI: 1584068 NO_FOUND_BERTI: 4013447
BERTI AVERAGE_ISSUED: 3.52246
CPU 0 L1I Entangling prefetcher final stats
IP accesses: 6f71 1bdc40 2983 / 290413
IP misses: 6e9e 1ba780 295 / 23926
IP hits: 0 0 0 / 0
IP late: 6e9e 1ba780 260 / 11734
IP wrong: 251e 94780 318 / 33057
miss rate: 0.0823862
coverage: 0
coverage_late: 0.490429
accuracy: 0
accuracy_late: 0.261973
discarded: 0
evicts entangled j table: 0
evicts entangled k table: 4087
max bb size: 53
formats: 1252 0 3080 1634 691 1144 0 
hist_lookups: 2807 3087 2327 2027 1962 1731 1187 913 862 663 438 281 154 79 36 0 12 4895 
hist_lookups_evict: 0.0511488 %
hist_lookups_shortlat: 20.8645 %
bb_found_hist: 0 72743 27141 15439 6617 2770 1394 1063 309 164 0 41 24 0 24 30 6 0 0 0 0 12 0 0 0 0 0 0 0 0 0 6 0 0 6 0 0 0 0 0 0 0 0 0 0 0 0 0 0 0 0 0 0 6 0 0 0 0 0 0 0 0 0 0 
bb_found_summary: 235994 127795 1.84667
entangled_found_hist: 0 42515 29020 48010 8575 1751 537 0 
entangled_found_summary: 290862 130408 2.2304
bb_ent_found_hist: 0 97558 37806 30506 10141 6864 2094 1386 1330 81 0 43 76 0 6 186 447 0 0 0 0 30 0 0 0 0 0 0 0 0 0 12 0 0 6 0 0 0 0 0 0 0 0 0 0 0 0 0 0 0 0 0 0 11 0 0 0 0 0 0 0 0 0 0 
bb_ent_found_summary: 386407 188583 2.04901
