WARNING: physical memory size is smaller than virtual memory size.

*** ChampSim Multicore Out-of-Order Simulator ***
Warmup Instructions: 30000000
Simulation Instructions: 100000000
Number of CPUs: 1
Page size: 4096

BTB:
Basic BTB sets: 1024 ways: 8
Indirect:
history lengths: 0 0 10 16 27 44 60 96 109 219 449 487 714 1313 2146 3881 
ITTAGE tables: 64768 bytes;Region table: 240 bytes;IUM: 384 bytes;Total Storage= 65392 bytes;
RAS:
RAS size: 64
Berti Prefetcher
CPU 0 Entangling prefetcher
Off-chip DRAM Size: 8 GiB Channels: 2 Width: 64-bit Data Race: 6400 MT/s
Heartbeat CPU 0 instructions: 10000003 cycles: 1714841 heartbeat IPC: 5.831 cumulative IPC: 5.831 (Simulation time: 00 hr 00 min 35 sec)
Heartbeat CPU 0 instructions: 20000002 cycles: 3431181 heartbeat IPC: 5.826 cumulative IPC: 5.829 (Simulation time: 00 hr 01 min 07 sec)
Heartbeat CPU 0 instructions: 30000002 cycles: 5097949 heartbeat IPC: 6 cumulative IPC: 5.885 (Simulation time: 00 hr 01 min 35 sec)
Warmup finished CPU 0 instructions: 30000002 cycles: 5097950 cumulative IPC: 5.885 (Simulation time: 00 hr 01 min 35 sec)
Warmup complete CPU 0 instructions: 30000002 cycles: 5097950 cumulative IPC: 5.885 (Simulation time: 00 hr 01 min 35 sec)
Heartbeat CPU 0 instructions: 40000001 cycles: 6765501 heartbeat IPC: 5.997 cumulative IPC: 5.997 (Simulation time: 00 hr 02 min 08 sec)
Heartbeat CPU 0 instructions: 50000006 cycles: 8433821 heartbeat IPC: 5.994 cumulative IPC: 5.995 (Simulation time: 00 hr 02 min 41 sec)
Heartbeat CPU 0 instructions: 60000001 cycles: 10108389 heartbeat IPC: 5.972 cumulative IPC: 5.987 (Simulation time: 00 hr 03 min 14 sec)
*** Reached end of trace: (0, "../traces/secret_traces/crypto/crypto53.champsimtrace.xz")
Heartbeat CPU 0 instructions: 70000002 cycles: 12704020 heartbeat IPC: 3.853 cumulative IPC: 5.259 (Simulation time: 00 hr 03 min 56 sec)
Heartbeat CPU 0 instructions: 80000010 cycles: 15022169 heartbeat IPC: 4.314 cumulative IPC: 5.038 (Simulation time: 00 hr 04 min 38 sec)
Heartbeat CPU 0 instructions: 90000002 cycles: 16908323 heartbeat IPC: 5.302 cumulative IPC: 5.08 (Simulation time: 00 hr 05 min 17 sec)
Heartbeat CPU 0 instructions: 100000007 cycles: 18590251 heartbeat IPC: 5.946 cumulative IPC: 5.188 (Simulation time: 00 hr 05 min 54 sec)
Heartbeat CPU 0 instructions: 110000001 cycles: 20258104 heartbeat IPC: 5.996 cumulative IPC: 5.277 (Simulation time: 00 hr 06 min 27 sec)
Heartbeat CPU 0 instructions: 120000004 cycles: 21926358 heartbeat IPC: 5.994 cumulative IPC: 5.348 (Simulation time: 00 hr 07 min 01 sec)
*** Reached end of trace: (0, "../traces/secret_traces/crypto/crypto53.champsimtrace.xz")
Heartbeat CPU 0 instructions: 130000004 cycles: 24330343 heartbeat IPC: 4.16 cumulative IPC: 5.2 (Simulation time: 00 hr 07 min 47 sec)
Simulation finished CPU 0 instructions: 100000002 cycles: 19232394 cumulative IPC: 5.2 (Simulation time: 00 hr 07 min 47 sec)
Simulation complete CPU 0 instructions: 100000002 cycles: 19232394 cumulative IPC: 5.2 (Simulation time: 00 hr 07 min 47 sec)

ChampSim completed all CPUs

=== Simulation ===
CPU 0 runs ../traces/secret_traces/crypto/crypto53.champsimtrace.xz
Region of Interest Statistics

CPU 0 cumulative IPC: 5.2 instructions: 100000002 cycles: 19232394
CPU 0 Branch Prediction Accuracy: 98.04% MPKI: 0.4256 Average ROB Occupancy at Mispredict: 31.3
Branch type MPKI
BRANCH_DIRECT_JUMP: 0.0221
BRANCH_INDIRECT: 0.211
BRANCH_CONDITIONAL: 0.0917
BRANCH_DIRECT_CALL: 0.0606
BRANCH_INDIRECT_CALL: 0.00698
BRANCH_RETURN: 0.0331

LLC TOTAL        ACCESS:     150640 HIT:      80054 MISS:      70586
LLC LOAD         ACCESS:      17196 HIT:       4744 MISS:      12452
LLC RFO          ACCESS:      44048 HIT:      11027 MISS:      33021
LLC PREFETCH     ACCESS:      37051 HIT:      13143 MISS:      23908
LLC WRITE        ACCESS:      51407 HIT:      50968 MISS:        439
LLC TRANSLATION  ACCESS:        938 HIT:        172 MISS:        766
LLC PREFETCH REQUESTED:          0 ISSUED:          0 USEFUL:          0 USELESS:          0
LLC AVERAGE MISS LATENCY: 269.2 cycles
cpu0_DTLB TOTAL        ACCESS:    8649405 HIT:    8634539 MISS:      14866
cpu0_DTLB LOAD         ACCESS:    8649405 HIT:    8634539 MISS:      14866
cpu0_DTLB RFO          ACCESS:          0 HIT:          0 MISS:          0
cpu0_DTLB PREFETCH     ACCESS:          0 HIT:          0 MISS:          0
cpu0_DTLB WRITE        ACCESS:          0 HIT:          0 MISS:          0
cpu0_DTLB TRANSLATION  ACCESS:          0 HIT:          0 MISS:          0
cpu0_DTLB PREFETCH REQUESTED:          0 ISSUED:          0 USEFUL:          0 USELESS:          0
cpu0_DTLB AVERAGE MISS LATENCY: 13.75 cycles
cpu0_ITLB TOTAL        ACCESS:    3093539 HIT:    3087220 MISS:       6319
cpu0_ITLB LOAD         ACCESS:    3093539 HIT:    3087220 MISS:       6319
cpu0_ITLB RFO          ACCESS:          0 HIT:          0 MISS:          0
cpu0_ITLB PREFETCH     ACCESS:          0 HIT:          0 MISS:          0
cpu0_ITLB WRITE        ACCESS:          0 HIT:          0 MISS:          0
cpu0_ITLB TRANSLATION  ACCESS:          0 HIT:          0 MISS:          0
cpu0_ITLB PREFETCH REQUESTED:          0 ISSUED:          0 USEFUL:          0 USELESS:          0
cpu0_ITLB AVERAGE MISS LATENCY: 22.37 cycles
cpu0_L1D TOTAL        ACCESS:   10310806 HIT:   10094512 MISS:     216294
cpu0_L1D LOAD         ACCESS:    5827184 HIT:    5770261 MISS:      56923
cpu0_L1D RFO          ACCESS:          0 HIT:          0 MISS:          0
cpu0_L1D PREFETCH     ACCESS:     295492 HIT:     250195 MISS:      45297
cpu0_L1D WRITE        ACCESS:    4186295 HIT:    4073438 MISS:     112857
cpu0_L1D TRANSLATION  ACCESS:       1835 HIT:        618 MISS:       1217
cpu0_L1D PREFETCH REQUESTED:    2598524 ISSUED:     295492 USEFUL:       4104 USELESS:        492
cpu0_L1D AVERAGE MISS LATENCY: 75.69 cycles
cpu0_L1I TOTAL        ACCESS:    4760700 HIT:    4687576 MISS:      73124
cpu0_L1I LOAD         ACCESS:    1427987 HIT:    1408630 MISS:      19357
cpu0_L1I RFO          ACCESS:          0 HIT:          0 MISS:          0
cpu0_L1I PREFETCH     ACCESS:    3332713 HIT:    3278946 MISS:      53767
cpu0_L1I WRITE        ACCESS:          0 HIT:          0 MISS:          0
cpu0_L1I TRANSLATION  ACCESS:          0 HIT:          0 MISS:          0
cpu0_L1I PREFETCH REQUESTED:    9172042 ISSUED:    3332748 USEFUL:      28761 USELESS:      21961
cpu0_L1I AVERAGE MISS LATENCY: 35.97 cycles
cpu0_L2C TOTAL        ACCESS:     388694 HIT:     257422 MISS:     131272
cpu0_L2C LOAD         ACCESS:      51221 HIT:      29617 MISS:      21604
cpu0_L2C RFO          ACCESS:      48243 HIT:       4156 MISS:      44087
cpu0_L2C PREFETCH     ACCESS:     230995 HIT:     166352 MISS:      64643
cpu0_L2C WRITE        ACCESS:      57048 HIT:      57048 MISS:          0
cpu0_L2C TRANSLATION  ACCESS:       1187 HIT:        249 MISS:        938
cpu0_L2C PREFETCH REQUESTED:     143694 ISSUED:     138522 USEFUL:      11878 USELESS:       8570
cpu0_L2C AVERAGE MISS LATENCY: 157.2 cycles
cpu0_STLB TOTAL        ACCESS:       9663 HIT:       7971 MISS:       1692
cpu0_STLB LOAD         ACCESS:       9663 HIT:       7971 MISS:       1692
cpu0_STLB RFO          ACCESS:          0 HIT:          0 MISS:          0
cpu0_STLB PREFETCH     ACCESS:          0 HIT:          0 MISS:          0
cpu0_STLB WRITE        ACCESS:          0 HIT:          0 MISS:          0
cpu0_STLB TRANSLATION  ACCESS:          0 HIT:          0 MISS:          0
cpu0_STLB PREFETCH REQUESTED:          0 ISSUED:          0 USEFUL:          0 USELESS:          0
cpu0_STLB AVERAGE MISS LATENCY: 185.2 cycles

DRAM Statistics

Channel 0 RQ ROW_BUFFER_HIT:      15022
  ROW_BUFFER_MISS:      20462
 AVG DBUS CONGESTED CYCLE: 3.944
WQ ROW_BUFFER_HIT: Channel 0 
  ROW_BUFFER_MISS:       2177
  FULL:      17684

Channel 1 RQ ROW_BUFFER_HIT:      14613
  ROW_BUFFER_MISS:      20046
 AVG DBUS CONGESTED CYCLE: 3.931
WQ ROW_BUFFER_HIT: Channel 1 
  ROW_BUFFER_MISS:       2259
  FULL:      16744
BERTI TO_L1: 811179 TO_L2: 2268136 TO_L2_BC_MSHR: 1268034
BERTI AVG_LAT: 89.5419 NUM_TRACK_LATENCY: 73999 NUM_CANT_TRACK_LATENCY: 0
BERTI CROSS_PAGE 633299 NO_CROSS_PAGE: 2446016
BERTI FOUND_BERTI: 1124426 NO_FOUND_BERTI: 7222674
BERTI AVERAGE_ISSUED: 4.49098
CPU 0 L1I Entangling prefetcher final stats
IP accesses: 1f31 7cc40 166188 / 1428177
IP misses: f9ad 3e6b40 79 / 19547
IP hits: 0 0 0 / 0
IP late: 3ffa ffe80 23 / 9288
IP wrong: f801 3e0040 47 / 21869
miss rate: 0.0136867
coverage: 0
coverage_late: 0.475163
accuracy: 0
accuracy_late: 0.298104
discarded: 0
evicts entangled j table: 0
evicts entangled k table: 2894
max bb size: 56
formats: 686 0 2707 1390 600 1311 0 
hist_lookups: 2591 2619 1886 1733 1517 1245 933 625 502 416 328 221 135 90 36 0 0 3473 
hist_lookups_evict: 0 %
hist_lookups_shortlat: 18.9265 %
bb_found_hist: 0 195193 41699 62330 14997 1686 717 513 188 23725 0 23731 33 20 12 11858 13 0 11848 0 0 22 0 6 11845 0 1 0 9417 3606 8050 2 0 0 2 0 0 0 0 0 0 0 0 0 0 0 0 0 0 0 11 0 0 3968 0 0 17 0 0 0 0 0 0 0 
bb_found_summary: 2516720 425510 5.9146
entangled_found_hist: 0 155933 67070 159669 4511 752 267 0 
entangled_found_summary: 792486 388202 2.04143
bb_ent_found_hist: 0 297916 29979 87023 5744 3429 1823 732 652 10490 0 31355 42 26 6 60 2 0 36192 0 0 35520 0 9140 0 0 0 0 0 4 0 2 0 0 3 0 0 0 0 0 0 0 0 0 0 0 0 0 0 0 11838 0 0 11880 0 0 34694 0 0 0 0 0 0 0 
bb_ent_found_summary: 5893795 608552 9.68495
