WARNING: physical memory size is smaller than virtual memory size.

*** ChampSim Multicore Out-of-Order Simulator ***
Warmup Instructions: 30000000
Simulation Instructions: 100000000
Number of CPUs: 1
Page size: 4096

BTB:
Basic BTB sets: 1024 ways: 8
Indirect:
history lengths: 0 0 10 16 27 44 60 96 109 219 449 487 714 1313 2146 3881 
ITTAGE tables: 64768 bytes;Region table: 240 bytes;IUM: 384 bytes;Total Storage= 65392 bytes;
RAS:
RAS size: 64
Berti Prefetcher
CPU 0 Entangling prefetcher
Off-chip DRAM Size: 8 GiB Channels: 2 Width: 64-bit Data Race: 6400 MT/s
Heartbeat CPU 0 instructions: 10000002 cycles: 1714782 heartbeat IPC: 5.832 cumulative IPC: 5.832 (Simulation time: 00 hr 00 min 35 sec)
Heartbeat CPU 0 instructions: 20000000 cycles: 3431121 heartbeat IPC: 5.826 cumulative IPC: 5.829 (Simulation time: 00 hr 01 min 07 sec)
Heartbeat CPU 0 instructions: 30000003 cycles: 5097873 heartbeat IPC: 6 cumulative IPC: 5.885 (Simulation time: 00 hr 01 min 43 sec)
Warmup finished CPU 0 instructions: 30000003 cycles: 5097874 cumulative IPC: 5.885 (Simulation time: 00 hr 01 min 43 sec)
Warmup complete CPU 0 instructions: 30000003 cycles: 5097874 cumulative IPC: 5.885 (Simulation time: 00 hr 01 min 43 sec)
Heartbeat CPU 0 instructions: 40000002 cycles: 6765464 heartbeat IPC: 5.997 cumulative IPC: 5.997 (Simulation time: 00 hr 02 min 22 sec)
*** Reached end of trace: (0, "../traces/secret_traces/crypto/crypto68.champsimtrace.xz")
Heartbeat CPU 0 instructions: 50000001 cycles: 9283587 heartbeat IPC: 3.971 cumulative IPC: 4.778 (Simulation time: 00 hr 03 min 07 sec)
Heartbeat CPU 0 instructions: 60000005 cycles: 11029159 heartbeat IPC: 5.729 cumulative IPC: 5.058 (Simulation time: 00 hr 03 min 43 sec)
Heartbeat CPU 0 instructions: 70000004 cycles: 13574521 heartbeat IPC: 3.929 cumulative IPC: 4.719 (Simulation time: 00 hr 04 min 30 sec)
Heartbeat CPU 0 instructions: 80000002 cycles: 15257468 heartbeat IPC: 5.942 cumulative IPC: 4.921 (Simulation time: 00 hr 05 min 05 sec)
*** Reached end of trace: (0, "../traces/secret_traces/crypto/crypto68.champsimtrace.xz")
Heartbeat CPU 0 instructions: 90000003 cycles: 17371261 heartbeat IPC: 4.731 cumulative IPC: 4.889 (Simulation time: 00 hr 05 min 44 sec)
Heartbeat CPU 0 instructions: 100000000 cycles: 19390347 heartbeat IPC: 4.953 cumulative IPC: 4.898 (Simulation time: 00 hr 06 min 23 sec)
Heartbeat CPU 0 instructions: 110000008 cycles: 21890151 heartbeat IPC: 4 cumulative IPC: 4.764 (Simulation time: 00 hr 07 min 07 sec)
Heartbeat CPU 0 instructions: 120000000 cycles: 23571066 heartbeat IPC: 5.949 cumulative IPC: 4.872 (Simulation time: 00 hr 07 min 42 sec)
Heartbeat CPU 0 instructions: 130000002 cycles: 25238521 heartbeat IPC: 5.997 cumulative IPC: 4.965 (Simulation time: 00 hr 08 min 17 sec)
Simulation finished CPU 0 instructions: 100000003 cycles: 20140649 cumulative IPC: 4.965 (Simulation time: 00 hr 08 min 17 sec)
Simulation complete CPU 0 instructions: 100000003 cycles: 20140649 cumulative IPC: 4.965 (Simulation time: 00 hr 08 min 17 sec)

ChampSim completed all CPUs

=== Simulation ===
CPU 0 runs ../traces/secret_traces/crypto/crypto68.champsimtrace.xz
Region of Interest Statistics

CPU 0 cumulative IPC: 4.965 instructions: 100000003 cycles: 20140649
CPU 0 Branch Prediction Accuracy: 99.68% MPKI: 0.5255 Average ROB Occupancy at Mispredict: 32.26
Branch type MPKI
BRANCH_DIRECT_JUMP: 0.0287
BRANCH_INDIRECT: 0.26
BRANCH_CONDITIONAL: 0.105
BRANCH_DIRECT_CALL: 0.0791
BRANCH_INDIRECT_CALL: 0.0095
BRANCH_RETURN: 0.0437

LLC TOTAL        ACCESS:     228758 HIT:     126446 MISS:     102312
LLC LOAD         ACCESS:      26309 HIT:       7028 MISS:      19281
LLC RFO          ACCESS:      69683 HIT:      21983 MISS:      47700
LLC PREFETCH     ACCESS:      53499 HIT:      19657 MISS:      33842
LLC WRITE        ACCESS:      78014 HIT:      77590 MISS:        424
LLC TRANSLATION  ACCESS:       1253 HIT:        188 MISS:       1065
LLC PREFETCH REQUESTED:          0 ISSUED:          0 USEFUL:          0 USELESS:          0
LLC AVERAGE MISS LATENCY: 279.4 cycles
cpu0_DTLB TOTAL        ACCESS:   12161215 HIT:   12139210 MISS:      22005
cpu0_DTLB LOAD         ACCESS:   12161215 HIT:   12139210 MISS:      22005
cpu0_DTLB RFO          ACCESS:          0 HIT:          0 MISS:          0
cpu0_DTLB PREFETCH     ACCESS:          0 HIT:          0 MISS:          0
cpu0_DTLB WRITE        ACCESS:          0 HIT:          0 MISS:          0
cpu0_DTLB TRANSLATION  ACCESS:          0 HIT:          0 MISS:          0
cpu0_DTLB PREFETCH REQUESTED:          0 ISSUED:          0 USEFUL:          0 USELESS:          0
cpu0_DTLB AVERAGE MISS LATENCY: 14.63 cycles
cpu0_ITLB TOTAL        ACCESS:     383602 HIT:     375856 MISS:       7746
cpu0_ITLB LOAD         ACCESS:     383602 HIT:     375856 MISS:       7746
cpu0_ITLB RFO          ACCESS:          0 HIT:          0 MISS:          0
cpu0_ITLB PREFETCH     ACCESS:          0 HIT:          0 MISS:          0
cpu0_ITLB WRITE        ACCESS:          0 HIT:          0 MISS:          0
cpu0_ITLB TRANSLATION  ACCESS:          0 HIT:          0 MISS:          0
cpu0_ITLB PREFETCH REQUESTED:          0 ISSUED:          0 USEFUL:          0 USELESS:          0
cpu0_ITLB AVERAGE MISS LATENCY: 21.43 cycles
cpu0_L1D TOTAL        ACCESS:   20124873 HIT:   19809020 MISS:     315853
cpu0_L1D LOAD         ACCESS:    7127999 HIT:    7041634 MISS:      86365
cpu0_L1D RFO          ACCESS:          0 HIT:          0 MISS:          0
cpu0_L1D PREFETCH     ACCESS:     311120 HIT:     267691 MISS:      43429
cpu0_L1D WRITE        ACCESS:   12683168 HIT:   12498732 MISS:     184436
cpu0_L1D TRANSLATION  ACCESS:       2586 HIT:        963 MISS:       1623
cpu0_L1D PREFETCH REQUESTED:    4220230 ISSUED:     311120 USEFUL:       5245 USELESS:        588
cpu0_L1D AVERAGE MISS LATENCY: 79.28 cycles
cpu0_L1I TOTAL        ACCESS:     558136 HIT:     462932 MISS:      95204
cpu0_L1I LOAD         ACCESS:     184930 HIT:     161061 MISS:      23869
cpu0_L1I RFO          ACCESS:          0 HIT:          0 MISS:          0
cpu0_L1I PREFETCH     ACCESS:     373206 HIT:     301871 MISS:      71335
cpu0_L1I WRITE        ACCESS:          0 HIT:          0 MISS:          0
cpu0_L1I TRANSLATION  ACCESS:          0 HIT:          0 MISS:          0
cpu0_L1I PREFETCH REQUESTED:     577426 ISSUED:     373206 USEFUL:      38999 USELESS:      28883
cpu0_L1I AVERAGE MISS LATENCY: 37.63 cycles
cpu0_L2C TOTAL        ACCESS:     512444 HIT:     313781 MISS:     198663
cpu0_L2C LOAD         ACCESS:      73303 HIT:      39084 MISS:      34219
cpu0_L2C RFO          ACCESS:      75663 HIT:       5879 MISS:      69784
cpu0_L2C PREFETCH     ACCESS:     273907 HIT:     180500 MISS:      93407
cpu0_L2C WRITE        ACCESS:      88017 HIT:      88017 MISS:          0
cpu0_L2C TRANSLATION  ACCESS:       1554 HIT:        301 MISS:       1253
cpu0_L2C PREFETCH REQUESTED:     177636 ISSUED:     169599 USEFUL:      17416 USELESS:      12918
cpu0_L2C AVERAGE MISS LATENCY: 155.7 cycles
cpu0_STLB TOTAL        ACCESS:      13253 HIT:      10881 MISS:       2372
cpu0_STLB LOAD         ACCESS:      13253 HIT:      10881 MISS:       2372
cpu0_STLB RFO          ACCESS:          0 HIT:          0 MISS:          0
cpu0_STLB PREFETCH     ACCESS:          0 HIT:          0 MISS:          0
cpu0_STLB WRITE        ACCESS:          0 HIT:          0 MISS:          0
cpu0_STLB TRANSLATION  ACCESS:          0 HIT:          0 MISS:          0
cpu0_STLB PREFETCH REQUESTED:          0 ISSUED:          0 USEFUL:          0 USELESS:          0
cpu0_STLB AVERAGE MISS LATENCY: 186 cycles

DRAM Statistics

Channel 0 RQ ROW_BUFFER_HIT:      22738
  ROW_BUFFER_MISS:      28690
 AVG DBUS CONGESTED CYCLE: 3.951
WQ ROW_BUFFER_HIT: Channel 0 
  ROW_BUFFER_MISS:       2970
  FULL:      24589

Channel 1 RQ ROW_BUFFER_HIT:      22461
  ROW_BUFFER_MISS:      27960
 AVG DBUS CONGESTED CYCLE: 3.937
WQ ROW_BUFFER_HIT: Channel 1 
  ROW_BUFFER_MISS:       3178
  FULL:      23374
BERTI TO_L1: 793643 TO_L2: 3901742 TO_L2_BC_MSHR: 2341655
BERTI AVG_LAT: 113.232 NUM_TRACK_LATENCY: 94395 NUM_CANT_TRACK_LATENCY: 0
BERTI CROSS_PAGE 1017370 NO_CROSS_PAGE: 3678015
BERTI FOUND_BERTI: 736226 NO_FOUND_BERTI: 9392948
BERTI AVERAGE_ISSUED: 4.35767
CPU 0 L1I Entangling prefetcher final stats
IP accesses: 6f71 1bdc40 866 / 185869
IP misses: 7a66 1e9980 169 / 24808
IP hits: 0 0 0 / 0
IP late: 381c e0700 33 / 11656
IP wrong: f801 3e0040 63 / 28759
miss rate: 0.133471
coverage: 0
coverage_late: 0.469849
accuracy: 0
accuracy_late: 0.288408
discarded: 0
evicts entangled j table: 0
evicts entangled k table: 3983
max bb size: 53
formats: 890 0 3465 1760 724 1624 0 
hist_lookups: 2995 3294 2505 2245 1974 1637 1242 967 733 550 441 287 195 112 55 0 6 4061 
hist_lookups_evict: 0.0257522 %
hist_lookups_shortlat: 17.43 %
bb_found_hist: 0 45834 19387 9704 4234 2293 953 734 261 51 2 69 57 46 15 21 2 4 0 0 1 2 0 0 0 0 0 0 0 0 0 2 2 0 2 0 0 0 0 0 0 0 0 0 0 0 0 0 0 0 0 0 0 1 0 0 0 0 0 0 0 0 0 0 
bb_found_summary: 158519 83677 1.89442
entangled_found_hist: 0 23496 17143 33495 6276 964 157 0 
entangled_found_summary: 189133 81531 2.31977
bb_ent_found_hist: 0 63080 29489 19513 7315 4605 2023 1223 937 85 0 97 95 49 15 145 81 2 0 0 1 17 0 0 0 0 0 0 0 0 0 2 2 0 3 0 0 0 0 0 0 0 0 0 0 0 0 0 0 0 0 0 0 1 0 0 0 0 0 0 0 0 0 0 
bb_ent_found_summary: 269059 128780 2.0893
