WARNING: physical memory size is smaller than virtual memory size.

*** ChampSim Multicore Out-of-Order Simulator ***
Warmup Instructions: 30000000
Simulation Instructions: 100000000
Number of CPUs: 1
Page size: 4096

BTB:
Basic BTB sets: 1024 ways: 8
Indirect:
history lengths: 0 0 10 16 27 44 60 96 109 219 449 487 714 1313 2146 3881 
ITTAGE tables: 64768 bytes;Region table: 240 bytes;IUM: 384 bytes;Total Storage= 65392 bytes;
RAS:
RAS size: 64
Berti Prefetcher
CPU 0 Entangling prefetcher
Off-chip DRAM Size: 8 GiB Channels: 2 Width: 64-bit Data Race: 6400 MT/s
Heartbeat CPU 0 instructions: 10000006 cycles: 1715602 heartbeat IPC: 5.829 cumulative IPC: 5.829 (Simulation time: 00 hr 00 min 34 sec)
Heartbeat CPU 0 instructions: 20000000 cycles: 3432101 heartbeat IPC: 5.826 cumulative IPC: 5.827 (Simulation time: 00 hr 01 min 08 sec)
Heartbeat CPU 0 instructions: 30000000 cycles: 5098833 heartbeat IPC: 6 cumulative IPC: 5.884 (Simulation time: 00 hr 01 min 41 sec)
Warmup finished CPU 0 instructions: 30000000 cycles: 5098834 cumulative IPC: 5.884 (Simulation time: 00 hr 01 min 41 sec)
Warmup complete CPU 0 instructions: 30000000 cycles: 5098834 cumulative IPC: 5.884 (Simulation time: 00 hr 01 min 41 sec)
Heartbeat CPU 0 instructions: 40000000 cycles: 6766411 heartbeat IPC: 5.997 cumulative IPC: 5.997 (Simulation time: 00 hr 02 min 19 sec)
Heartbeat CPU 0 instructions: 50000000 cycles: 8433077 heartbeat IPC: 6 cumulative IPC: 5.998 (Simulation time: 00 hr 02 min 58 sec)
Heartbeat CPU 0 instructions: 60000003 cycles: 10101298 heartbeat IPC: 5.994 cumulative IPC: 5.997 (Simulation time: 00 hr 03 min 41 sec)
Heartbeat CPU 0 instructions: 70000003 cycles: 11917388 heartbeat IPC: 5.506 cumulative IPC: 5.866 (Simulation time: 00 hr 04 min 22 sec)
*** Reached end of trace: (0, "../traces/secret_traces/crypto/crypto65.champsimtrace.xz")
Heartbeat CPU 0 instructions: 80000001 cycles: 14429253 heartbeat IPC: 3.981 cumulative IPC: 5.359 (Simulation time: 00 hr 05 min 07 sec)
Heartbeat CPU 0 instructions: 90000007 cycles: 17001581 heartbeat IPC: 3.888 cumulative IPC: 5.041 (Simulation time: 00 hr 05 min 54 sec)
Heartbeat CPU 0 instructions: 100000008 cycles: 18685379 heartbeat IPC: 5.939 cumulative IPC: 5.152 (Simulation time: 00 hr 06 min 32 sec)
Heartbeat CPU 0 instructions: 110000001 cycles: 20352821 heartbeat IPC: 5.997 cumulative IPC: 5.245 (Simulation time: 00 hr 07 min 10 sec)
Heartbeat CPU 0 instructions: 120000000 cycles: 22019495 heartbeat IPC: 6 cumulative IPC: 5.319 (Simulation time: 00 hr 07 min 48 sec)
Heartbeat CPU 0 instructions: 130000008 cycles: 23688032 heartbeat IPC: 5.993 cumulative IPC: 5.379 (Simulation time: 00 hr 08 min 26 sec)
Simulation finished CPU 0 instructions: 100000008 cycles: 18589199 cumulative IPC: 5.379 (Simulation time: 00 hr 08 min 26 sec)
Simulation complete CPU 0 instructions: 100000008 cycles: 18589199 cumulative IPC: 5.379 (Simulation time: 00 hr 08 min 26 sec)

ChampSim completed all CPUs

=== Simulation ===
CPU 0 runs ../traces/secret_traces/crypto/crypto65.champsimtrace.xz
Region of Interest Statistics

CPU 0 cumulative IPC: 5.379 instructions: 100000008 cycles: 18589199
CPU 0 Branch Prediction Accuracy: 99.77% MPKI: 0.303 Average ROB Occupancy at Mispredict: 31.42
Branch type MPKI
BRANCH_DIRECT_JUMP: 0.0149
BRANCH_INDIRECT: 0.143
BRANCH_CONDITIONAL: 0.0714
BRANCH_DIRECT_CALL: 0.0438
BRANCH_INDIRECT_CALL: 0.00551
BRANCH_RETURN: 0.0244

LLC TOTAL        ACCESS:     117059 HIT:      63356 MISS:      53703
LLC LOAD         ACCESS:      14321 HIT:       3576 MISS:      10745
LLC RFO          ACCESS:      35088 HIT:      10231 MISS:      24857
LLC PREFETCH     ACCESS:      27132 HIT:       9826 MISS:      17306
LLC WRITE        ACCESS:      39795 HIT:      39604 MISS:        191
LLC TRANSLATION  ACCESS:        723 HIT:        119 MISS:        604
LLC PREFETCH REQUESTED:          0 ISSUED:          0 USEFUL:          0 USELESS:          0
LLC AVERAGE MISS LATENCY: 271.9 cycles
cpu0_DTLB TOTAL        ACCESS:   13104191 HIT:   13092937 MISS:      11254
cpu0_DTLB LOAD         ACCESS:   13104191 HIT:   13092937 MISS:      11254
cpu0_DTLB RFO          ACCESS:          0 HIT:          0 MISS:          0
cpu0_DTLB PREFETCH     ACCESS:          0 HIT:          0 MISS:          0
cpu0_DTLB WRITE        ACCESS:          0 HIT:          0 MISS:          0
cpu0_DTLB TRANSLATION  ACCESS:          0 HIT:          0 MISS:          0
cpu0_DTLB PREFETCH REQUESTED:          0 ISSUED:          0 USEFUL:          0 USELESS:          0
cpu0_DTLB AVERAGE MISS LATENCY: 15.36 cycles
cpu0_ITLB TOTAL        ACCESS:     199009 HIT:     194977 MISS:       4032
cpu0_ITLB LOAD         ACCESS:     199009 HIT:     194977 MISS:       4032
cpu0_ITLB RFO          ACCESS:          0 HIT:          0 MISS:          0
cpu0_ITLB PREFETCH     ACCESS:          0 HIT:          0 MISS:          0
cpu0_ITLB WRITE        ACCESS:          0 HIT:          0 MISS:          0
cpu0_ITLB TRANSLATION  ACCESS:          0 HIT:          0 MISS:          0
cpu0_ITLB PREFETCH REQUESTED:          0 ISSUED:          0 USEFUL:          0 USELESS:          0
cpu0_ITLB AVERAGE MISS LATENCY: 24.44 cycles
cpu0_L1D TOTAL        ACCESS:   20922661 HIT:   20759582 MISS:     163079
cpu0_L1D LOAD         ACCESS:   13584249 HIT:   13540808 MISS:      43441
cpu0_L1D RFO          ACCESS:          0 HIT:          0 MISS:          0
cpu0_L1D PREFETCH     ACCESS:     152766 HIT:     126054 MISS:      26712
cpu0_L1D WRITE        ACCESS:    7184200 HIT:    7092203 MISS:      91997
cpu0_L1D TRANSLATION  ACCESS:       1446 HIT:        517 MISS:        929
cpu0_L1D PREFETCH REQUESTED:    2068647 ISSUED:     152766 USEFUL:       2912 USELESS:        274
cpu0_L1D AVERAGE MISS LATENCY: 79.5 cycles
cpu0_L1I TOTAL        ACCESS:     288863 HIT:     236972 MISS:      51891
cpu0_L1I LOAD         ACCESS:      97574 HIT:      82725 MISS:      14849
cpu0_L1I RFO          ACCESS:          0 HIT:          0 MISS:          0
cpu0_L1I PREFETCH     ACCESS:     191289 HIT:     154247 MISS:      37042
cpu0_L1I WRITE        ACCESS:          0 HIT:          0 MISS:          0
cpu0_L1I TRANSLATION  ACCESS:          0 HIT:          0 MISS:          0
cpu0_L1I PREFETCH REQUESTED:     304188 ISSUED:     191289 USEFUL:      19092 USELESS:      15663
cpu0_L1I AVERAGE MISS LATENCY: 34.68 cycles
cpu0_L2C TOTAL        ACCESS:     273696 HIT:     171505 MISS:     102191
cpu0_L2C LOAD         ACCESS:      39624 HIT:      21392 MISS:      18232
cpu0_L2C RFO          ACCESS:      37727 HIT:       2621 MISS:      35106
cpu0_L2C PREFETCH     ACCESS:     151053 HIT:     102923 MISS:      48130
cpu0_L2C WRITE        ACCESS:      44391 HIT:      44391 MISS:          0
cpu0_L2C TRANSLATION  ACCESS:        901 HIT:        178 MISS:        723
cpu0_L2C PREFETCH REQUESTED:      97467 ISSUED:      93210 USEFUL:       9139 USELESS:       6576
cpu0_L2C AVERAGE MISS LATENCY: 155.4 cycles
cpu0_STLB TOTAL        ACCESS:       6911 HIT:       5598 MISS:       1313
cpu0_STLB LOAD         ACCESS:       6911 HIT:       5598 MISS:       1313
cpu0_STLB RFO          ACCESS:          0 HIT:          0 MISS:          0
cpu0_STLB PREFETCH     ACCESS:          0 HIT:          0 MISS:          0
cpu0_STLB WRITE        ACCESS:          0 HIT:          0 MISS:          0
cpu0_STLB TRANSLATION  ACCESS:          0 HIT:          0 MISS:          0
cpu0_STLB PREFETCH REQUESTED:          0 ISSUED:          0 USEFUL:          0 USELESS:          0
cpu0_STLB AVERAGE MISS LATENCY: 187.1 cycles

DRAM Statistics

Channel 0 RQ ROW_BUFFER_HIT:      11864
  ROW_BUFFER_MISS:      15238
 AVG DBUS CONGESTED CYCLE: 3.946
WQ ROW_BUFFER_HIT: Channel 0 
  ROW_BUFFER_MISS:       1623
  FULL:      13018

Channel 1 RQ ROW_BUFFER_HIT:      11390
  ROW_BUFFER_MISS:      15008
 AVG DBUS CONGESTED CYCLE: 3.933
WQ ROW_BUFFER_HIT: Channel 1 
  ROW_BUFFER_MISS:       1728
  FULL:      12290
BERTI TO_L1: 568732 TO_L2: 1992129 TO_L2_BC_MSHR: 1144087
BERTI AVG_LAT: 88.3261 NUM_TRACK_LATENCY: 63745 NUM_CANT_TRACK_LATENCY: 0
BERTI CROSS_PAGE 534973 NO_CROSS_PAGE: 2025888
BERTI FOUND_BERTI: 1096856 NO_FOUND_BERTI: 16969060
BERTI AVERAGE_ISSUED: 4.32572
CPU 0 L1I Entangling prefetcher final stats
IP accesses: 6f71 1bdc40 433 / 97740
IP misses: f9ad 3e6b40 54 / 15015
IP hits: 0 0 0 / 0
IP late: f9ad 3e6b40 18 / 6972
IP wrong: f801 3e0040 33 / 15590
miss rate: 0.153622
coverage: 0
coverage_late: 0.464336
accuracy: 0
accuracy_late: 0.309016
discarded: 0
evicts entangled j table: 0
evicts entangled k table: 2279
max bb size: 53
formats: 537 0 2078 1028 485 1089 0 
hist_lookups: 2096 2025 1473 1329 1139 932 749 574 432 331 257 188 105 50 34 0 9 3302 
hist_lookups_evict: 0.0599002 %
hist_lookups_shortlat: 21.9768 %
bb_found_hist: 0 23753 10084 5256 2096 1204 474 337 133 35 0 42 27 20 8 10 1 0 0 0 0 2 0 0 0 0 0 0 0 0 0 1 0 0 1 0 0 0 0 0 0 0 0 0 0 0 0 0 0 0 0 0 0 1 0 0 0 0 0 0 0 0 0 0 
bb_found_summary: 82159 43485 1.88937
entangled_found_hist: 0 11856 9071 18330 3203 611 115 0 
entangled_found_summary: 101545 43186 2.35135
bb_ent_found_hist: 0 33451 15808 10345 3964 2591 1382 415 404 28 0 69 38 20 24 82 10 0 0 0 0 12 0 0 0 0 0 0 0 0 0 1 0 0 1 0 0 0 0 0 0 0 0 0 0 0 0 0 0 0 0 0 0 1 0 0 0 0 0 0 0 0 0 0 
bb_ent_found_summary: 143165 68646 2.08556
