WARNING: physical memory size is smaller than virtual memory size.

*** ChampSim Multicore Out-of-Order Simulator ***
Warmup Instructions: 30000000
Simulation Instructions: 100000000
Number of CPUs: 1
Page size: 4096

BTB:
Basic BTB sets: 1024 ways: 8
Indirect:
history lengths: 0 0 10 16 27 44 60 96 109 219 449 487 714 1313 2146 3881 
ITTAGE tables: 64768 bytes;Region table: 240 bytes;IUM: 384 bytes;Total Storage= 65392 bytes;
RAS:
RAS size: 64
Berti Prefetcher
CPU 0 Entangling prefetcher
Off-chip DRAM Size: 8 GiB Channels: 2 Width: 64-bit Data Race: 6400 MT/s
Heartbeat CPU 0 instructions: 10000002 cycles: 1715571 heartbeat IPC: 5.829 cumulative IPC: 5.829 (Simulation time: 00 hr 00 min 32 sec)
Heartbeat CPU 0 instructions: 20000007 cycles: 3432057 heartbeat IPC: 5.826 cumulative IPC: 5.827 (Simulation time: 00 hr 01 min 04 sec)
Heartbeat CPU 0 instructions: 30000000 cycles: 5098818 heartbeat IPC: 6 cumulative IPC: 5.884 (Simulation time: 00 hr 01 min 34 sec)
Warmup finished CPU 0 instructions: 30000000 cycles: 5098819 cumulative IPC: 5.884 (Simulation time: 00 hr 01 min 34 sec)
Warmup complete CPU 0 instructions: 30000000 cycles: 5098819 cumulative IPC: 5.884 (Simulation time: 00 hr 01 min 34 sec)
Heartbeat CPU 0 instructions: 40000000 cycles: 6766813 heartbeat IPC: 5.995 cumulative IPC: 5.995 (Simulation time: 00 hr 02 min 10 sec)
Heartbeat CPU 0 instructions: 50000003 cycles: 8433474 heartbeat IPC: 6 cumulative IPC: 5.998 (Simulation time: 00 hr 02 min 45 sec)
*** Reached end of trace: (0, "../traces/secret_traces/crypto/crypto38.champsimtrace.xz")
Heartbeat CPU 0 instructions: 60000008 cycles: 10665200 heartbeat IPC: 4.481 cumulative IPC: 5.389 (Simulation time: 00 hr 03 min 25 sec)
Heartbeat CPU 0 instructions: 70000001 cycles: 12749440 heartbeat IPC: 4.798 cumulative IPC: 5.228 (Simulation time: 00 hr 04 min 05 sec)
Heartbeat CPU 0 instructions: 80000008 cycles: 15333002 heartbeat IPC: 3.871 cumulative IPC: 4.886 (Simulation time: 00 hr 04 min 49 sec)
Heartbeat CPU 0 instructions: 90000007 cycles: 17016782 heartbeat IPC: 5.939 cumulative IPC: 5.034 (Simulation time: 00 hr 05 min 24 sec)
Heartbeat CPU 0 instructions: 100000003 cycles: 18684389 heartbeat IPC: 5.997 cumulative IPC: 5.153 (Simulation time: 00 hr 06 min 00 sec)
Heartbeat CPU 0 instructions: 110000000 cycles: 20351052 heartbeat IPC: 6 cumulative IPC: 5.245 (Simulation time: 00 hr 06 min 35 sec)
*** Reached end of trace: (0, "../traces/secret_traces/crypto/crypto38.champsimtrace.xz")
Heartbeat CPU 0 instructions: 120000005 cycles: 22523874 heartbeat IPC: 4.602 cumulative IPC: 5.165 (Simulation time: 00 hr 07 min 14 sec)
Heartbeat CPU 0 instructions: 130000004 cycles: 24527500 heartbeat IPC: 4.991 cumulative IPC: 5.147 (Simulation time: 00 hr 07 min 53 sec)
Simulation finished CPU 0 instructions: 100000004 cycles: 19428682 cumulative IPC: 5.147 (Simulation time: 00 hr 07 min 53 sec)
Simulation complete CPU 0 instructions: 100000004 cycles: 19428682 cumulative IPC: 5.147 (Simulation time: 00 hr 07 min 53 sec)

ChampSim completed all CPUs

=== Simulation ===
CPU 0 runs ../traces/secret_traces/crypto/crypto38.champsimtrace.xz
Region of Interest Statistics

CPU 0 cumulative IPC: 5.147 instructions: 100000004 cycles: 19428682
CPU 0 Branch Prediction Accuracy: 99.55% MPKI: 0.4694 Average ROB Occupancy at Mispredict: 34.11
Branch type MPKI
BRANCH_DIRECT_JUMP: 0.0233
BRANCH_INDIRECT: 0.229
BRANCH_CONDITIONAL: 0.1
BRANCH_DIRECT_CALL: 0.0692
BRANCH_INDIRECT_CALL: 0.00959
BRANCH_RETURN: 0.0378

LLC TOTAL        ACCESS:     157366 HIT:      81685 MISS:      75681
LLC LOAD         ACCESS:      18437 HIT:       4407 MISS:      14030
LLC RFO          ACCESS:      43972 HIT:      10237 MISS:      33735
LLC PREFETCH     ACCESS:      40318 HIT:      13593 MISS:      26725
LLC WRITE        ACCESS:      53573 HIT:      53311 MISS:        262
LLC TRANSLATION  ACCESS:       1066 HIT:        137 MISS:        929
LLC PREFETCH REQUESTED:          0 ISSUED:          0 USEFUL:          0 USELESS:          0
LLC AVERAGE MISS LATENCY: 267.1 cycles
cpu0_DTLB TOTAL        ACCESS:   11454344 HIT:   11438701 MISS:      15643
cpu0_DTLB LOAD         ACCESS:   11454344 HIT:   11438701 MISS:      15643
cpu0_DTLB RFO          ACCESS:          0 HIT:          0 MISS:          0
cpu0_DTLB PREFETCH     ACCESS:          0 HIT:          0 MISS:          0
cpu0_DTLB WRITE        ACCESS:          0 HIT:          0 MISS:          0
cpu0_DTLB TRANSLATION  ACCESS:          0 HIT:          0 MISS:          0
cpu0_DTLB PREFETCH REQUESTED:          0 ISSUED:          0 USEFUL:          0 USELESS:          0
cpu0_DTLB AVERAGE MISS LATENCY: 17.42 cycles
cpu0_ITLB TOTAL        ACCESS:     302044 HIT:     295500 MISS:       6544
cpu0_ITLB LOAD         ACCESS:     302044 HIT:     295500 MISS:       6544
cpu0_ITLB RFO          ACCESS:          0 HIT:          0 MISS:          0
cpu0_ITLB PREFETCH     ACCESS:          0 HIT:          0 MISS:          0
cpu0_ITLB WRITE        ACCESS:          0 HIT:          0 MISS:          0
cpu0_ITLB TRANSLATION  ACCESS:          0 HIT:          0 MISS:          0
cpu0_ITLB PREFETCH REQUESTED:          0 ISSUED:          0 USEFUL:          0 USELESS:          0
cpu0_ITLB AVERAGE MISS LATENCY: 22.84 cycles
cpu0_L1D TOTAL        ACCESS:   16730547 HIT:   16514497 MISS:     216050
cpu0_L1D LOAD         ACCESS:   11212522 HIT:   11152286 MISS:      60236
cpu0_L1D RFO          ACCESS:          0 HIT:          0 MISS:          0
cpu0_L1D PREFETCH     ACCESS:     307847 HIT:     266625 MISS:      41222
cpu0_L1D WRITE        ACCESS:    5208003 HIT:    5094843 MISS:     113160
cpu0_L1D TRANSLATION  ACCESS:       2175 HIT:        743 MISS:       1432
cpu0_L1D PREFETCH REQUESTED:    2862337 ISSUED:     307847 USEFUL:       4919 USELESS:        570
cpu0_L1D AVERAGE MISS LATENCY: 79.29 cycles
cpu0_L1I TOTAL        ACCESS:     439369 HIT:     365661 MISS:      73708
cpu0_L1I LOAD         ACCESS:     145030 HIT:     126229 MISS:      18801
cpu0_L1I RFO          ACCESS:          0 HIT:          0 MISS:          0
cpu0_L1I PREFETCH     ACCESS:     294339 HIT:     239432 MISS:      54907
cpu0_L1I WRITE        ACCESS:          0 HIT:          0 MISS:          0
cpu0_L1I TRANSLATION  ACCESS:          0 HIT:          0 MISS:          0
cpu0_L1I PREFETCH REQUESTED:     447880 ISSUED:     294339 USEFUL:      29166 USELESS:      22927
cpu0_L1I AVERAGE MISS LATENCY: 37.37 cycles
cpu0_L2C TOTAL        ACCESS:     388438 HIT:     251254 MISS:     137184
cpu0_L2C LOAD         ACCESS:      52690 HIT:      29620 MISS:      23070
cpu0_L2C RFO          ACCESS:      48299 HIT:       4288 MISS:      44011
cpu0_L2C PREFETCH     ACCESS:     227490 HIT:     158453 MISS:      69037
cpu0_L2C WRITE        ACCESS:      58591 HIT:      58591 MISS:          0
cpu0_L2C TRANSLATION  ACCESS:       1368 HIT:        302 MISS:       1066
cpu0_L2C PREFETCH REQUESTED:     142579 ISSUED:     137601 USEFUL:      13053 USELESS:       9148
cpu0_L2C AVERAGE MISS LATENCY: 159.9 cycles
cpu0_STLB TOTAL        ACCESS:      10398 HIT:       8410 MISS:       1988
cpu0_STLB LOAD         ACCESS:      10398 HIT:       8410 MISS:       1988
cpu0_STLB RFO          ACCESS:          0 HIT:          0 MISS:          0
cpu0_STLB PREFETCH     ACCESS:          0 HIT:          0 MISS:          0
cpu0_STLB WRITE        ACCESS:          0 HIT:          0 MISS:          0
cpu0_STLB TRANSLATION  ACCESS:          0 HIT:          0 MISS:          0
cpu0_STLB PREFETCH REQUESTED:          0 ISSUED:          0 USEFUL:          0 USELESS:          0
cpu0_STLB AVERAGE MISS LATENCY: 191.2 cycles

DRAM Statistics

Channel 0 RQ ROW_BUFFER_HIT:      15816
  ROW_BUFFER_MISS:      22233
 AVG DBUS CONGESTED CYCLE: 3.943
WQ ROW_BUFFER_HIT: Channel 0 
  ROW_BUFFER_MISS:       2314
  FULL:      18542

Channel 1 RQ ROW_BUFFER_HIT:      15658
  ROW_BUFFER_MISS:      21703
 AVG DBUS CONGESTED CYCLE: 3.932
WQ ROW_BUFFER_HIT: Channel 1 
  ROW_BUFFER_MISS:       2554
  FULL:      17499
BERTI TO_L1: 804544 TO_L2: 2529768 TO_L2_BC_MSHR: 1446578
BERTI AVG_LAT: 94.8795 NUM_TRACK_LATENCY: 76918 NUM_CANT_TRACK_LATENCY: 0
BERTI CROSS_PAGE 669464 NO_CROSS_PAGE: 2664848
BERTI FOUND_BERTI: 675646 NO_FOUND_BERTI: 14470258
BERTI AVERAGE_ISSUED: 4.52406
CPU 0 L1I Entangling prefetcher final stats
IP accesses: 6f71 1bdc40 866 / 145289
IP misses: 25bf 96fc0 84 / 19060
IP hits: 0 0 0 / 0
IP late: 28c7 a31c0 24 / 8993
IP wrong: f801 3e0040 45 / 22835
miss rate: 0.131187
coverage: 0
coverage_late: 0.471826
accuracy: 0
accuracy_late: 0.28255
discarded: 0
evicts entangled j table: 0
evicts entangled k table: 3032
max bb size: 53
formats: 736 0 2779 1395 587 1340 0 
hist_lookups: 2654 2695 1923 1676 1478 1232 967 689 569 462 340 268 149 74 38 0 3 3553 
hist_lookups_evict: 0.015983 %
hist_lookups_shortlat: 18.9292 %
bb_found_hist: 0 35503 14570 7834 3406 1659 771 509 190 46 12 54 36 20 12 15 2 0 0 0 0 4 0 0 0 0 0 0 0 0 0 2 0 0 2 0 0 0 0 0 0 0 0 0 0 0 0 0 0 0 0 0 0 2 0 0 0 0 0 0 0 0 0 0 
bb_found_summary: 122338 64649 1.89235
entangled_found_hist: 0 18673 13137 25728 5347 841 218 0 
entangled_found_summary: 149032 63944 2.33067
bb_ent_found_hist: 0 48220 21982 14357 6467 3456 1627 846 728 27 28 78 35 8 25 120 69 0 0 0 0 28 0 0 0 0 0 0 0 0 0 2 0 0 3 0 0 0 0 0 0 0 0 0 0 0 0 0 0 0 0 0 0 2 0 0 0 0 0 0 0 0 0 0 
bb_ent_found_summary: 205928 98108 2.099
