WARNING: physical memory size is smaller than virtual memory size.

*** ChampSim Multicore Out-of-Order Simulator ***
Warmup Instructions: 30000000
Simulation Instructions: 100000000
Number of CPUs: 1
Page size: 4096

BTB:
Basic BTB sets: 1024 ways: 8
Indirect:
history lengths: 0 0 10 16 27 44 60 96 109 219 449 487 714 1313 2146 3881 
ITTAGE tables: 64768 bytes;Region table: 240 bytes;IUM: 384 bytes;Total Storage= 65392 bytes;
RAS:
RAS size: 64
Berti Prefetcher
CPU 0 Entangling prefetcher
Off-chip DRAM Size: 8 GiB Channels: 2 Width: 64-bit Data Race: 6400 MT/s
Heartbeat CPU 0 instructions: 10000004 cycles: 1715474 heartbeat IPC: 5.829 cumulative IPC: 5.829 (Simulation time: 00 hr 00 min 31 sec)
Heartbeat CPU 0 instructions: 20000001 cycles: 3431742 heartbeat IPC: 5.827 cumulative IPC: 5.828 (Simulation time: 00 hr 01 min 01 sec)
*** Reached end of trace: (0, "../traces/secret_traces/crypto/crypto104.champsimtrace.xz")
Heartbeat CPU 0 instructions: 30000005 cycles: 5127465 heartbeat IPC: 5.897 cumulative IPC: 5.851 (Simulation time: 00 hr 01 min 32 sec)
Warmup finished CPU 0 instructions: 30000005 cycles: 5127466 cumulative IPC: 5.851 (Simulation time: 00 hr 01 min 32 sec)
Warmup complete CPU 0 instructions: 30000005 cycles: 5127466 cumulative IPC: 5.851 (Simulation time: 00 hr 01 min 32 sec)
Heartbeat CPU 0 instructions: 40000009 cycles: 7281049 heartbeat IPC: 4.643 cumulative IPC: 4.643 (Simulation time: 00 hr 02 min 11 sec)
Heartbeat CPU 0 instructions: 50000005 cycles: 10061332 heartbeat IPC: 3.597 cumulative IPC: 4.054 (Simulation time: 00 hr 02 min 57 sec)
*** Reached end of trace: (0, "../traces/secret_traces/crypto/crypto104.champsimtrace.xz")
Heartbeat CPU 0 instructions: 60000001 cycles: 12643569 heartbeat IPC: 3.873 cumulative IPC: 3.991 (Simulation time: 00 hr 03 min 41 sec)
Heartbeat CPU 0 instructions: 70000005 cycles: 14619800 heartbeat IPC: 5.06 cumulative IPC: 4.214 (Simulation time: 00 hr 04 min 19 sec)
Heartbeat CPU 0 instructions: 80000000 cycles: 17359578 heartbeat IPC: 3.65 cumulative IPC: 4.088 (Simulation time: 00 hr 05 min 08 sec)
*** Reached end of trace: (0, "../traces/secret_traces/crypto/crypto104.champsimtrace.xz")
Heartbeat CPU 0 instructions: 90000000 cycles: 19990198 heartbeat IPC: 3.801 cumulative IPC: 4.037 (Simulation time: 00 hr 05 min 53 sec)
Heartbeat CPU 0 instructions: 100000002 cycles: 21925608 heartbeat IPC: 5.167 cumulative IPC: 4.167 (Simulation time: 00 hr 06 min 31 sec)
Heartbeat CPU 0 instructions: 110000011 cycles: 24645721 heartbeat IPC: 3.676 cumulative IPC: 4.099 (Simulation time: 00 hr 07 min 16 sec)
*** Reached end of trace: (0, "../traces/secret_traces/crypto/crypto104.champsimtrace.xz")
Heartbeat CPU 0 instructions: 120000006 cycles: 27215815 heartbeat IPC: 3.891 cumulative IPC: 4.075 (Simulation time: 00 hr 08 min 01 sec)
Heartbeat CPU 0 instructions: 130000001 cycles: 29931590 heartbeat IPC: 3.682 cumulative IPC: 4.032 (Simulation time: 00 hr 08 min 47 sec)
Simulation finished CPU 0 instructions: 100000008 cycles: 24804126 cumulative IPC: 4.032 (Simulation time: 00 hr 08 min 47 sec)
Simulation complete CPU 0 instructions: 100000008 cycles: 24804126 cumulative IPC: 4.032 (Simulation time: 00 hr 08 min 47 sec)

ChampSim completed all CPUs

=== Simulation ===
CPU 0 runs ../traces/secret_traces/crypto/crypto104.champsimtrace.xz
Region of Interest Statistics

CPU 0 cumulative IPC: 4.032 instructions: 100000008 cycles: 24804126
CPU 0 Branch Prediction Accuracy: 98.48% MPKI: 0.8673 Average ROB Occupancy at Mispredict: 35.96
Branch type MPKI
BRANCH_DIRECT_JUMP: 0.0511
BRANCH_INDIRECT: 0.45
BRANCH_CONDITIONAL: 0.115
BRANCH_DIRECT_CALL: 0.15
BRANCH_INDIRECT_CALL: 0.0194
BRANCH_RETURN: 0.0823

LLC TOTAL        ACCESS:     430562 HIT:     230754 MISS:     199808
LLC LOAD         ACCESS:      50085 HIT:      11818 MISS:      38267
LLC RFO          ACCESS:     131919 HIT:      39342 MISS:      92577
LLC PREFETCH     ACCESS:      99984 HIT:      33637 MISS:      66347
LLC WRITE        ACCESS:     146074 HIT:     145514 MISS:        560
LLC TRANSLATION  ACCESS:       2500 HIT:        443 MISS:       2057
LLC PREFETCH REQUESTED:          0 ISSUED:          0 USEFUL:          0 USELESS:          0
LLC AVERAGE MISS LATENCY: 286.8 cycles
cpu0_DTLB TOTAL        ACCESS:    9694438 HIT:    9651887 MISS:      42551
cpu0_DTLB LOAD         ACCESS:    9694438 HIT:    9651887 MISS:      42551
cpu0_DTLB RFO          ACCESS:          0 HIT:          0 MISS:          0
cpu0_DTLB PREFETCH     ACCESS:          0 HIT:          0 MISS:          0
cpu0_DTLB WRITE        ACCESS:          0 HIT:          0 MISS:          0
cpu0_DTLB TRANSLATION  ACCESS:          0 HIT:          0 MISS:          0
cpu0_DTLB PREFETCH REQUESTED:          0 ISSUED:          0 USEFUL:          0 USELESS:          0
cpu0_DTLB AVERAGE MISS LATENCY: 15.15 cycles
cpu0_ITLB TOTAL        ACCESS:     685322 HIT:     671806 MISS:      13516
cpu0_ITLB LOAD         ACCESS:     685322 HIT:     671806 MISS:      13516
cpu0_ITLB RFO          ACCESS:          0 HIT:          0 MISS:          0
cpu0_ITLB PREFETCH     ACCESS:          0 HIT:          0 MISS:          0
cpu0_ITLB WRITE        ACCESS:          0 HIT:          0 MISS:          0
cpu0_ITLB TRANSLATION  ACCESS:          0 HIT:          0 MISS:          0
cpu0_ITLB PREFETCH REQUESTED:          0 ISSUED:          0 USEFUL:          0 USELESS:          0
cpu0_ITLB AVERAGE MISS LATENCY: 22.03 cycles
cpu0_L1D TOTAL        ACCESS:   13014385 HIT:   12400430 MISS:     613955
cpu0_L1D LOAD         ACCESS:    8677954 HIT:    8516917 MISS:     161037
cpu0_L1D RFO          ACCESS:          0 HIT:          0 MISS:          0
cpu0_L1D PREFETCH     ACCESS:     722931 HIT:     628154 MISS:      94777
cpu0_L1D WRITE        ACCESS:    3608303 HIT:    3253410 MISS:     354893
cpu0_L1D TRANSLATION  ACCESS:       5197 HIT:       1949 MISS:       3248
cpu0_L1D PREFETCH REQUESTED:    8387314 ISSUED:     722931 USEFUL:       9553 USELESS:       1058
cpu0_L1D AVERAGE MISS LATENCY: 81.45 cycles
cpu0_L1I TOTAL        ACCESS:     996996 HIT:     835430 MISS:     161566
cpu0_L1I LOAD         ACCESS:     325936 HIT:     289399 MISS:      36537
cpu0_L1I RFO          ACCESS:          0 HIT:          0 MISS:          0
cpu0_L1I PREFETCH     ACCESS:     671060 HIT:     546031 MISS:     125029
cpu0_L1I WRITE        ACCESS:          0 HIT:          0 MISS:          0
cpu0_L1I TRANSLATION  ACCESS:          0 HIT:          0 MISS:          0
cpu0_L1I PREFETCH REQUESTED:    1078767 ISSUED:     671060 USEFUL:      70592 USELESS:      49363
cpu0_L1I AVERAGE MISS LATENCY: 42.73 cycles
cpu0_L2C TOTAL        ACCESS:     969228 HIT:     589839 MISS:     379389
cpu0_L2C LOAD         ACCESS:     131081 HIT:      65407 MISS:      65674
cpu0_L2C RFO          ACCESS:     143923 HIT:      11914 MISS:     132009
cpu0_L2C PREFETCH     ACCESS:     524587 HIT:     345381 MISS:     179206
cpu0_L2C WRITE        ACCESS:     166510 HIT:     166510 MISS:          0
cpu0_L2C TRANSLATION  ACCESS:       3127 HIT:        627 MISS:       2500
cpu0_L2C PREFETCH REQUESTED:     334539 ISSUED:     321129 USEFUL:      32854 USELESS:      24953
cpu0_L2C AVERAGE MISS LATENCY: 162.6 cycles
cpu0_STLB TOTAL        ACCESS:      24142 HIT:      19390 MISS:       4752
cpu0_STLB LOAD         ACCESS:      24142 HIT:      19390 MISS:       4752
cpu0_STLB RFO          ACCESS:          0 HIT:          0 MISS:          0
cpu0_STLB PREFETCH     ACCESS:          0 HIT:          0 MISS:          0
cpu0_STLB WRITE        ACCESS:          0 HIT:          0 MISS:          0
cpu0_STLB TRANSLATION  ACCESS:          0 HIT:          0 MISS:          0
cpu0_STLB PREFETCH REQUESTED:          0 ISSUED:          0 USEFUL:          0 USELESS:          0
cpu0_STLB AVERAGE MISS LATENCY: 182.9 cycles

DRAM Statistics

Channel 0 RQ ROW_BUFFER_HIT:      44229
  ROW_BUFFER_MISS:      56227
 AVG DBUS CONGESTED CYCLE: 3.949
WQ ROW_BUFFER_HIT: Channel 0 
  ROW_BUFFER_MISS:       5495
  FULL:      48144

Channel 1 RQ ROW_BUFFER_HIT:      44005
  ROW_BUFFER_MISS:      54751
 AVG DBUS CONGESTED CYCLE: 3.941
WQ ROW_BUFFER_HIT: Channel 1 
  ROW_BUFFER_MISS:       5672
  FULL:      46245
BERTI TO_L1: 1342701 TO_L2: 7602590 TO_L2_BC_MSHR: 4561358
BERTI AVG_LAT: 130.504 NUM_TRACK_LATENCY: 158850 NUM_CANT_TRACK_LATENCY: 0
BERTI CROSS_PAGE 1835711 NO_CROSS_PAGE: 7109580
BERTI FOUND_BERTI: 2940582 NO_FOUND_BERTI: 9430155
BERTI AVERAGE_ISSUED: 3.97561
CPU 0 L1I Entangling prefetcher final stats
IP accesses: 25bf 96fc0 1479 / 328682
IP misses: c452 311480 206 / 39283
IP hits: 0 0 0 / 0
IP late: 91b9 246e40 46 / 18303
IP wrong: f801 3e0040 112 / 49186
miss rate: 0.119517
coverage: 0
coverage_late: 0.465927
accuracy: 0
accuracy_late: 0.2712
discarded: 0
evicts entangled j table: 0
evicts entangled k table: 6291
max bb size: 53
formats: 1476 0 5270 2427 1065 1958 0 
hist_lookups: 3930 4652 3715 3422 3030 2566 1979 1513 1160 946 732 501 287 190 90 0 15 6557 
hist_lookups_evict: 0.042511 %
hist_lookups_shortlat: 18.583 %
bb_found_hist: 0 84629 36251 16778 7764 3742 1914 1545 475 77 20 114 114 98 25 0 4 0 0 0 1 7 0 0 0 0 0 0 0 0 0 4 4 0 4 0 0 0 0 0 0 0 0 0 0 0 0 0 0 0 0 0 0 3 0 0 0 0 0 0 0 0 0 0 
bb_found_summary: 289247 153573 1.88345
entangled_found_hist: 0 45199 32493 61557 12048 1769 374 0 
entangled_found_summary: 354137 153440 2.30799
bb_ent_found_hist: 0 117739 53427 35905 15723 9344 4180 2312 1649 31 63 210 109 116 18 0 4 0 0 0 1 15 0 0 0 0 0 0 0 0 0 4 4 0 7 0 0 0 0 0 0 0 0 0 0 0 0 0 0 0 0 0 0 6 0 0 0 0 0 0 0 0 0 0 
bb_ent_found_summary: 503870 240867 2.09191
