WARNING: physical memory size is smaller than virtual memory size.

*** ChampSim Multicore Out-of-Order Simulator ***
Warmup Instructions: 30000000
Simulation Instructions: 100000000
Number of CPUs: 1
Page size: 4096

BTB:
Basic BTB sets: 1024 ways: 8
Indirect:
history lengths: 0 0 10 16 27 44 60 96 109 219 449 487 714 1313 2146 3881 
ITTAGE tables: 64768 bytes;Region table: 240 bytes;IUM: 384 bytes;Total Storage= 65392 bytes;
RAS:
RAS size: 64
Berti Prefetcher
CPU 0 Entangling prefetcher
Off-chip DRAM Size: 8 GiB Channels: 2 Width: 64-bit Data Race: 6400 MT/s
Heartbeat CPU 0 instructions: 10000001 cycles: 1715370 heartbeat IPC: 5.83 cumulative IPC: 5.83 (Simulation time: 00 hr 00 min 37 sec)
*** Reached end of trace: (0, "../traces/secret_traces/crypto/crypto42.champsimtrace.xz")
Heartbeat CPU 0 instructions: 20000002 cycles: 3432892 heartbeat IPC: 5.822 cumulative IPC: 5.826 (Simulation time: 00 hr 01 min 15 sec)
*** Reached end of trace: (0, "../traces/secret_traces/crypto/crypto42.champsimtrace.xz")
Heartbeat CPU 0 instructions: 30000006 cycles: 5125145 heartbeat IPC: 5.909 cumulative IPC: 5.853 (Simulation time: 00 hr 01 min 51 sec)
Warmup finished CPU 0 instructions: 30000006 cycles: 5125146 cumulative IPC: 5.853 (Simulation time: 00 hr 01 min 51 sec)
Warmup complete CPU 0 instructions: 30000006 cycles: 5125146 cumulative IPC: 5.853 (Simulation time: 00 hr 01 min 51 sec)
Heartbeat CPU 0 instructions: 40000000 cycles: 10664935 heartbeat IPC: 1.805 cumulative IPC: 1.805 (Simulation time: 00 hr 03 min 06 sec)
*** Reached end of trace: (0, "../traces/secret_traces/crypto/crypto42.champsimtrace.xz")
Heartbeat CPU 0 instructions: 50000001 cycles: 16012367 heartbeat IPC: 1.87 cumulative IPC: 1.837 (Simulation time: 00 hr 04 min 19 sec)
*** Reached end of trace: (0, "../traces/secret_traces/crypto/crypto42.champsimtrace.xz")
Heartbeat CPU 0 instructions: 60000000 cycles: 22186472 heartbeat IPC: 1.62 cumulative IPC: 1.758 (Simulation time: 00 hr 05 min 40 sec)
Heartbeat CPU 0 instructions: 70000001 cycles: 27948741 heartbeat IPC: 1.735 cumulative IPC: 1.753 (Simulation time: 00 hr 07 min 01 sec)
*** Reached end of trace: (0, "../traces/secret_traces/crypto/crypto42.champsimtrace.xz")
Heartbeat CPU 0 instructions: 80000000 cycles: 33247893 heartbeat IPC: 1.887 cumulative IPC: 1.778 (Simulation time: 00 hr 08 min 15 sec)
*** Reached end of trace: (0, "../traces/secret_traces/crypto/crypto42.champsimtrace.xz")
Heartbeat CPU 0 instructions: 90000000 cycles: 39197425 heartbeat IPC: 1.681 cumulative IPC: 1.761 (Simulation time: 00 hr 09 min 34 sec)
Heartbeat CPU 0 instructions: 100000000 cycles: 45201817 heartbeat IPC: 1.665 cumulative IPC: 1.747 (Simulation time: 00 hr 10 min 54 sec)
*** Reached end of trace: (0, "../traces/secret_traces/crypto/crypto42.champsimtrace.xz")
Heartbeat CPU 0 instructions: 110000000 cycles: 50499205 heartbeat IPC: 1.888 cumulative IPC: 1.763 (Simulation time: 00 hr 12 min 10 sec)
*** Reached end of trace: (0, "../traces/secret_traces/crypto/crypto42.champsimtrace.xz")
Heartbeat CPU 0 instructions: 120000001 cycles: 56194819 heartbeat IPC: 1.756 cumulative IPC: 1.762 (Simulation time: 00 hr 13 min 29 sec)
Heartbeat CPU 0 instructions: 130000001 cycles: 62450118 heartbeat IPC: 1.599 cumulative IPC: 1.744 (Simulation time: 00 hr 14 min 52 sec)
Simulation finished CPU 0 instructions: 100000000 cycles: 57324977 cumulative IPC: 1.744 (Simulation time: 00 hr 14 min 52 sec)
Simulation complete CPU 0 instructions: 100000000 cycles: 57324977 cumulative IPC: 1.744 (Simulation time: 00 hr 14 min 52 sec)

ChampSim completed all CPUs

=== Simulation ===
CPU 0 runs ../traces/secret_traces/crypto/crypto42.champsimtrace.xz
Region of Interest Statistics

CPU 0 cumulative IPC: 1.744 instructions: 100000000 cycles: 57324977
CPU 0 Branch Prediction Accuracy: 98.67% MPKI: 0.9233 Average ROB Occupancy at Mispredict: 29.92
Branch type MPKI
BRANCH_DIRECT_JUMP: 0.048
BRANCH_INDIRECT: 0.53
BRANCH_CONDITIONAL: 0.0879
BRANCH_DIRECT_CALL: 0.152
BRANCH_INDIRECT_CALL: 0.0224
BRANCH_RETURN: 0.0822

LLC TOTAL        ACCESS:     222199 HIT:     220277 MISS:       1922
LLC LOAD         ACCESS:      28377 HIT:      28293 MISS:         84
LLC RFO          ACCESS:      62316 HIT:      62203 MISS:        113
LLC PREFETCH     ACCESS:      60751 HIT:      59141 MISS:       1610
LLC WRITE        ACCESS:      69864 HIT:      69864 MISS:          0
LLC TRANSLATION  ACCESS:        891 HIT:        776 MISS:        115
LLC PREFETCH REQUESTED:          0 ISSUED:          0 USEFUL:          0 USELESS:          0
LLC AVERAGE MISS LATENCY: 154.1 cycles
cpu0_DTLB TOTAL        ACCESS:   23930110 HIT:   23905691 MISS:      24419
cpu0_DTLB LOAD         ACCESS:   23930110 HIT:   23905691 MISS:      24419
cpu0_DTLB RFO          ACCESS:          0 HIT:          0 MISS:          0
cpu0_DTLB PREFETCH     ACCESS:          0 HIT:          0 MISS:          0
cpu0_DTLB WRITE        ACCESS:          0 HIT:          0 MISS:          0
cpu0_DTLB TRANSLATION  ACCESS:          0 HIT:          0 MISS:          0
cpu0_DTLB PREFETCH REQUESTED:          0 ISSUED:          0 USEFUL:          0 USELESS:          0
cpu0_DTLB AVERAGE MISS LATENCY: 5.188 cycles
cpu0_ITLB TOTAL        ACCESS:     649959 HIT:     637731 MISS:      12228
cpu0_ITLB LOAD         ACCESS:     649959 HIT:     637731 MISS:      12228
cpu0_ITLB RFO          ACCESS:          0 HIT:          0 MISS:          0
cpu0_ITLB PREFETCH     ACCESS:          0 HIT:          0 MISS:          0
cpu0_ITLB WRITE        ACCESS:          0 HIT:          0 MISS:          0
cpu0_ITLB TRANSLATION  ACCESS:          0 HIT:          0 MISS:          0
cpu0_ITLB PREFETCH REQUESTED:          0 ISSUED:          0 USEFUL:          0 USELESS:          0
cpu0_ITLB AVERAGE MISS LATENCY: 7.082 cycles
cpu0_L1D TOTAL        ACCESS:   53016252 HIT:   52667442 MISS:     348810
cpu0_L1D LOAD         ACCESS:    6079272 HIT:    5972710 MISS:     106562
cpu0_L1D RFO          ACCESS:          0 HIT:          0 MISS:          0
cpu0_L1D PREFETCH     ACCESS:   41747898 HIT:   41650133 MISS:      97765
cpu0_L1D WRITE        ACCESS:    5186608 HIT:    5043422 MISS:     143186
cpu0_L1D TRANSLATION  ACCESS:       2474 HIT:       1177 MISS:       1297
cpu0_L1D PREFETCH REQUESTED:   43594360 ISSUED:   41747898 USEFUL:       7769 USELESS:       2000
cpu0_L1D AVERAGE MISS LATENCY: 10.63 cycles
cpu0_L1I TOTAL        ACCESS:     942594 HIT:     818735 MISS:     123859
cpu0_L1I LOAD         ACCESS:     306282 HIT:     283066 MISS:      23216
cpu0_L1I RFO          ACCESS:          0 HIT:          0 MISS:          0
cpu0_L1I PREFETCH     ACCESS:     636312 HIT:     535669 MISS:     100643
cpu0_L1I WRITE        ACCESS:          0 HIT:          0 MISS:          0
cpu0_L1I TRANSLATION  ACCESS:          0 HIT:          0 MISS:          0
cpu0_L1I PREFETCH REQUESTED:     922091 ISSUED:     636312 USEFUL:      63357 USELESS:      34209
cpu0_L1I AVERAGE MISS LATENCY: 15.72 cycles
cpu0_L2C TOTAL        ACCESS:     709497 HIT:     534220 MISS:     175277
cpu0_L2C LOAD         ACCESS:      86444 HIT:      57795 MISS:      28649
cpu0_L2C RFO          ACCESS:      74071 HIT:      11738 MISS:      62333
cpu0_L2C PREFETCH     ACCESS:     454350 HIT:     370946 MISS:      83404
cpu0_L2C WRITE        ACCESS:      93432 HIT:      93432 MISS:          0
cpu0_L2C TRANSLATION  ACCESS:       1200 HIT:        309 MISS:        891
cpu0_L2C PREFETCH REQUESTED:     276813 ISSUED:     263981 USEFUL:      12801 USELESS:      18857
cpu0_L2C AVERAGE MISS LATENCY: 19.28 cycles
cpu0_STLB TOTAL        ACCESS:      21003 HIT:      18639 MISS:       2364
cpu0_STLB LOAD         ACCESS:      21003 HIT:      18639 MISS:       2364
cpu0_STLB RFO          ACCESS:          0 HIT:          0 MISS:          0
cpu0_STLB PREFETCH     ACCESS:          0 HIT:          0 MISS:          0
cpu0_STLB WRITE        ACCESS:          0 HIT:          0 MISS:          0
cpu0_STLB TRANSLATION  ACCESS:          0 HIT:          0 MISS:          0
cpu0_STLB PREFETCH REQUESTED:          0 ISSUED:          0 USEFUL:          0 USELESS:          0
cpu0_STLB AVERAGE MISS LATENCY: 34.19 cycles

DRAM Statistics

Channel 0 RQ ROW_BUFFER_HIT:        181
  ROW_BUFFER_MISS:        909
 AVG DBUS CONGESTED CYCLE: 3.648
WQ ROW_BUFFER_HIT: Channel 0 
  ROW_BUFFER_MISS:          1
  FULL:        132

Channel 1 RQ ROW_BUFFER_HIT:        130
  ROW_BUFFER_MISS:        702
 AVG DBUS CONGESTED CYCLE: 3.683
WQ ROW_BUFFER_HIT: Channel 1 
  ROW_BUFFER_MISS:          1
  FULL:         23
BERTI TO_L1: 46718184 TO_L2: 9711492 TO_L2_BC_MSHR: 189261
BERTI AVG_LAT: 19.0001 NUM_TRACK_LATENCY: 111569 NUM_CANT_TRACK_LATENCY: 0
BERTI CROSS_PAGE 7334565 NO_CROSS_PAGE: 49095111
BERTI FOUND_BERTI: 4360204 NO_FOUND_BERTI: 3724589
BERTI AVERAGE_ISSUED: 13.6966
CPU 0 L1I Entangling prefetcher final stats
IP accesses: 6f71 1bdc40 2958 / 306970
IP misses: f7cb 3df2c0 233 / 23904
IP hits: 0 0 0 / 0
IP late: 6e9e 1ba780 88 / 11093
IP wrong: 251e 94780 139 / 34076
miss rate: 0.0778709
coverage: 0
coverage_late: 0.464065
accuracy: 0
accuracy_late: 0.245589
discarded: 0
evicts entangled j table: 0
evicts entangled k table: 4017
max bb size: 53
formats: 1143 0 3182 1481 582 1077 0 
hist_lookups: 2745 2960 2304 2013 1777 1576 1207 912 717 643 456 320 192 135 56 0 3 5181 
hist_lookups_evict: 0.0129328 %
hist_lookups_shortlat: 22.3348 %
bb_found_hist: 0 76569 27523 16079 7229 3171 1447 1123 344 144 0 48 25 0 25 0 7 0 0 0 0 13 0 0 0 0 0 0 0 0 0 7 0 0 7 0 0 0 0 0 0 0 0 0 0 0 0 0 0 0 0 0 0 7 0 0 0 0 0 0 0 0 0 0 
bb_found_summary: 247603 133768 1.85099
entangled_found_hist: 0 37079 31969 53440 9417 2601 951 0 
entangled_found_summary: 317716 135457 2.34552
bb_ent_found_hist: 0 109758 37510 31125 12645 7559 1921 1223 1067 63 0 75 80 0 7 0 390 0 0 0 0 32 0 0 0 0 0 0 0 0 0 13 0 0 7 0 0 0 0 0 0 0 0 0 0 0 0 0 0 0 0 0 0 13 0 0 0 0 0 0 0 0 0 0 
bb_ent_found_summary: 405843 203488 1.99444
