WARNING: physical memory size is smaller than virtual memory size.

*** ChampSim Multicore Out-of-Order Simulator ***
Warmup Instructions: 30000000
Simulation Instructions: 100000000
Number of CPUs: 1
Page size: 4096

BTB:
Basic BTB sets: 1024 ways: 8
Indirect:
history lengths: 0 0 10 16 27 44 60 96 109 219 449 487 714 1313 2146 3881 
ITTAGE tables: 64768 bytes;Region table: 240 bytes;IUM: 384 bytes;Total Storage= 65392 bytes;
RAS:
RAS size: 64
Berti Prefetcher
CPU 0 Entangling prefetcher
Off-chip DRAM Size: 8 GiB Channels: 2 Width: 64-bit Data Race: 6400 MT/s
Heartbeat CPU 0 instructions: 10000011 cycles: 1715432 heartbeat IPC: 5.829 cumulative IPC: 5.829 (Simulation time: 00 hr 00 min 34 sec)
Heartbeat CPU 0 instructions: 20000007 cycles: 3431644 heartbeat IPC: 5.827 cumulative IPC: 5.828 (Simulation time: 00 hr 01 min 08 sec)
Heartbeat CPU 0 instructions: 30000008 cycles: 5098378 heartbeat IPC: 6 cumulative IPC: 5.884 (Simulation time: 00 hr 01 min 40 sec)
Warmup finished CPU 0 instructions: 30000008 cycles: 5098379 cumulative IPC: 5.884 (Simulation time: 00 hr 01 min 40 sec)
Warmup complete CPU 0 instructions: 30000008 cycles: 5098379 cumulative IPC: 5.884 (Simulation time: 00 hr 01 min 40 sec)
Heartbeat CPU 0 instructions: 40000000 cycles: 6766444 heartbeat IPC: 5.995 cumulative IPC: 5.995 (Simulation time: 00 hr 02 min 18 sec)
Heartbeat CPU 0 instructions: 50000005 cycles: 8433107 heartbeat IPC: 6 cumulative IPC: 5.997 (Simulation time: 00 hr 02 min 56 sec)
Heartbeat CPU 0 instructions: 60000003 cycles: 10101426 heartbeat IPC: 5.994 cumulative IPC: 5.996 (Simulation time: 00 hr 03 min 35 sec)
*** Reached end of trace: (0, "../traces/secret_traces/crypto/crypto37.champsimtrace.xz")
Heartbeat CPU 0 instructions: 70000004 cycles: 12683611 heartbeat IPC: 3.873 cumulative IPC: 5.273 (Simulation time: 00 hr 04 min 20 sec)
Heartbeat CPU 0 instructions: 80000000 cycles: 14427715 heartbeat IPC: 5.734 cumulative IPC: 5.359 (Simulation time: 00 hr 05 min 00 sec)
Heartbeat CPU 0 instructions: 90000001 cycles: 17002555 heartbeat IPC: 3.884 cumulative IPC: 5.04 (Simulation time: 00 hr 05 min 47 sec)
Heartbeat CPU 0 instructions: 100000000 cycles: 18685508 heartbeat IPC: 5.942 cumulative IPC: 5.152 (Simulation time: 00 hr 06 min 30 sec)
Heartbeat CPU 0 instructions: 110000000 cycles: 20353149 heartbeat IPC: 5.996 cumulative IPC: 5.244 (Simulation time: 00 hr 07 min 10 sec)
Heartbeat CPU 0 instructions: 120000001 cycles: 22021211 heartbeat IPC: 5.995 cumulative IPC: 5.318 (Simulation time: 00 hr 07 min 48 sec)
*** Reached end of trace: (0, "../traces/secret_traces/crypto/crypto37.champsimtrace.xz")
Heartbeat CPU 0 instructions: 130000006 cycles: 24181321 heartbeat IPC: 4.629 cumulative IPC: 5.24 (Simulation time: 00 hr 08 min 31 sec)
Simulation finished CPU 0 instructions: 100000005 cycles: 19082944 cumulative IPC: 5.24 (Simulation time: 00 hr 08 min 31 sec)
Simulation complete CPU 0 instructions: 100000005 cycles: 19082944 cumulative IPC: 5.24 (Simulation time: 00 hr 08 min 31 sec)

ChampSim completed all CPUs

=== Simulation ===
CPU 0 runs ../traces/secret_traces/crypto/crypto37.champsimtrace.xz
Region of Interest Statistics

CPU 0 cumulative IPC: 5.24 instructions: 100000005 cycles: 19082944
CPU 0 Branch Prediction Accuracy: 99.71% MPKI: 0.4045 Average ROB Occupancy at Mispredict: 31.54
Branch type MPKI
BRANCH_DIRECT_JUMP: 0.0209
BRANCH_INDIRECT: 0.193
BRANCH_CONDITIONAL: 0.0902
BRANCH_DIRECT_CALL: 0.0598
BRANCH_INDIRECT_CALL: 0.00745
BRANCH_RETURN: 0.0328

LLC TOTAL        ACCESS:     142656 HIT:      75570 MISS:      67086
LLC LOAD         ACCESS:      16917 HIT:       4033 MISS:      12884
LLC RFO          ACCESS:      40274 HIT:       9687 MISS:      30587
LLC PREFETCH     ACCESS:      34889 HIT:      12242 MISS:      22647
LLC WRITE        ACCESS:      49662 HIT:      49463 MISS:        199
LLC TRANSLATION  ACCESS:        914 HIT:        145 MISS:        769
LLC PREFETCH REQUESTED:          0 ISSUED:          0 USEFUL:          0 USELESS:          0
LLC AVERAGE MISS LATENCY: 272.3 cycles
cpu0_DTLB TOTAL        ACCESS:   13333676 HIT:   13319884 MISS:      13792
cpu0_DTLB LOAD         ACCESS:   13333676 HIT:   13319884 MISS:      13792
cpu0_DTLB RFO          ACCESS:          0 HIT:          0 MISS:          0
cpu0_DTLB PREFETCH     ACCESS:          0 HIT:          0 MISS:          0
cpu0_DTLB WRITE        ACCESS:          0 HIT:          0 MISS:          0
cpu0_DTLB TRANSLATION  ACCESS:          0 HIT:          0 MISS:          0
cpu0_DTLB PREFETCH REQUESTED:          0 ISSUED:          0 USEFUL:          0 USELESS:          0
cpu0_DTLB AVERAGE MISS LATENCY: 14.95 cycles
cpu0_ITLB TOTAL        ACCESS:     270038 HIT:     264149 MISS:       5889
cpu0_ITLB LOAD         ACCESS:     270038 HIT:     264149 MISS:       5889
cpu0_ITLB RFO          ACCESS:          0 HIT:          0 MISS:          0
cpu0_ITLB PREFETCH     ACCESS:          0 HIT:          0 MISS:          0
cpu0_ITLB WRITE        ACCESS:          0 HIT:          0 MISS:          0
cpu0_ITLB TRANSLATION  ACCESS:          0 HIT:          0 MISS:          0
cpu0_ITLB PREFETCH REQUESTED:          0 ISSUED:          0 USEFUL:          0 USELESS:          0
cpu0_ITLB AVERAGE MISS LATENCY: 22.4 cycles
cpu0_L1D TOTAL        ACCESS:   21657423 HIT:   21473601 MISS:     183822
cpu0_L1D LOAD         ACCESS:   13929987 HIT:   13879866 MISS:      50121
cpu0_L1D RFO          ACCESS:          0 HIT:          0 MISS:          0
cpu0_L1D PREFETCH     ACCESS:     181583 HIT:     155487 MISS:      26096
cpu0_L1D WRITE        ACCESS:    7544081 HIT:    7437646 MISS:     106435
cpu0_L1D TRANSLATION  ACCESS:       1772 HIT:        602 MISS:       1170
cpu0_L1D PREFETCH REQUESTED:    2521260 ISSUED:     181602 USEFUL:       3501 USELESS:        379
cpu0_L1D AVERAGE MISS LATENCY: 86.58 cycles
cpu0_L1I TOTAL        ACCESS:     391749 HIT:     323280 MISS:      68469
cpu0_L1I LOAD         ACCESS:     130500 HIT:     112439 MISS:      18061
cpu0_L1I RFO          ACCESS:          0 HIT:          0 MISS:          0
cpu0_L1I PREFETCH     ACCESS:     261249 HIT:     210841 MISS:      50408
cpu0_L1I WRITE        ACCESS:          0 HIT:          0 MISS:          0
cpu0_L1I TRANSLATION  ACCESS:          0 HIT:          0 MISS:          0
cpu0_L1I PREFETCH REQUESTED:     400463 ISSUED:     261249 USEFUL:      26652 USELESS:      20976
cpu0_L1I AVERAGE MISS LATENCY: 35.21 cycles
cpu0_L2C TOTAL        ACCESS:     329107 HIT:     206468 MISS:     122639
cpu0_L2C LOAD         ACCESS:      46323 HIT:      24725 MISS:      21598
cpu0_L2C RFO          ACCESS:      43997 HIT:       3696 MISS:      40301
cpu0_L2C PREFETCH     ACCESS:     185913 HIT:     126087 MISS:      59826
cpu0_L2C WRITE        ACCESS:      51736 HIT:      51736 MISS:          0
cpu0_L2C TRANSLATION  ACCESS:       1138 HIT:        224 MISS:        914
cpu0_L2C PREFETCH REQUESTED:     117480 ISSUED:     114756 USEFUL:      11340 USELESS:       7687
cpu0_L2C AVERAGE MISS LATENCY: 161.3 cycles
cpu0_STLB TOTAL        ACCESS:       9065 HIT:       7426 MISS:       1639
cpu0_STLB LOAD         ACCESS:       9065 HIT:       7426 MISS:       1639
cpu0_STLB RFO          ACCESS:          0 HIT:          0 MISS:          0
cpu0_STLB PREFETCH     ACCESS:          0 HIT:          0 MISS:          0
cpu0_STLB WRITE        ACCESS:          0 HIT:          0 MISS:          0
cpu0_STLB TRANSLATION  ACCESS:          0 HIT:          0 MISS:          0
cpu0_STLB PREFETCH REQUESTED:          0 ISSUED:          0 USEFUL:          0 USELESS:          0
cpu0_STLB AVERAGE MISS LATENCY: 183.7 cycles

DRAM Statistics

Channel 0 RQ ROW_BUFFER_HIT:      14000
  ROW_BUFFER_MISS:      19647
 AVG DBUS CONGESTED CYCLE: 3.945
WQ ROW_BUFFER_HIT: Channel 0 
  ROW_BUFFER_MISS:       2129
  FULL:      16472

Channel 1 RQ ROW_BUFFER_HIT:      13946
  ROW_BUFFER_MISS:      19285
 AVG DBUS CONGESTED CYCLE: 3.938
WQ ROW_BUFFER_HIT: Channel 1 
  ROW_BUFFER_MISS:       2212
  FULL:      15788
BERTI TO_L1: 603699 TO_L2: 2432419 TO_L2_BC_MSHR: 1407960
BERTI AVG_LAT: 96.9978 NUM_TRACK_LATENCY: 69257 NUM_CANT_TRACK_LATENCY: 0
BERTI CROSS_PAGE 608067 NO_CROSS_PAGE: 2428051
BERTI FOUND_BERTI: 515593 NO_FOUND_BERTI: 18079035
BERTI AVERAGE_ISSUED: 4.58576
CPU 0 L1I Entangling prefetcher final stats
IP accesses: 6f71 1bdc40 873 / 131027
IP misses: 25bf 96fc0 66 / 18588
IP hits: 0 0 0 / 0
IP late: 6e9e 1ba780 41 / 8743
IP wrong: 251e 94780 59 / 20906
miss rate: 0.141864
coverage: 0
coverage_late: 0.470358
accuracy: 0
accuracy_late: 0.294884
discarded: 0
evicts entangled j table: 0
evicts entangled k table: 2956
max bb size: 53
formats: 722 0 2575 1292 613 1342 0 
hist_lookups: 2594 2600 1811 1697 1425 1183 929 686 500 452 311 210 113 88 50 0 3 3521 
hist_lookups_evict: 0.0165081 %
hist_lookups_shortlat: 19.3749 %
bb_found_hist: 0 32382 12870 6927 3090 1571 636 469 173 38 0 51 35 20 11 13 1 0 0 0 1 3 0 0 0 0 0 0 0 0 0 1 1 0 1 0 0 0 0 0 0 0 0 0 0 0 0 0 0 0 0 0 0 0 0 0 0 0 0 0 0 0 0 0 
bb_found_summary: 109729 58294 1.88234
entangled_found_hist: 0 16047 13547 23247 3905 838 196 0 
entangled_found_summary: 133868 57780 2.31686
bb_ent_found_hist: 0 45679 19489 12677 5676 3558 1202 532 511 11 0 109 51 22 16 68 124 0 0 0 1 27 0 0 0 0 0 0 0 0 0 1 1 0 1 0 0 0 0 0 0 0 0 0 0 0 0 0 0 0 0 0 0 0 0 0 0 0 0 0 0 0 0 0 
bb_ent_found_summary: 184314 89756 2.05351
