WARNING: physical memory size is smaller than virtual memory size.

*** ChampSim Multicore Out-of-Order Simulator ***
Warmup Instructions: 30000000
Simulation Instructions: 100000000
Number of CPUs: 1
Page size: 4096

BTB:
Basic BTB sets: 1024 ways: 8
Indirect:
history lengths: 0 0 10 16 27 44 60 96 109 219 449 487 714 1313 2146 3881 
ITTAGE tables: 64768 bytes;Region table: 240 bytes;IUM: 384 bytes;Total Storage= 65392 bytes;
RAS:
RAS size: 64
Berti Prefetcher
CPU 0 Entangling prefetcher
Off-chip DRAM Size: 8 GiB Channels: 2 Width: 64-bit Data Race: 6400 MT/s
Heartbeat CPU 0 instructions: 10000004 cycles: 1715403 heartbeat IPC: 5.83 cumulative IPC: 5.83 (Simulation time: 00 hr 00 min 23 sec)
*** Reached end of trace: (0, "../traces/secret_traces/crypto/crypto0.champsimtrace.xz")
Heartbeat CPU 0 instructions: 20000001 cycles: 3432943 heartbeat IPC: 5.822 cumulative IPC: 5.826 (Simulation time: 00 hr 00 min 47 sec)
*** Reached end of trace: (0, "../traces/secret_traces/crypto/crypto0.champsimtrace.xz")
Heartbeat CPU 0 instructions: 30000005 cycles: 5125265 heartbeat IPC: 5.909 cumulative IPC: 5.853 (Simulation time: 00 hr 01 min 10 sec)
Warmup finished CPU 0 instructions: 30000005 cycles: 5125266 cumulative IPC: 5.853 (Simulation time: 00 hr 01 min 10 sec)
Warmup complete CPU 0 instructions: 30000005 cycles: 5125266 cumulative IPC: 5.853 (Simulation time: 00 hr 01 min 10 sec)
Heartbeat CPU 0 instructions: 40000000 cycles: 10773325 heartbeat IPC: 1.771 cumulative IPC: 1.771 (Simulation time: 00 hr 02 min 07 sec)
*** Reached end of trace: (0, "../traces/secret_traces/crypto/crypto0.champsimtrace.xz")
Heartbeat CPU 0 instructions: 50000011 cycles: 16140569 heartbeat IPC: 1.863 cumulative IPC: 1.816 (Simulation time: 00 hr 03 min 02 sec)
*** Reached end of trace: (0, "../traces/secret_traces/crypto/crypto0.champsimtrace.xz")
Heartbeat CPU 0 instructions: 60000001 cycles: 22264228 heartbeat IPC: 1.633 cumulative IPC: 1.75 (Simulation time: 00 hr 04 min 17 sec)
Heartbeat CPU 0 instructions: 70000000 cycles: 28213677 heartbeat IPC: 1.681 cumulative IPC: 1.732 (Simulation time: 00 hr 05 min 40 sec)
*** Reached end of trace: (0, "../traces/secret_traces/crypto/crypto0.champsimtrace.xz")
Heartbeat CPU 0 instructions: 80000005 cycles: 33559495 heartbeat IPC: 1.871 cumulative IPC: 1.758 (Simulation time: 00 hr 07 min 02 sec)
*** Reached end of trace: (0, "../traces/secret_traces/crypto/crypto0.champsimtrace.xz")
Heartbeat CPU 0 instructions: 90000006 cycles: 39357268 heartbeat IPC: 1.725 cumulative IPC: 1.753 (Simulation time: 00 hr 08 min 28 sec)
Heartbeat CPU 0 instructions: 100000000 cycles: 45622331 heartbeat IPC: 1.596 cumulative IPC: 1.729 (Simulation time: 00 hr 10 min 05 sec)
*** Reached end of trace: (0, "../traces/secret_traces/crypto/crypto0.champsimtrace.xz")
Heartbeat CPU 0 instructions: 110000000 cycles: 50963496 heartbeat IPC: 1.872 cumulative IPC: 1.745 (Simulation time: 00 hr 11 min 44 sec)
*** Reached end of trace: (0, "../traces/secret_traces/crypto/crypto0.champsimtrace.xz")
Heartbeat CPU 0 instructions: 120000004 cycles: 56461046 heartbeat IPC: 1.819 cumulative IPC: 1.753 (Simulation time: 00 hr 13 min 18 sec)
Heartbeat CPU 0 instructions: 130000000 cycles: 63023004 heartbeat IPC: 1.524 cumulative IPC: 1.727 (Simulation time: 00 hr 15 min 05 sec)
Simulation finished CPU 0 instructions: 100000001 cycles: 57897743 cumulative IPC: 1.727 (Simulation time: 00 hr 15 min 05 sec)
Simulation complete CPU 0 instructions: 100000001 cycles: 57897743 cumulative IPC: 1.727 (Simulation time: 00 hr 15 min 05 sec)

ChampSim completed all CPUs

=== Simulation ===
CPU 0 runs ../traces/secret_traces/crypto/crypto0.champsimtrace.xz
Region of Interest Statistics

CPU 0 cumulative IPC: 1.727 instructions: 100000001 cycles: 57897743
CPU 0 Branch Prediction Accuracy: 98.67% MPKI: 0.9175 Average ROB Occupancy at Mispredict: 30.95
Branch type MPKI
BRANCH_DIRECT_JUMP: 0.0481
BRANCH_INDIRECT: 0.527
BRANCH_CONDITIONAL: 0.0858
BRANCH_DIRECT_CALL: 0.152
BRANCH_INDIRECT_CALL: 0.0223
BRANCH_RETURN: 0.082

LLC TOTAL        ACCESS:     222181 HIT:     219400 MISS:       2781
LLC LOAD         ACCESS:      28059 HIT:      27845 MISS:        214
LLC RFO          ACCESS:      61185 HIT:      60854 MISS:        331
LLC PREFETCH     ACCESS:      62638 HIT:      60556 MISS:       2082
LLC WRITE        ACCESS:      69340 HIT:      69339 MISS:          1
LLC TRANSLATION  ACCESS:        959 HIT:        806 MISS:        153
LLC PREFETCH REQUESTED:          0 ISSUED:          0 USEFUL:          0 USELESS:          0
LLC AVERAGE MISS LATENCY: 154.6 cycles
cpu0_DTLB TOTAL        ACCESS:   23736601 HIT:   23712200 MISS:      24401
cpu0_DTLB LOAD         ACCESS:   23736601 HIT:   23712200 MISS:      24401
cpu0_DTLB RFO          ACCESS:          0 HIT:          0 MISS:          0
cpu0_DTLB PREFETCH     ACCESS:          0 HIT:          0 MISS:          0
cpu0_DTLB WRITE        ACCESS:          0 HIT:          0 MISS:          0
cpu0_DTLB TRANSLATION  ACCESS:          0 HIT:          0 MISS:          0
cpu0_DTLB PREFETCH REQUESTED:          0 ISSUED:          0 USEFUL:          0 USELESS:          0
cpu0_DTLB AVERAGE MISS LATENCY: 5.41 cycles
cpu0_ITLB TOTAL        ACCESS:     645933 HIT:     633615 MISS:      12318
cpu0_ITLB LOAD         ACCESS:     645933 HIT:     633615 MISS:      12318
cpu0_ITLB RFO          ACCESS:          0 HIT:          0 MISS:          0
cpu0_ITLB PREFETCH     ACCESS:          0 HIT:          0 MISS:          0
cpu0_ITLB WRITE        ACCESS:          0 HIT:          0 MISS:          0
cpu0_ITLB TRANSLATION  ACCESS:          0 HIT:          0 MISS:          0
cpu0_ITLB PREFETCH REQUESTED:          0 ISSUED:          0 USEFUL:          0 USELESS:          0
cpu0_ITLB AVERAGE MISS LATENCY: 7.431 cycles
cpu0_L1D TOTAL        ACCESS:   53399229 HIT:   53042650 MISS:     356579
cpu0_L1D LOAD         ACCESS:    5995374 HIT:    5887416 MISS:     107958
cpu0_L1D RFO          ACCESS:          0 HIT:          0 MISS:          0
cpu0_L1D PREFETCH     ACCESS:   42250328 HIT:   42146002 MISS:     104326
cpu0_L1D WRITE        ACCESS:    5150952 HIT:    5008063 MISS:     142889
cpu0_L1D TRANSLATION  ACCESS:       2575 HIT:       1169 MISS:       1406
cpu0_L1D PREFETCH REQUESTED:   43915365 ISSUED:   42250343 USEFUL:       9588 USELESS:       1944
cpu0_L1D AVERAGE MISS LATENCY: 10.54 cycles
cpu0_L1I TOTAL        ACCESS:     938605 HIT:     814326 MISS:     124279
cpu0_L1I LOAD         ACCESS:     305072 HIT:     281808 MISS:      23264
cpu0_L1I RFO          ACCESS:          0 HIT:          0 MISS:          0
cpu0_L1I PREFETCH     ACCESS:     633533 HIT:     532518 MISS:     101015
cpu0_L1I WRITE        ACCESS:          0 HIT:          0 MISS:          0
cpu0_L1I TRANSLATION  ACCESS:          0 HIT:          0 MISS:          0
cpu0_L1I PREFETCH REQUESTED:     936743 ISSUED:     633533 USEFUL:      63453 USELESS:      34442
cpu0_L1I AVERAGE MISS LATENCY: 15.98 cycles
cpu0_L2C TOTAL        ACCESS:     716259 HIT:     540381 MISS:     175878
cpu0_L2C LOAD         ACCESS:      86428 HIT:      57980 MISS:      28448
cpu0_L2C RFO          ACCESS:      73869 HIT:      12668 MISS:      61201
cpu0_L2C PREFETCH     ACCESS:     459749 HIT:     374479 MISS:      85270
cpu0_L2C WRITE        ACCESS:      94915 HIT:      94915 MISS:          0
cpu0_L2C TRANSLATION  ACCESS:       1298 HIT:        339 MISS:        959
cpu0_L2C PREFETCH REQUESTED:     280991 ISSUED:     265186 USEFUL:      13536 USELESS:      18849
cpu0_L2C AVERAGE MISS LATENCY: 20.01 cycles
cpu0_STLB TOTAL        ACCESS:      21035 HIT:      18609 MISS:       2426
cpu0_STLB LOAD         ACCESS:      21035 HIT:      18609 MISS:       2426
cpu0_STLB RFO          ACCESS:          0 HIT:          0 MISS:          0
cpu0_STLB PREFETCH     ACCESS:          0 HIT:          0 MISS:          0
cpu0_STLB WRITE        ACCESS:          0 HIT:          0 MISS:          0
cpu0_STLB TRANSLATION  ACCESS:          0 HIT:          0 MISS:          0
cpu0_STLB PREFETCH REQUESTED:          0 ISSUED:          0 USEFUL:          0 USELESS:          0
cpu0_STLB AVERAGE MISS LATENCY: 38.07 cycles

DRAM Statistics

Channel 0 RQ ROW_BUFFER_HIT:        147
  ROW_BUFFER_MISS:       1364
 AVG DBUS CONGESTED CYCLE: 3.415
WQ ROW_BUFFER_HIT: Channel 0 
  ROW_BUFFER_MISS:         11
  FULL:        233

Channel 1 RQ ROW_BUFFER_HIT:        165
  ROW_BUFFER_MISS:       1104
 AVG DBUS CONGESTED CYCLE: 3.502
WQ ROW_BUFFER_HIT: Channel 1 
  ROW_BUFFER_MISS:          4
  FULL:        161
BERTI TO_L1: 53994664 TO_L2: 2755155 TO_L2_BC_MSHR: 177381
BERTI AVG_LAT: 19.9085 NUM_TRACK_LATENCY: 113864 NUM_CANT_TRACK_LATENCY: 0
BERTI CROSS_PAGE 7444130 NO_CROSS_PAGE: 49305689
BERTI FOUND_BERTI: 4395376 NO_FOUND_BERTI: 3614955
BERTI AVERAGE_ISSUED: 13.7287
CPU 0 L1I Entangling prefetcher final stats
IP accesses: 6f71 1bdc40 2772 / 305655
IP misses: f7cb 3df2c0 247 / 23847
IP hits: 0 0 0 / 0
IP late: 59b5 166d40 48 / 11288
IP wrong: 251e 94780 236 / 34237
miss rate: 0.0780194
coverage: 0
coverage_late: 0.473351
accuracy: 0
accuracy_late: 0.247952
discarded: 0
evicts entangled j table: 0
evicts entangled k table: 3969
max bb size: 53
formats: 1089 0 3045 1528 582 1130 0 
hist_lookups: 2672 3065 2197 1905 1850 1738 1251 934 802 630 414 236 188 102 31 0 15 5293 
hist_lookups_evict: 0.0643142 %
hist_lookups_shortlat: 22.6944 %
bb_found_hist: 0 76315 27490 16023 7328 3224 1443 1094 343 144 0 48 25 0 25 0 7 14 0 0 0 13 0 0 0 0 0 0 0 0 0 7 0 0 7 0 0 0 0 0 0 0 0 0 0 0 0 0 0 0 0 0 0 7 0 0 0 0 0 0 0 0 0 0 
bb_found_summary: 247779 133557 1.85524
entangled_found_hist: 0 41182 30333 50546 10565 2663 1484 0 
entangled_found_summary: 317965 136773 2.32477
bb_ent_found_hist: 0 105405 40643 31858 13280 8922 1575 1208 1435 58 0 69 80 0 7 0 406 7 0 0 0 26 0 0 0 0 0 0 0 0 0 7 0 0 7 0 0 0 0 0 0 0 0 0 0 0 0 0 0 0 0 0 0 13 0 0 0 0 0 0 0 0 0 0 
bb_ent_found_summary: 420025 205006 2.04885
