WARNING: physical memory size is smaller than virtual memory size.

*** ChampSim Multicore Out-of-Order Simulator ***
Warmup Instructions: 30000000
Simulation Instructions: 100000000
Number of CPUs: 1
Page size: 4096

BTB:
Basic BTB sets: 1024 ways: 8
Indirect:
history lengths: 0 0 10 16 27 44 60 96 109 219 449 487 714 1313 2146 3881 
ITTAGE tables: 64768 bytes;Region table: 240 bytes;IUM: 384 bytes;Total Storage= 65392 bytes;
RAS:
RAS size: 64
Berti Prefetcher
CPU 0 Entangling prefetcher
Off-chip DRAM Size: 8 GiB Channels: 2 Width: 64-bit Data Race: 6400 MT/s
Heartbeat CPU 0 instructions: 10000001 cycles: 1726750 heartbeat IPC: 5.791 cumulative IPC: 5.791 (Simulation time: 00 hr 00 min 34 sec)
Heartbeat CPU 0 instructions: 20000004 cycles: 3458545 heartbeat IPC: 5.774 cumulative IPC: 5.783 (Simulation time: 00 hr 01 min 09 sec)
Heartbeat CPU 0 instructions: 30000000 cycles: 5142206 heartbeat IPC: 5.939 cumulative IPC: 5.834 (Simulation time: 00 hr 01 min 42 sec)
Warmup finished CPU 0 instructions: 30000000 cycles: 5142207 cumulative IPC: 5.834 (Simulation time: 00 hr 01 min 42 sec)
Warmup complete CPU 0 instructions: 30000000 cycles: 5142207 cumulative IPC: 5.834 (Simulation time: 00 hr 01 min 42 sec)
Heartbeat CPU 0 instructions: 40000008 cycles: 6837408 heartbeat IPC: 5.899 cumulative IPC: 5.899 (Simulation time: 00 hr 02 min 22 sec)
Heartbeat CPU 0 instructions: 50000011 cycles: 8531616 heartbeat IPC: 5.902 cumulative IPC: 5.901 (Simulation time: 00 hr 03 min 01 sec)
*** Reached end of trace: (0, "../traces/secret_traces/crypto/crypto36.champsimtrace.xz")
Heartbeat CPU 0 instructions: 60000002 cycles: 11190116 heartbeat IPC: 3.762 cumulative IPC: 4.96 (Simulation time: 00 hr 03 min 47 sec)
Heartbeat CPU 0 instructions: 70000008 cycles: 13804031 heartbeat IPC: 3.826 cumulative IPC: 4.618 (Simulation time: 00 hr 04 min 35 sec)
Heartbeat CPU 0 instructions: 80000000 cycles: 15515242 heartbeat IPC: 5.844 cumulative IPC: 4.82 (Simulation time: 00 hr 05 min 17 sec)
Heartbeat CPU 0 instructions: 90000008 cycles: 17209441 heartbeat IPC: 5.902 cumulative IPC: 4.972 (Simulation time: 00 hr 06 min 02 sec)
Heartbeat CPU 0 instructions: 100000006 cycles: 18904540 heartbeat IPC: 5.899 cumulative IPC: 5.086 (Simulation time: 00 hr 06 min 42 sec)
*** Reached end of trace: (0, "../traces/secret_traces/crypto/crypto36.champsimtrace.xz")
Heartbeat CPU 0 instructions: 110000001 cycles: 21445192 heartbeat IPC: 3.936 cumulative IPC: 4.907 (Simulation time: 00 hr 07 min 33 sec)
Heartbeat CPU 0 instructions: 120000003 cycles: 23854256 heartbeat IPC: 4.151 cumulative IPC: 4.81 (Simulation time: 00 hr 08 min 20 sec)
Heartbeat CPU 0 instructions: 130000005 cycles: 25717291 heartbeat IPC: 5.368 cumulative IPC: 4.86 (Simulation time: 00 hr 09 min 01 sec)
Simulation finished CPU 0 instructions: 100000005 cycles: 20575085 cumulative IPC: 4.86 (Simulation time: 00 hr 09 min 01 sec)
Simulation complete CPU 0 instructions: 100000005 cycles: 20575085 cumulative IPC: 4.86 (Simulation time: 00 hr 09 min 01 sec)

ChampSim completed all CPUs

=== Simulation ===
CPU 0 runs ../traces/secret_traces/crypto/crypto36.champsimtrace.xz
Region of Interest Statistics

CPU 0 cumulative IPC: 4.86 instructions: 100000005 cycles: 20575085
CPU 0 Branch Prediction Accuracy: 99.66% MPKI: 0.5604 Average ROB Occupancy at Mispredict: 32.94
Branch type MPKI
BRANCH_DIRECT_JUMP: 0.0294
BRANCH_INDIRECT: 0.276
BRANCH_CONDITIONAL: 0.111
BRANCH_DIRECT_CALL: 0.0865
BRANCH_INDIRECT_CALL: 0.0109
BRANCH_RETURN: 0.047

LLC TOTAL        ACCESS:     229640 HIT:     121408 MISS:     108232
LLC LOAD         ACCESS:      27163 HIT:       6732 MISS:      20431
LLC RFO          ACCESS:      68598 HIT:      18368 MISS:      50230
LLC PREFETCH     ACCESS:      54807 HIT:      18772 MISS:      36035
LLC WRITE        ACCESS:      77711 HIT:      77312 MISS:        399
LLC TRANSLATION  ACCESS:       1361 HIT:        224 MISS:       1137
LLC PREFETCH REQUESTED:          0 ISSUED:          0 USEFUL:          0 USELESS:          0
LLC AVERAGE MISS LATENCY: 280.7 cycles
cpu0_DTLB TOTAL        ACCESS:   13693897 HIT:   13671091 MISS:      22806
cpu0_DTLB LOAD         ACCESS:   13693897 HIT:   13671091 MISS:      22806
cpu0_DTLB RFO          ACCESS:          0 HIT:          0 MISS:          0
cpu0_DTLB PREFETCH     ACCESS:          0 HIT:          0 MISS:          0
cpu0_DTLB WRITE        ACCESS:          0 HIT:          0 MISS:          0
cpu0_DTLB TRANSLATION  ACCESS:          0 HIT:          0 MISS:          0
cpu0_DTLB PREFETCH REQUESTED:          0 ISSUED:          0 USEFUL:          0 USELESS:          0
cpu0_DTLB AVERAGE MISS LATENCY: 14.76 cycles
cpu0_ITLB TOTAL        ACCESS:    8135727 HIT:    8127589 MISS:       8138
cpu0_ITLB LOAD         ACCESS:    8135727 HIT:    8127589 MISS:       8138
cpu0_ITLB RFO          ACCESS:          0 HIT:          0 MISS:          0
cpu0_ITLB PREFETCH     ACCESS:          0 HIT:          0 MISS:          0
cpu0_ITLB WRITE        ACCESS:          0 HIT:          0 MISS:          0
cpu0_ITLB TRANSLATION  ACCESS:          0 HIT:          0 MISS:          0
cpu0_ITLB PREFETCH REQUESTED:          0 ISSUED:          0 USEFUL:          0 USELESS:          0
cpu0_ITLB AVERAGE MISS LATENCY: 22.78 cycles
cpu0_L1D TOTAL        ACCESS:   20669290 HIT:   20341131 MISS:     328159
cpu0_L1D LOAD         ACCESS:   10467872 HIT:   10381002 MISS:      86870
cpu0_L1D RFO          ACCESS:          0 HIT:          0 MISS:          0
cpu0_L1D PREFETCH     ACCESS:     295308 HIT:     241801 MISS:      53507
cpu0_L1D WRITE        ACCESS:    9903283 HIT:    9717287 MISS:     185996
cpu0_L1D TRANSLATION  ACCESS:       2827 HIT:       1041 MISS:       1786
cpu0_L1D PREFETCH REQUESTED:    4125406 ISSUED:     295308 USEFUL:       5303 USELESS:        615
cpu0_L1D AVERAGE MISS LATENCY: 80.44 cycles
cpu0_L1I TOTAL        ACCESS:   11610224 HIT:   11512924 MISS:      97300
cpu0_L1I LOAD         ACCESS:    2723754 HIT:    2698530 MISS:      25224
cpu0_L1I RFO          ACCESS:          0 HIT:          0 MISS:          0
cpu0_L1I PREFETCH     ACCESS:    8886470 HIT:    8814394 MISS:      72076
cpu0_L1I WRITE        ACCESS:          0 HIT:          0 MISS:          0
cpu0_L1I TRANSLATION  ACCESS:          0 HIT:          0 MISS:          0
cpu0_L1I PREFETCH REQUESTED:    9097917 ISSUED:    8886470 USEFUL:      39107 USELESS:      29262
cpu0_L1I AVERAGE MISS LATENCY: 38.04 cycles
cpu0_L2C TOTAL        ACCESS:     542668 HIT:     339818 MISS:     202850
cpu0_L2C LOAD         ACCESS:      74747 HIT:      39830 MISS:      34917
cpu0_L2C RFO          ACCESS:      76268 HIT:       7579 MISS:      68689
cpu0_L2C PREFETCH     ACCESS:     301316 HIT:     203433 MISS:      97883
cpu0_L2C WRITE        ACCESS:      88610 HIT:      88610 MISS:          0
cpu0_L2C TRANSLATION  ACCESS:       1727 HIT:        366 MISS:       1361
cpu0_L2C PREFETCH REQUESTED:     191362 ISSUED:     184722 USEFUL:      18167 USELESS:      13310
cpu0_L2C AVERAGE MISS LATENCY: 161.7 cycles
cpu0_STLB TOTAL        ACCESS:      13516 HIT:      10914 MISS:       2602
cpu0_STLB LOAD         ACCESS:      13516 HIT:      10914 MISS:       2602
cpu0_STLB RFO          ACCESS:          0 HIT:          0 MISS:          0
cpu0_STLB PREFETCH     ACCESS:          0 HIT:          0 MISS:          0
cpu0_STLB WRITE        ACCESS:          0 HIT:          0 MISS:          0
cpu0_STLB TRANSLATION  ACCESS:          0 HIT:          0 MISS:          0
cpu0_STLB PREFETCH REQUESTED:          0 ISSUED:          0 USEFUL:          0 USELESS:          0
cpu0_STLB AVERAGE MISS LATENCY: 182 cycles

DRAM Statistics

Channel 0 RQ ROW_BUFFER_HIT:      23751
  ROW_BUFFER_MISS:      30645
 AVG DBUS CONGESTED CYCLE: 3.947
WQ ROW_BUFFER_HIT: Channel 0 
  ROW_BUFFER_MISS:       3016
  FULL:      26329

Channel 1 RQ ROW_BUFFER_HIT:      23590
  ROW_BUFFER_MISS:      29819
 AVG DBUS CONGESTED CYCLE: 3.939
WQ ROW_BUFFER_HIT: Channel 1 
  ROW_BUFFER_MISS:       3223
  FULL:      25224
BERTI TO_L1: 801992 TO_L2: 3782403 TO_L2_BC_MSHR: 2234973
BERTI AVG_LAT: 114.772 NUM_TRACK_LATENCY: 95346 NUM_CANT_TRACK_LATENCY: 0
BERTI CROSS_PAGE 959546 NO_CROSS_PAGE: 3624849
BERTI FOUND_BERTI: 1249332 NO_FOUND_BERTI: 13082353
BERTI AVERAGE_ISSUED: 4.43499
CPU 0 L1I Entangling prefetcher final stats
IP accesses: 1f30 7cc00 293297 / 2724721
IP misses: 3752 dd480 172 / 26191
IP hits: 0 0 0 / 0
IP late: 20a2 82880 33 / 12122
IP wrong: f801 3e0040 65 / 29154
miss rate: 0.00961237
coverage: 0
coverage_late: 0.462831
accuracy: 0
accuracy_late: 0.293682
discarded: 0
evicts entangled j table: 0
evicts entangled k table: 4113
max bb size: 53
formats: 965 0 3650 1765 730 1702 0 
hist_lookups: 3091 3363 2639 2422 2152 1742 1292 937 713 628 452 336 210 93 52 0 0 4311 
hist_lookups_evict: 0 %
hist_lookups_shortlat: 17.6442 %
bb_found_hist: 0 582328 339322 204763 4442 2250 936 732 263 49 2 70 20 52 15 20 2 0 0 0 1 4 0 0 0 0 0 0 0 0 0 2 2 0 2 0 0 0 0 0 0 0 0 0 0 0 0 0 0 0 0 0 0 1 0 0 0 0 0 0 0 0 0 0 
bb_found_summary: 1920163 1135278 1.69136
entangled_found_hist: 0 223926 269781 791124 13388 875 265 0 
entangled_found_summary: 3196377 1299359 2.45997
bb_ent_found_hist: 0 804693 292710 308411 141604 111724 2665 78773 724 32 0 161 66 18 26 107 68 0 0 0 1 28 0 0 0 0 0 0 0 0 0 2 2 0 2 0 0 0 0 0 0 0 0 0 0 0 0 0 0 0 0 0 0 1 0 0 0 0 0 0 0 0 0 0 
bb_ent_found_summary: 4020572 1741818 2.30827
