WARNING: physical memory size is smaller than virtual memory size.

*** ChampSim Multicore Out-of-Order Simulator ***
Warmup Instructions: 30000000
Simulation Instructions: 100000000
Number of CPUs: 1
Page size: 4096

BTB:
Basic BTB sets: 1024 ways: 8
Indirect:
history lengths: 0 0 10 16 27 44 60 96 109 219 449 487 714 1313 2146 3881 
ITTAGE tables: 64768 bytes;Region table: 240 bytes;IUM: 384 bytes;Total Storage= 65392 bytes;
RAS:
RAS size: 64
Berti Prefetcher
CPU 0 Entangling prefetcher
Off-chip DRAM Size: 8 GiB Channels: 2 Width: 64-bit Data Race: 6400 MT/s
Heartbeat CPU 0 instructions: 10000000 cycles: 1715429 heartbeat IPC: 5.829 cumulative IPC: 5.829 (Simulation time: 00 hr 00 min 32 sec)
Heartbeat CPU 0 instructions: 20000001 cycles: 3431656 heartbeat IPC: 5.827 cumulative IPC: 5.828 (Simulation time: 00 hr 01 min 03 sec)
Heartbeat CPU 0 instructions: 30000007 cycles: 5098399 heartbeat IPC: 6 cumulative IPC: 5.884 (Simulation time: 00 hr 01 min 34 sec)
Warmup finished CPU 0 instructions: 30000007 cycles: 5098400 cumulative IPC: 5.884 (Simulation time: 00 hr 01 min 34 sec)
Warmup complete CPU 0 instructions: 30000007 cycles: 5098400 cumulative IPC: 5.884 (Simulation time: 00 hr 01 min 34 sec)
Heartbeat CPU 0 instructions: 40000010 cycles: 6766183 heartbeat IPC: 5.996 cumulative IPC: 5.996 (Simulation time: 00 hr 02 min 09 sec)
Heartbeat CPU 0 instructions: 50000006 cycles: 8432846 heartbeat IPC: 6 cumulative IPC: 5.998 (Simulation time: 00 hr 02 min 44 sec)
*** Reached end of trace: (0, "../traces/secret_traces/crypto/crypto67.champsimtrace.xz")
Heartbeat CPU 0 instructions: 60000006 cycles: 11077222 heartbeat IPC: 3.782 cumulative IPC: 5.018 (Simulation time: 00 hr 03 min 37 sec)
Heartbeat CPU 0 instructions: 70000001 cycles: 12743893 heartbeat IPC: 6 cumulative IPC: 5.232 (Simulation time: 00 hr 04 min 26 sec)
Heartbeat CPU 0 instructions: 80000005 cycles: 15323868 heartbeat IPC: 3.876 cumulative IPC: 4.89 (Simulation time: 00 hr 05 min 21 sec)
Heartbeat CPU 0 instructions: 90000003 cycles: 17005238 heartbeat IPC: 5.948 cumulative IPC: 5.039 (Simulation time: 00 hr 06 min 01 sec)
Heartbeat CPU 0 instructions: 100000003 cycles: 18672923 heartbeat IPC: 5.996 cumulative IPC: 5.157 (Simulation time: 00 hr 06 min 41 sec)
*** Reached end of trace: (0, "../traces/secret_traces/crypto/crypto67.champsimtrace.xz")
Heartbeat CPU 0 instructions: 110000002 cycles: 21105878 heartbeat IPC: 4.11 cumulative IPC: 4.998 (Simulation time: 00 hr 07 min 25 sec)
Heartbeat CPU 0 instructions: 120000010 cycles: 22849332 heartbeat IPC: 5.736 cumulative IPC: 5.07 (Simulation time: 00 hr 08 min 01 sec)
Heartbeat CPU 0 instructions: 130000002 cycles: 25389236 heartbeat IPC: 3.937 cumulative IPC: 4.928 (Simulation time: 00 hr 08 min 47 sec)
Simulation finished CPU 0 instructions: 100000001 cycles: 20290838 cumulative IPC: 4.928 (Simulation time: 00 hr 08 min 47 sec)
Simulation complete CPU 0 instructions: 100000001 cycles: 20290838 cumulative IPC: 4.928 (Simulation time: 00 hr 08 min 47 sec)

ChampSim completed all CPUs

=== Simulation ===
CPU 0 runs ../traces/secret_traces/crypto/crypto67.champsimtrace.xz
Region of Interest Statistics

CPU 0 cumulative IPC: 4.928 instructions: 100000001 cycles: 20290838
CPU 0 Branch Prediction Accuracy: 99.49% MPKI: 0.5572 Average ROB Occupancy at Mispredict: 33.24
Branch type MPKI
BRANCH_DIRECT_JUMP: 0.0294
BRANCH_INDIRECT: 0.273
BRANCH_CONDITIONAL: 0.11
BRANCH_DIRECT_CALL: 0.0859
BRANCH_INDIRECT_CALL: 0.0111
BRANCH_RETURN: 0.047

LLC TOTAL        ACCESS:     229468 HIT:     122352 MISS:     107116
LLC LOAD         ACCESS:      27206 HIT:       6867 MISS:      20339
LLC RFO          ACCESS:      68888 HIT:      18574 MISS:      50314
LLC PREFETCH     ACCESS:      54586 HIT:      19607 MISS:      34979
LLC WRITE        ACCESS:      77461 HIT:      77092 MISS:        369
LLC TRANSLATION  ACCESS:       1327 HIT:        212 MISS:       1115
LLC PREFETCH REQUESTED:          0 ISSUED:          0 USEFUL:          0 USELESS:          0
LLC AVERAGE MISS LATENCY: 278.4 cycles
cpu0_DTLB TOTAL        ACCESS:   12255292 HIT:   12232436 MISS:      22856
cpu0_DTLB LOAD         ACCESS:   12255292 HIT:   12232436 MISS:      22856
cpu0_DTLB RFO          ACCESS:          0 HIT:          0 MISS:          0
cpu0_DTLB PREFETCH     ACCESS:          0 HIT:          0 MISS:          0
cpu0_DTLB WRITE        ACCESS:          0 HIT:          0 MISS:          0
cpu0_DTLB TRANSLATION  ACCESS:          0 HIT:          0 MISS:          0
cpu0_DTLB PREFETCH REQUESTED:          0 ISSUED:          0 USEFUL:          0 USELESS:          0
cpu0_DTLB AVERAGE MISS LATENCY: 14.52 cycles
cpu0_ITLB TOTAL        ACCESS:     387938 HIT:     379837 MISS:       8101
cpu0_ITLB LOAD         ACCESS:     387938 HIT:     379837 MISS:       8101
cpu0_ITLB RFO          ACCESS:          0 HIT:          0 MISS:          0
cpu0_ITLB PREFETCH     ACCESS:          0 HIT:          0 MISS:          0
cpu0_ITLB WRITE        ACCESS:          0 HIT:          0 MISS:          0
cpu0_ITLB TRANSLATION  ACCESS:          0 HIT:          0 MISS:          0
cpu0_ITLB PREFETCH REQUESTED:          0 ISSUED:          0 USEFUL:          0 USELESS:          0
cpu0_ITLB AVERAGE MISS LATENCY: 20.88 cycles
cpu0_L1D TOTAL        ACCESS:   18040234 HIT:   17704229 MISS:     336005
cpu0_L1D LOAD         ACCESS:   12060892 HIT:   11973952 MISS:      86940
cpu0_L1D RFO          ACCESS:          0 HIT:          0 MISS:          0
cpu0_L1D PREFETCH     ACCESS:     293693 HIT:     234159 MISS:      59534
cpu0_L1D WRITE        ACCESS:    5682827 HIT:    5495041 MISS:     187786
cpu0_L1D TRANSLATION  ACCESS:       2822 HIT:       1077 MISS:       1745
cpu0_L1D PREFETCH REQUESTED:    4145022 ISSUED:     293693 USEFUL:       4862 USELESS:        696
cpu0_L1D AVERAGE MISS LATENCY: 77.96 cycles
cpu0_L1I TOTAL        ACCESS:     564357 HIT:     467533 MISS:      96824
cpu0_L1I LOAD         ACCESS:     187078 HIT:     162694 MISS:      24384
cpu0_L1I RFO          ACCESS:          0 HIT:          0 MISS:          0
cpu0_L1I PREFETCH     ACCESS:     377279 HIT:     304839 MISS:      72440
cpu0_L1I WRITE        ACCESS:          0 HIT:          0 MISS:          0
cpu0_L1I TRANSLATION  ACCESS:          0 HIT:          0 MISS:          0
cpu0_L1I PREFETCH REQUESTED:     585258 ISSUED:     377279 USEFUL:      39232 USELESS:      29521
cpu0_L1I AVERAGE MISS LATENCY: 36.71 cycles
cpu0_L2C TOTAL        ACCESS:     552370 HIT:     349856 MISS:     202514
cpu0_L2C LOAD         ACCESS:      74074 HIT:      39139 MISS:      34935
cpu0_L2C RFO          ACCESS:      76613 HIT:       7677 MISS:      68936
cpu0_L2C PREFETCH     ACCESS:     311461 HIT:     214145 MISS:      97316
cpu0_L2C WRITE        ACCESS:      88530 HIT:      88530 MISS:          0
cpu0_L2C TRANSLATION  ACCESS:       1692 HIT:        365 MISS:       1327
cpu0_L2C PREFETCH REQUESTED:     196965 ISSUED:     188929 USEFUL:      17747 USELESS:      13343
cpu0_L2C AVERAGE MISS LATENCY: 159.3 cycles
cpu0_STLB TOTAL        ACCESS:      13507 HIT:      10914 MISS:       2593
cpu0_STLB LOAD         ACCESS:      13507 HIT:      10914 MISS:       2593
cpu0_STLB RFO          ACCESS:          0 HIT:          0 MISS:          0
cpu0_STLB PREFETCH     ACCESS:          0 HIT:          0 MISS:          0
cpu0_STLB WRITE        ACCESS:          0 HIT:          0 MISS:          0
cpu0_STLB TRANSLATION  ACCESS:          0 HIT:          0 MISS:          0
cpu0_STLB PREFETCH REQUESTED:          0 ISSUED:          0 USEFUL:          0 USELESS:          0
cpu0_STLB AVERAGE MISS LATENCY: 174.8 cycles

DRAM Statistics

Channel 0 RQ ROW_BUFFER_HIT:      23500
  ROW_BUFFER_MISS:      30324
 AVG DBUS CONGESTED CYCLE: 3.949
WQ ROW_BUFFER_HIT: Channel 0 
  ROW_BUFFER_MISS:       3150
  FULL:      26064

Channel 1 RQ ROW_BUFFER_HIT:      23087
  ROW_BUFFER_MISS:      29825
 AVG DBUS CONGESTED CYCLE: 3.938
WQ ROW_BUFFER_HIT: Channel 1 
  ROW_BUFFER_MISS:       3276
  FULL:      25014
BERTI TO_L1: 795843 TO_L2: 3851179 TO_L2_BC_MSHR: 2252411
BERTI AVG_LAT: 113.316 NUM_TRACK_LATENCY: 94927 NUM_CANT_TRACK_LATENCY: 0
BERTI CROSS_PAGE 933687 NO_CROSS_PAGE: 3713335
BERTI FOUND_BERTI: 748659 NO_FOUND_BERTI: 15453858
BERTI AVERAGE_ISSUED: 4.36457
CPU 0 L1I Entangling prefetcher final stats
IP accesses: 6f71 1bdc40 880 / 187617
IP misses: f7cb 3df2c0 93 / 24923
IP hits: 0 0 0 / 0
IP late: 20a3 828c0 30 / 11878
IP wrong: 7cde 1f3780 70 / 29355
miss rate: 0.13284
coverage: 0
coverage_late: 0.476588
accuracy: 0
accuracy_late: 0.288071
discarded: 0
evicts entangled j table: 0
evicts entangled k table: 3892
max bb size: 53
formats: 929 0 3465 1774 739 1654 0 
hist_lookups: 3187 3386 2511 2205 1889 1624 1204 909 695 572 437 294 176 98 56 0 3 4165 
hist_lookups_evict: 0.0128145 %
hist_lookups_shortlat: 17.7908 %
bb_found_hist: 0 46321 19265 9844 4250 2180 1009 723 274 48 13 70 60 46 15 20 2 4 0 0 0 2 0 0 0 0 0 0 0 0 0 2 0 0 2 0 0 0 0 0 0 0 0 0 0 0 0 0 0 0 0 0 0 2 0 0 0 0 0 0 0 0 0 0 
bb_found_summary: 159128 84152 1.89096
entangled_found_hist: 0 25127 17861 32894 5982 1282 305 0 
entangled_found_summary: 191699 83451 2.29715
bb_ent_found_hist: 0 64045 28270 20667 7570 5461 2097 1112 946 20 52 70 54 16 25 133 130 2 0 0 0 16 0 0 0 0 0 0 0 0 0 2 0 0 3 0 0 0 0 0 0 0 0 0 0 0 0 0 0 0 0 0 0 2 0 0 0 0 0 0 0 0 0 0 
bb_ent_found_summary: 275496 130693 2.10797
