WARNING: physical memory size is smaller than virtual memory size.

*** ChampSim Multicore Out-of-Order Simulator ***
Warmup Instructions: 30000000
Simulation Instructions: 100000000
Number of CPUs: 1
Page size: 4096

BTB:
Basic BTB sets: 1024 ways: 8
Indirect:
history lengths: 0 0 10 16 27 44 60 96 109 219 449 487 714 1313 2146 3881 
ITTAGE tables: 64768 bytes;Region table: 240 bytes;IUM: 384 bytes;Total Storage= 65392 bytes;
RAS:
RAS size: 64
Berti Prefetcher
CPU 0 Entangling prefetcher
Off-chip DRAM Size: 8 GiB Channels: 2 Width: 64-bit Data Race: 6400 MT/s
Heartbeat CPU 0 instructions: 10000000 cycles: 1715452 heartbeat IPC: 5.829 cumulative IPC: 5.829 (Simulation time: 00 hr 00 min 31 sec)
Heartbeat CPU 0 instructions: 20000000 cycles: 3431942 heartbeat IPC: 5.826 cumulative IPC: 5.828 (Simulation time: 00 hr 01 min 01 sec)
*** Reached end of trace: (0, "../traces/secret_traces/crypto/crypto103.champsimtrace.xz")
Heartbeat CPU 0 instructions: 30000000 cycles: 5151948 heartbeat IPC: 5.814 cumulative IPC: 5.823 (Simulation time: 00 hr 01 min 33 sec)
Warmup finished CPU 0 instructions: 30000000 cycles: 5151949 cumulative IPC: 5.823 (Simulation time: 00 hr 01 min 33 sec)
Warmup complete CPU 0 instructions: 30000000 cycles: 5151949 cumulative IPC: 5.823 (Simulation time: 00 hr 01 min 33 sec)
Heartbeat CPU 0 instructions: 40000000 cycles: 6818623 heartbeat IPC: 6 cumulative IPC: 6 (Simulation time: 00 hr 02 min 05 sec)
*** Reached end of trace: (0, "../traces/secret_traces/crypto/crypto103.champsimtrace.xz")
Heartbeat CPU 0 instructions: 50000006 cycles: 10189638 heartbeat IPC: 2.966 cumulative IPC: 3.97 (Simulation time: 00 hr 02 min 55 sec)
Heartbeat CPU 0 instructions: 60000003 cycles: 11954108 heartbeat IPC: 5.667 cumulative IPC: 4.41 (Simulation time: 00 hr 03 min 28 sec)
*** Reached end of trace: (0, "../traces/secret_traces/crypto/crypto103.champsimtrace.xz")
Heartbeat CPU 0 instructions: 70000000 cycles: 14768983 heartbeat IPC: 3.553 cumulative IPC: 4.159 (Simulation time: 00 hr 04 min 15 sec)
Heartbeat CPU 0 instructions: 80000000 cycles: 16989720 heartbeat IPC: 4.503 cumulative IPC: 4.224 (Simulation time: 00 hr 04 min 54 sec)
Heartbeat CPU 0 instructions: 90000000 cycles: 19522928 heartbeat IPC: 3.948 cumulative IPC: 4.175 (Simulation time: 00 hr 05 min 37 sec)
*** Reached end of trace: (0, "../traces/secret_traces/crypto/crypto103.champsimtrace.xz")
Heartbeat CPU 0 instructions: 100000005 cycles: 21994463 heartbeat IPC: 4.046 cumulative IPC: 4.156 (Simulation time: 00 hr 06 min 21 sec)
Heartbeat CPU 0 instructions: 110000001 cycles: 23661129 heartbeat IPC: 6 cumulative IPC: 4.322 (Simulation time: 00 hr 06 min 53 sec)
*** Reached end of trace: (0, "../traces/secret_traces/crypto/crypto103.champsimtrace.xz")
Heartbeat CPU 0 instructions: 120000003 cycles: 26890390 heartbeat IPC: 3.097 cumulative IPC: 4.14 (Simulation time: 00 hr 07 min 42 sec)
Heartbeat CPU 0 instructions: 130000006 cycles: 28651425 heartbeat IPC: 5.678 cumulative IPC: 4.255 (Simulation time: 00 hr 08 min 16 sec)
Simulation finished CPU 0 instructions: 100000006 cycles: 23499477 cumulative IPC: 4.255 (Simulation time: 00 hr 08 min 16 sec)
Simulation complete CPU 0 instructions: 100000006 cycles: 23499477 cumulative IPC: 4.255 (Simulation time: 00 hr 08 min 16 sec)

ChampSim completed all CPUs

=== Simulation ===
CPU 0 runs ../traces/secret_traces/crypto/crypto103.champsimtrace.xz
Region of Interest Statistics

CPU 0 cumulative IPC: 4.255 instructions: 100000006 cycles: 23499477
CPU 0 Branch Prediction Accuracy: 98.9% MPKI: 0.965 Average ROB Occupancy at Mispredict: 36.55
Branch type MPKI
BRANCH_DIRECT_JUMP: 0.0576
BRANCH_INDIRECT: 0.511
BRANCH_CONDITIONAL: 0.119
BRANCH_DIRECT_CALL: 0.167
BRANCH_INDIRECT_CALL: 0.0201
BRANCH_RETURN: 0.0907

LLC TOTAL        ACCESS:     459017 HIT:     240853 MISS:     218164
LLC LOAD         ACCESS:      53647 HIT:      11838 MISS:      41809
LLC RFO          ACCESS:     137873 HIT:      37084 MISS:     100789
LLC PREFETCH     ACCESS:     107964 HIT:      35241 MISS:      72723
LLC WRITE        ACCESS:     156887 HIT:     156254 MISS:        633
LLC TRANSLATION  ACCESS:       2646 HIT:        436 MISS:       2210
LLC PREFETCH REQUESTED:          0 ISSUED:          0 USEFUL:          0 USELESS:          0
LLC AVERAGE MISS LATENCY: 282.5 cycles
cpu0_DTLB TOTAL        ACCESS:   12551052 HIT:   12505558 MISS:      45494
cpu0_DTLB LOAD         ACCESS:   12551052 HIT:   12505558 MISS:      45494
cpu0_DTLB RFO          ACCESS:          0 HIT:          0 MISS:          0
cpu0_DTLB PREFETCH     ACCESS:          0 HIT:          0 MISS:          0
cpu0_DTLB WRITE        ACCESS:          0 HIT:          0 MISS:          0
cpu0_DTLB TRANSLATION  ACCESS:          0 HIT:          0 MISS:          0
cpu0_DTLB PREFETCH REQUESTED:          0 ISSUED:          0 USEFUL:          0 USELESS:          0
cpu0_DTLB AVERAGE MISS LATENCY: 14.63 cycles
cpu0_ITLB TOTAL        ACCESS:     763849 HIT:     748547 MISS:      15302
cpu0_ITLB LOAD         ACCESS:     763849 HIT:     748547 MISS:      15302
cpu0_ITLB RFO          ACCESS:          0 HIT:          0 MISS:          0
cpu0_ITLB PREFETCH     ACCESS:          0 HIT:          0 MISS:          0
cpu0_ITLB WRITE        ACCESS:          0 HIT:          0 MISS:          0
cpu0_ITLB TRANSLATION  ACCESS:          0 HIT:          0 MISS:          0
cpu0_ITLB PREFETCH REQUESTED:          0 ISSUED:          0 USEFUL:          0 USELESS:          0
cpu0_ITLB AVERAGE MISS LATENCY: 21.03 cycles
cpu0_L1D TOTAL        ACCESS:   17655357 HIT:   17017100 MISS:     638257
cpu0_L1D LOAD         ACCESS:   11279953 HIT:   11105401 MISS:     174552
cpu0_L1D RFO          ACCESS:          0 HIT:          0 MISS:          0
cpu0_L1D PREFETCH     ACCESS:     623672 HIT:     533581 MISS:      90091
cpu0_L1D WRITE        ACCESS:    5746123 HIT:    5376013 MISS:     370110
cpu0_L1D TRANSLATION  ACCESS:       5609 HIT:       2105 MISS:       3504
cpu0_L1D PREFETCH REQUESTED:    8633233 ISSUED:     623672 USEFUL:      10747 USELESS:       1128
cpu0_L1D AVERAGE MISS LATENCY: 83.22 cycles
cpu0_L1I TOTAL        ACCESS:    1112319 HIT:     933271 MISS:     179048
cpu0_L1I LOAD         ACCESS:     361408 HIT:     321272 MISS:      40136
cpu0_L1I RFO          ACCESS:          0 HIT:          0 MISS:          0
cpu0_L1I PREFETCH     ACCESS:     750911 HIT:     611999 MISS:     138912
cpu0_L1I WRITE        ACCESS:          0 HIT:          0 MISS:          0
cpu0_L1I TRANSLATION  ACCESS:          0 HIT:          0 MISS:          0
cpu0_L1I PREFETCH REQUESTED:    1208108 ISSUED:     750911 USEFUL:      78314 USELESS:      55074
cpu0_L1I AVERAGE MISS LATENCY: 43.79 cycles
cpu0_L2C TOTAL        ACCESS:    1028746 HIT:     625296 MISS:     403450
cpu0_L2C LOAD         ACCESS:     142491 HIT:      72990 MISS:      69501
cpu0_L2C RFO          ACCESS:     150883 HIT:      12906 MISS:     137977
cpu0_L2C PREFETCH     ACCESS:     555161 HIT:     361835 MISS:     193326
cpu0_L2C WRITE        ACCESS:     176808 HIT:     176808 MISS:          0
cpu0_L2C TRANSLATION  ACCESS:       3403 HIT:        757 MISS:       2646
cpu0_L2C PREFETCH REQUESTED:     356427 ISSUED:     341373 USEFUL:      35447 USELESS:      26167
cpu0_L2C AVERAGE MISS LATENCY: 164.6 cycles
cpu0_STLB TOTAL        ACCESS:      26268 HIT:      21116 MISS:       5152
cpu0_STLB LOAD         ACCESS:      26268 HIT:      21116 MISS:       5152
cpu0_STLB RFO          ACCESS:          0 HIT:          0 MISS:          0
cpu0_STLB PREFETCH     ACCESS:          0 HIT:          0 MISS:          0
cpu0_STLB WRITE        ACCESS:          0 HIT:          0 MISS:          0
cpu0_STLB TRANSLATION  ACCESS:          0 HIT:          0 MISS:          0
cpu0_STLB PREFETCH REQUESTED:          0 ISSUED:          0 USEFUL:          0 USELESS:          0
cpu0_STLB AVERAGE MISS LATENCY: 175.1 cycles

DRAM Statistics

Channel 0 RQ ROW_BUFFER_HIT:      48657
  ROW_BUFFER_MISS:      61253
 AVG DBUS CONGESTED CYCLE: 3.949
WQ ROW_BUFFER_HIT: Channel 0 
  ROW_BUFFER_MISS:       6090
  FULL:      52990

Channel 1 RQ ROW_BUFFER_HIT:      48077
  ROW_BUFFER_MISS:      59491
 AVG DBUS CONGESTED CYCLE: 3.938
WQ ROW_BUFFER_HIT: Channel 1 
  ROW_BUFFER_MISS:       6465
  FULL:      50250
BERTI TO_L1: 1516267 TO_L2: 7971222 TO_L2_BC_MSHR: 4669741
BERTI AVG_LAT: 128.194 NUM_TRACK_LATENCY: 171915 NUM_CANT_TRACK_LATENCY: 0
BERTI CROSS_PAGE 1946815 NO_CROSS_PAGE: 7540674
BERTI FOUND_BERTI: 1727149 NO_FOUND_BERTI: 14147634
BERTI AVERAGE_ISSUED: 4.30936
CPU 0 L1I Entangling prefetcher final stats
IP accesses: 25bf 96fc0 1886 / 365231
IP misses: 7c03 1f00c0 434 / 43959
IP hits: 0 0 0 / 0
IP late: 59b0 166c00 50 / 19853
IP wrong: 7cde 1f3780 235 / 54869
miss rate: 0.12036
coverage: 0
coverage_late: 0.451626
accuracy: 0
accuracy_late: 0.265692
discarded: 0
evicts entangled j table: 0
evicts entangled k table: 6846
max bb size: 53
formats: 1687 0 5527 2762 1111 2107 0 
hist_lookups: 4236 5002 4070 3748 3365 2958 2225 1595 1265 1005 687 499 333 188 109 0 12 7819 
hist_lookups_evict: 0.030678 %
hist_lookups_shortlat: 19.9893 %
bb_found_hist: 0 91991 38973 19560 9155 4134 2063 1729 562 142 8 109 119 98 28 0 4 0 0 0 0 8 0 0 0 0 0 0 0 0 0 4 0 0 4 0 0 0 0 0 0 0 0 0 0 0 0 0 0 0 0 0 0 4 0 0 0 0 0 0 0 0 0 0 
bb_found_summary: 321239 168695 1.90426
entangled_found_hist: 0 48494 38693 67506 12898 2407 871 0 
entangled_found_summary: 397251 170869 2.32489
bb_ent_found_hist: 0 134046 59324 39486 17083 10429 5659 2604 1864 166 0 101 121 38 10 0 264 0 0 0 0 60 0 0 0 0 0 0 0 0 0 8 0 0 4 0 0 0 0 0 0 0 0 0 0 0 0 0 0 0 0 0 0 6 0 0 0 0 0 0 0 0 0 0 
bb_ent_found_summary: 569600 271273 2.09973
