WARNING: physical memory size is smaller than virtual memory size.

*** ChampSim Multicore Out-of-Order Simulator ***
Warmup Instructions: 30000000
Simulation Instructions: 100000000
Number of CPUs: 1
Page size: 4096

BTB:
Basic BTB sets: 1024 ways: 8
Indirect:
history lengths: 0 0 10 16 27 44 60 96 109 219 449 487 714 1313 2146 3881 
ITTAGE tables: 64768 bytes;Region table: 240 bytes;IUM: 384 bytes;Total Storage= 65392 bytes;
RAS:
RAS size: 64
[LLC] INSTR Demand IPV: 1 2 2 1 4 Prefetch IPV: 1 2 1 1 4
[LLC] DATA  Demand IPV: 1 1 1 2 4 Prefetch IPV: 1 1 2 2 4
Berti Prefetcher
CPU 0 Entangling prefetcher
Off-chip DRAM Size: 8 GiB Channels: 2 Width: 64-bit Data Race: 6400 MT/s
[DUEL] Epoch ended. INSTR misses = 145, DATA misses = 107. Winner = DATA
[DUEL] Epoch ended. INSTR misses = 110, DATA misses = 67. Winner = DATA
[DUEL] Epoch ended. INSTR misses = 282, DATA misses = 48. Winner = DATA
[DUEL] Epoch ended. INSTR misses = 280, DATA misses = 60. Winner = DATA
[DUEL] Epoch ended. INSTR misses = 291, DATA misses = 57. Winner = DATA
[DUEL] Epoch ended. INSTR misses = 353, DATA misses = 136. Winner = DATA
[DUEL] Epoch ended. INSTR misses = 283, DATA misses = 48. Winner = DATA
[DUEL] Epoch ended. INSTR misses = 328, DATA misses = 109. Winner = DATA
[DUEL] Epoch ended. INSTR misses = 330, DATA misses = 109. Winner = DATA
[DUEL] Epoch ended. INSTR misses = 294, DATA misses = 74. Winner = DATA
[DUEL] Epoch ended. INSTR misses = 307, DATA misses = 80. Winner = DATA
[DUEL] Epoch ended. INSTR misses = 302, DATA misses = 78. Winner = DATA
[DUEL] Epoch ended. INSTR misses = 318, DATA misses = 94. Winner = DATA
[DUEL] Epoch ended. INSTR misses = 320, DATA misses = 113. Winner = DATA
[DUEL] Epoch ended. INSTR misses = 275, DATA misses = 48. Winner = DATA
[DUEL] Epoch ended. INSTR misses = 326, DATA misses = 108. Winner = DATA
[DUEL] Epoch ended. INSTR misses = 316, DATA misses = 96. Winner = DATA
[DUEL] Epoch ended. INSTR misses = 281, DATA misses = 62. Winner = DATA
[DUEL] Epoch ended. INSTR misses = 183, DATA misses = 58. Winner = DATA
Heartbeat CPU 0 instructions: 10000009 cycles: 1716403 heartbeat IPC: 5.826 cumulative IPC: 5.826 (Simulation time: 00 hr 00 min 27 sec)
[DUEL] Epoch ended. INSTR misses = 204, DATA misses = 121. Winner = DATA
[DUEL] Epoch ended. INSTR misses = 330, DATA misses = 106. Winner = DATA
[DUEL] Epoch ended. INSTR misses = 260, DATA misses = 48. Winner = DATA
[DUEL] Epoch ended. INSTR misses = 300, DATA misses = 77. Winner = DATA
[DUEL] Epoch ended. INSTR misses = 290, DATA misses = 79. Winner = DATA
[DUEL] Epoch ended. INSTR misses = 239, DATA misses = 16. Winner = DATA
[DUEL] Epoch ended. INSTR misses = 285, DATA misses = 62. Winner = DATA
[DUEL] Epoch ended. INSTR misses = 264, DATA misses = 46. Winner = DATA
[DUEL] Epoch ended. INSTR misses = 304, DATA misses = 95. Winner = DATA
[DUEL] Epoch ended. INSTR misses = 288, DATA misses = 62. Winner = DATA
[DUEL] Epoch ended. INSTR misses = 259, DATA misses = 41. Winner = DATA
[DUEL] Epoch ended. INSTR misses = 280, DATA misses = 64. Winner = DATA
[DUEL] Epoch ended. INSTR misses = 293, DATA misses = 79. Winner = DATA
[DUEL] Epoch ended. INSTR misses = 267, DATA misses = 48. Winner = DATA
[DUEL] Epoch ended. INSTR misses = 271, DATA misses = 48. Winner = DATA
[DUEL] Epoch ended. INSTR misses = 265, DATA misses = 48. Winner = DATA
[DUEL] Epoch ended. INSTR misses = 284, DATA misses = 64. Winner = DATA
[DUEL] Epoch ended. INSTR misses = 315, DATA misses = 102. Winner = DATA
[DUEL] Epoch ended. INSTR misses = 312, DATA misses = 93. Winner = DATA
[DUEL] Epoch ended. INSTR misses = 286, DATA misses = 74. Winner = DATA
Heartbeat CPU 0 instructions: 20000003 cycles: 3384007 heartbeat IPC: 5.997 cumulative IPC: 5.91 (Simulation time: 00 hr 00 min 55 sec)
[DUEL] Epoch ended. INSTR misses = 248, DATA misses = 53. Winner = DATA
[DUEL] Epoch ended. INSTR misses = 328, DATA misses = 128. Winner = DATA
[DUEL] Epoch ended. INSTR misses = 307, DATA misses = 79. Winner = DATA
[DUEL] Epoch ended. INSTR misses = 330, DATA misses = 78. Winner = DATA
[DUEL] Epoch ended. INSTR misses = 323, DATA misses = 63. Winner = DATA
[DUEL] Epoch ended. INSTR misses = 318, DATA misses = 48. Winner = DATA
[DUEL] Epoch ended. INSTR misses = 297, DATA misses = 32. Winner = DATA
[DUEL] Epoch ended. INSTR misses = 292, DATA misses = 16. Winner = DATA
[DUEL] Epoch ended. INSTR misses = 284, DATA misses = 0. Winner = DATA
[DUEL] Epoch ended. INSTR misses = 272, DATA misses = 0. Winner = DATA
[DUEL] Epoch ended. INSTR misses = 335, DATA misses = 69. Winner = DATA
[DUEL] Epoch ended. INSTR misses = 314, DATA misses = 45. Winner = DATA
[DUEL] Epoch ended. INSTR misses = 309, DATA misses = 30. Winner = DATA
[DUEL] Epoch ended. INSTR misses = 316, DATA misses = 43. Winner = DATA
[DUEL] Epoch ended. INSTR misses = 294, DATA misses = 32. Winner = DATA
[DUEL] Epoch ended. INSTR misses = 326, DATA misses = 63. Winner = DATA
[DUEL] Epoch ended. INSTR misses = 314, DATA misses = 29. Winner = DATA
[DUEL] Epoch ended. INSTR misses = 324, DATA misses = 61. Winner = DATA
[DUEL] Epoch ended. INSTR misses = 312, DATA misses = 42. Winner = DATA
Heartbeat CPU 0 instructions: 30000001 cycles: 5051770 heartbeat IPC: 5.996 cumulative IPC: 5.939 (Simulation time: 00 hr 01 min 20 sec)
Warmup finished CPU 0 instructions: 30000001 cycles: 5051771 cumulative IPC: 5.939 (Simulation time: 00 hr 01 min 20 sec)
Warmup complete CPU 0 instructions: 30000001 cycles: 5051771 cumulative IPC: 5.939 (Simulation time: 00 hr 01 min 20 sec)
[DUEL] Epoch ended. INSTR misses = 293, DATA misses = 0. Winner = DATA
[DUEL] Epoch ended. INSTR misses = 351, DATA misses = 46. Winner = DATA
[DUEL] Epoch ended. INSTR misses = 381, DATA misses = 93. Winner = DATA
[DUEL] Epoch ended. INSTR misses = 347, DATA misses = 47. Winner = DATA
[DUEL] Epoch ended. INSTR misses = 356, DATA misses = 48. Winner = DATA
[DUEL] Epoch ended. INSTR misses = 332, DATA misses = 30. Winner = DATA
[DUEL] Epoch ended. INSTR misses = 320, DATA misses = 16. Winner = DATA
[DUEL] Epoch ended. INSTR misses = 341, DATA misses = 30. Winner = DATA
[DUEL] Epoch ended. INSTR misses = 340, DATA misses = 48. Winner = DATA
[DUEL] Epoch ended. INSTR misses = 343, DATA misses = 46. Winner = DATA
[DUEL] Epoch ended. INSTR misses = 318, DATA misses = 16. Winner = DATA
[DUEL] Epoch ended. INSTR misses = 349, DATA misses = 26. Winner = DATA
[DUEL] Epoch ended. INSTR misses = 713, DATA misses = 609. Winner = DATA
[DUEL] Epoch ended. INSTR misses = 524, DATA misses = 336. Winner = DATA
[DUEL] Epoch ended. INSTR misses = 295, DATA misses = 63. Winner = DATA
[DUEL] Epoch ended. INSTR misses = 304, DATA misses = 80. Winner = DATA
[cpu0_PTW_MSHR] entry:   0 address: 0x12cdb040 v_addr: 0x3f2e040 translation_level: 0 event_cycle: 18446744073709551615

DRAM Channel 0
[RQ] entry:   0 empty
[RQ] entry:   1 empty
[RQ] entry:   2 empty
[RQ] entry:   3 empty
[RQ] entry:   4 empty
[RQ] entry:   5 empty
[RQ] entry:   6 empty
[RQ] entry:   7 empty
[RQ] entry:   8 empty
[RQ] entry:   9 empty
[RQ] entry:  10 empty
[RQ] entry:  11 empty
[RQ] entry:  12 empty
[RQ] entry:  13 empty
[RQ] entry:  14 empty
[RQ] entry:  15 empty
[RQ] entry:  16 empty
[RQ] entry:  17 empty
[RQ] entry:  18 empty
[RQ] entry:  19 empty
[RQ] entry:  20 empty
[RQ] entry:  21 empty
[RQ] entry:  22 empty
[RQ] entry:  23 empty
[RQ] entry:  24 empty
[RQ] entry:  25 empty
[RQ] entry:  26 empty
[RQ] entry:  27 empty
[RQ] entry:  28 empty
[RQ] entry:  29 empty
[RQ] entry:  30 empty
[RQ] entry:  31 empty
[RQ] entry:  32 empty
[RQ] entry:  33 empty
[RQ] entry:  34 empty
[RQ] entry:  35 empty
[RQ] entry:  36 empty
[RQ] entry:  37 empty
[RQ] entry:  38 empty
[RQ] entry:  39 empty
[RQ] entry:  40 empty
[RQ] entry:  41 empty
[RQ] entry:  42 empty
[RQ] entry:  43 empty
[RQ] entry:  44 empty
[RQ] entry:  45 empty
[RQ] entry:  46 empty
[RQ] entry:  47 empty
[RQ] entry:  48 empty
[RQ] entry:  49 empty
[RQ] entry:  50 empty
[RQ] entry:  51 empty
[RQ] entry:  52 empty
[RQ] entry:  53 empty
[RQ] entry:  54 empty
[RQ] entry:  55 empty
[RQ] entry:  56 empty
[RQ] entry:  57 empty
[RQ] entry:  58 empty
[RQ] entry:  59 empty
[RQ] entry:  60 empty
[RQ] entry:  61 empty
[RQ] entry:  62 empty
[RQ] entry:  63 empty

[WQ] entry:   0 empty
[WQ] entry:   1 empty
[WQ] entry:   2 empty
[WQ] entry:   3 empty
[WQ] entry:   4 empty
[WQ] entry:   5 empty
[WQ] entry:   6 empty
[WQ] entry:   7 empty
[WQ] entry:   8 empty
[WQ] entry:   9 empty
[WQ] entry:  10 empty
[WQ] entry:  11 empty
[WQ] entry:  12 empty
[WQ] entry:  13 empty
[WQ] entry:  14 empty
[WQ] entry:  15 empty
[WQ] entry:  16 empty
[WQ] entry:  17 empty
[WQ] entry:  18 empty
[WQ] entry:  19 empty
[WQ] entry:  20 empty
[WQ] entry:  21 empty
[WQ] entry:  22 empty
[WQ] entry:  23 empty
[WQ] entry:  24 empty
[WQ] entry:  25 empty
[WQ] entry:  26 empty
[WQ] entry:  27 empty
[WQ] entry:  28 empty
[WQ] entry:  29 empty
[WQ] entry:  30 empty
[WQ] entry:  31 empty
[WQ] entry:  32 empty
[WQ] entry:  33 empty
[WQ] entry:  34 empty
[WQ] entry:  35 empty
[WQ] entry:  36 empty
[WQ] entry:  37 empty
[WQ] entry:  38 empty
[WQ] entry:  39 empty
[WQ] entry:  40 empty
[WQ] entry:  41 empty
[WQ] entry:  42 empty
[WQ] entry:  43 empty
[WQ] entry:  44 empty
[WQ] entry:  45 empty
[WQ] entry:  46 empty
[WQ] entry:  47 empty
[WQ] entry:  48 empty
[WQ] entry:  49 empty
[WQ] entry:  50 empty
[WQ] entry:  51 empty
[WQ] entry:  52 empty
[WQ] entry:  53 empty
[WQ] entry:  54 empty
[WQ] entry:  55 empty
[WQ] entry:  56 empty
[WQ] entry:  57 empty
[WQ] entry:  58 empty
[WQ] entry:  59 empty
[WQ] entry:  60 empty
[WQ] entry:  61 empty
[WQ] entry:  62 empty
[WQ] entry:  63 empty

DRAM Channel 1
[RQ] entry:   0 empty
[RQ] entry:   1 empty
[RQ] entry:   2 empty
[RQ] entry:   3 empty
[RQ] entry:   4 empty
[RQ] entry:   5 empty
[RQ] entry:   6 empty
[RQ] entry:   7 empty
[RQ] entry:   8 empty
[RQ] entry:   9 empty
[RQ] entry:  10 empty
[RQ] entry:  11 empty
[RQ] entry:  12 empty
[RQ] entry:  13 empty
[RQ] entry:  14 empty
[RQ] entry:  15 empty
[RQ] entry:  16 empty
[RQ] entry:  17 empty
[RQ] entry:  18 empty
[RQ] entry:  19 empty
[RQ] entry:  20 empty
[RQ] entry:  21 empty
[RQ] entry:  22 empty
[RQ] entry:  23 empty
[RQ] entry:  24 empty
[RQ] entry:  25 empty
[RQ] entry:  26 empty
[RQ] entry:  27 empty
[RQ] entry:  28 empty
[RQ] entry:  29 empty
[RQ] entry:  30 empty
[RQ] entry:  31 empty
[RQ] entry:  32 empty
[RQ] entry:  33 empty
[RQ] entry:  34 empty
[RQ] entry:  35 empty
[RQ] entry:  36 empty
[RQ] entry:  37 empty
[RQ] entry:  38 empty
[RQ] entry:  39 empty
[RQ] entry:  40 empty
[RQ] entry:  41 empty
[RQ] entry:  42 empty
[RQ] entry:  43 empty
[RQ] entry:  44 empty
[RQ] entry:  45 empty
[RQ] entry:  46 empty
[RQ] entry:  47 empty
[RQ] entry:  48 empty
[RQ] entry:  49 empty
[RQ] entry:  50 empty
[RQ] entry:  51 empty
[RQ] entry:  52 empty
[RQ] entry:  53 empty
[RQ] entry:  54 empty
[RQ] entry:  55 empty
[RQ] entry:  56 empty
[RQ] entry:  57 empty
[RQ] entry:  58 empty
[RQ] entry:  59 empty
[RQ] entry:  60 empty
[RQ] entry:  61 empty
[RQ] entry:  62 empty
[RQ] entry:  63 empty

[WQ] entry:   0 empty
[WQ] entry:   1 empty
[WQ] entry:   2 empty
[WQ] entry:   3 empty
[WQ] entry:   4 empty
[WQ] entry:   5 empty
[WQ] entry:   6 empty
[WQ] entry:   7 empty
[WQ] entry:   8 empty
[WQ] entry:   9 empty
[WQ] entry:  10 empty
[WQ] entry:  11 empty
[WQ] entry:  12 empty
[WQ] entry:  13 empty
[WQ] entry:  14 empty
[WQ] entry:  15 empty
[WQ] entry:  16 empty
[WQ] entry:  17 empty
[WQ] entry:  18 empty
[WQ] entry:  19 empty
[WQ] entry:  20 empty
[WQ] entry:  21 empty
[WQ] entry:  22 empty
[WQ] entry:  23 empty
[WQ] entry:  24 empty
[WQ] entry:  25 empty
[WQ] entry:  26 empty
[WQ] entry:  27 empty
[WQ] entry:  28 empty
[WQ] entry:  29 empty
[WQ] entry:  30 empty
[WQ] entry:  31 empty
[WQ] entry:  32 empty
[WQ] entry:  33 empty
[WQ] entry:  34 empty
[WQ] entry:  35 empty
[WQ] entry:  36 empty
[WQ] entry:  37 empty
[WQ] entry:  38 empty
[WQ] entry:  39 empty
[WQ] entry:  40 empty
[WQ] entry:  41 empty
[WQ] entry:  42 empty
[WQ] entry:  43 empty
[WQ] entry:  44 empty
[WQ] entry:  45 empty
[WQ] entry:  46 empty
[WQ] entry:  47 empty
[WQ] entry:  48 empty
[WQ] entry:  49 empty
[WQ] entry:  50 empty
[WQ] entry:  51 empty
[WQ] entry:  52 empty
[WQ] entry:  53 empty
[WQ] entry:  54 empty
[WQ] entry:  55 empty
[WQ] entry:  56 empty
[WQ] entry:  57 empty
[WQ] entry:  58 empty
[WQ] entry:  59 empty
[WQ] entry:  60 empty
[WQ] entry:  61 empty
[WQ] entry:  62 empty
[WQ] entry:  63 empty

DEADLOCK! CPU 0 cycle 30001691
[cpu0_IFETCH] entry:   0 instr_id: 38198717 fetched: 2 scheduled: 0 executed: 0 num_reg_dependent: 0 num_mem_ops: 0 event: 29997758
[cpu0_IFETCH] entry:   1 instr_id: 38198718 fetched: 2 scheduled: 0 executed: 0 num_reg_dependent: 0 num_mem_ops: 0 event: 29997759
[cpu0_IFETCH] entry:   2 instr_id: 38198719 fetched: 2 scheduled: 0 executed: 0 num_reg_dependent: 0 num_mem_ops: 0 event: 29997759
[cpu0_IFETCH] entry:   3 instr_id: 38198720 fetched: 2 scheduled: 0 executed: 0 num_reg_dependent: 0 num_mem_ops: 0 event: 29997759
[cpu0_IFETCH] entry:   4 instr_id: 38198721 fetched: 2 scheduled: 0 executed: 0 num_reg_dependent: 0 num_mem_ops: 0 event: 29997759
[cpu0_IFETCH] entry:   5 instr_id: 38198722 fetched: 2 scheduled: 0 executed: 0 num_reg_dependent: 0 num_mem_ops: 0 event: 29997759
[cpu0_IFETCH] entry:   6 instr_id: 38198723 fetched: 2 scheduled: 0 executed: 0 num_reg_dependent: 0 num_mem_ops: 0 event: 29997760
[cpu0_IFETCH] entry:   7 instr_id: 38198724 fetched: 2 scheduled: 0 executed: 0 num_reg_dependent: 0 num_mem_ops: 0 event: 29997760
[cpu0_IFETCH] entry:   8 instr_id: 38198725 fetched: 2 scheduled: 0 executed: 0 num_reg_dependent: 0 num_mem_ops: 0 event: 29997761
[cpu0_IFETCH] entry:   9 instr_id: 38198726 fetched: 2 scheduled: 0 executed: 0 num_reg_dependent: 0 num_mem_ops: 0 event: 29997761
[cpu0_IFETCH] entry:  10 instr_id: 38198727 fetched: 2 scheduled: 0 executed: 0 num_reg_dependent: 0 num_mem_ops: 0 event: 29997762
[cpu0_IFETCH] entry:  11 instr_id: 38198728 fetched: 2 scheduled: 0 executed: 0 num_reg_dependent: 0 num_mem_ops: 0 event: 29997762
[cpu0_IFETCH] entry:  12 instr_id: 38198729 fetched: 2 scheduled: 0 executed: 0 num_reg_dependent: 0 num_mem_ops: 0 event: 29997762
[cpu0_IFETCH] entry:  13 instr_id: 38198730 fetched: 2 scheduled: 0 executed: 0 num_reg_dependent: 0 num_mem_ops: 0 event: 29997762
[cpu0_IFETCH] entry:  14 instr_id: 38198731 fetched: 2 scheduled: 0 executed: 0 num_reg_dependent: 0 num_mem_ops: 1 event: 29997762
[cpu0_IFETCH] entry:  15 instr_id: 38198732 fetched: 2 scheduled: 0 executed: 0 num_reg_dependent: 0 num_mem_ops: 1 event: 29997762
[cpu0_IFETCH] entry:  16 instr_id: 38198733 fetched: 2 scheduled: 0 executed: 0 num_reg_dependent: 0 num_mem_ops: 1 event: 29997763
[cpu0_IFETCH] entry:  17 instr_id: 38198734 fetched: 2 scheduled: 0 executed: 0 num_reg_dependent: 0 num_mem_ops: 1 event: 29997763
[cpu0_IFETCH] entry:  18 instr_id: 38198735 fetched: 2 scheduled: 0 executed: 0 num_reg_dependent: 0 num_mem_ops: 0 event: 29997763
[cpu0_IFETCH] entry:  19 instr_id: 38198736 fetched: 2 scheduled: 0 executed: 0 num_reg_dependent: 0 num_mem_ops: 0 event: 29997763
[cpu0_IFETCH] entry:  20 instr_id: 38198737 fetched: 2 scheduled: 0 executed: 0 num_reg_dependent: 0 num_mem_ops: 0 event: 29997763
[cpu0_IFETCH] entry:  21 instr_id: 38198738 fetched: 2 scheduled: 0 executed: 0 num_reg_dependent: 0 num_mem_ops: 0 event: 29997763
[cpu0_IFETCH] entry:  22 instr_id: 38198739 fetched: 2 scheduled: 0 executed: 0 num_reg_dependent: 0 num_mem_ops: 0 event: 29997764
[cpu0_IFETCH] entry:  23 instr_id: 38198740 fetched: 2 scheduled: 0 executed: 0 num_reg_dependent: 0 num_mem_ops: 0 event: 29997764
[cpu0_IFETCH] entry:  24 instr_id: 38198741 fetched: 2 scheduled: 0 executed: 0 num_reg_dependent: 0 num_mem_ops: 0 event: 29997764
[cpu0_IFETCH] entry:  25 instr_id: 38198742 fetched: 2 scheduled: 0 executed: 0 num_reg_dependent: 0 num_mem_ops: 0 event: 29997764
[cpu0_IFETCH] entry:  26 instr_id: 38198743 fetched: 2 scheduled: 0 executed: 0 num_reg_dependent: 0 num_mem_ops: 0 event: 29997764
[cpu0_IFETCH] entry:  27 instr_id: 38198744 fetched: 2 scheduled: 0 executed: 0 num_reg_dependent: 0 num_mem_ops: 0 event: 29997764
[cpu0_IFETCH] entry:  28 instr_id: 38198745 fetched: 2 scheduled: 0 executed: 0 num_reg_dependent: 0 num_mem_ops: 0 event: 29997765
[cpu0_IFETCH] entry:  29 instr_id: 38198746 fetched: 2 scheduled: 0 executed: 0 num_reg_dependent: 0 num_mem_ops: 0 event: 29997765
[cpu0_IFETCH] entry:  30 instr_id: 38198747 fetched: 2 scheduled: 0 executed: 0 num_reg_dependent: 0 num_mem_ops: 0 event: 29997765
[cpu0_IFETCH] entry:  31 instr_id: 38198748 fetched: 2 scheduled: 0 executed: 0 num_reg_dependent: 0 num_mem_ops: 0 event: 29997765
[cpu0_IFETCH] entry:  32 instr_id: 38198749 fetched: 2 scheduled: 0 executed: 0 num_reg_dependent: 0 num_mem_ops: 0 event: 29997765
[cpu0_IFETCH] entry:  33 instr_id: 38198750 fetched: 2 scheduled: 0 executed: 0 num_reg_dependent: 0 num_mem_ops: 0 event: 29997765
[cpu0_IFETCH] entry:  34 instr_id: 38198751 fetched: 2 scheduled: 0 executed: 0 num_reg_dependent: 0 num_mem_ops: 1 event: 29997766
[cpu0_IFETCH] entry:  35 instr_id: 38198752 fetched: 2 scheduled: 0 executed: 0 num_reg_dependent: 0 num_mem_ops: 1 event: 29997766
[cpu0_IFETCH] entry:  36 instr_id: 38198753 fetched: 2 scheduled: 0 executed: 0 num_reg_dependent: 0 num_mem_ops: 1 event: 29997766
[cpu0_IFETCH] entry:  37 instr_id: 38198754 fetched: 2 scheduled: 0 executed: 0 num_reg_dependent: 0 num_mem_ops: 1 event: 29997766
[cpu0_IFETCH] entry:  38 instr_id: 38198755 fetched: 2 scheduled: 0 executed: 0 num_reg_dependent: 0 num_mem_ops: 0 event: 29997766
[cpu0_IFETCH] entry:  39 instr_id: 38198756 fetched: 2 scheduled: 0 executed: 0 num_reg_dependent: 0 num_mem_ops: 0 event: 29997766
[cpu0_IFETCH] entry:  40 instr_id: 38198757 fetched: 2 scheduled: 0 executed: 0 num_reg_dependent: 0 num_mem_ops: 0 event: 29997767
[cpu0_IFETCH] entry:  41 instr_id: 38198758 fetched: 2 scheduled: 0 executed: 0 num_reg_dependent: 0 num_mem_ops: 0 event: 29997767
[cpu0_IFETCH] entry:  42 instr_id: 38198759 fetched: 2 scheduled: 0 executed: 0 num_reg_dependent: 0 num_mem_ops: 0 event: 29997767
[cpu0_IFETCH] entry:  43 instr_id: 38198760 fetched: 2 scheduled: 0 executed: 0 num_reg_dependent: 0 num_mem_ops: 0 event: 29997767
[cpu0_IFETCH] entry:  44 instr_id: 38198761 fetched: 2 scheduled: 0 executed: 0 num_reg_dependent: 0 num_mem_ops: 0 event: 29997767
[cpu0_IFETCH] entry:  45 instr_id: 38198762 fetched: 2 scheduled: 0 executed: 0 num_reg_dependent: 0 num_mem_ops: 0 event: 29997767
[cpu0_IFETCH] entry:  46 instr_id: 38198763 fetched: 2 scheduled: 0 executed: 0 num_reg_dependent: 0 num_mem_ops: 0 event: 29997768
[cpu0_IFETCH] entry:  47 instr_id: 38198764 fetched: 2 scheduled: 0 executed: 0 num_reg_dependent: 0 num_mem_ops: 0 event: 29997768
[cpu0_IFETCH] entry:  48 instr_id: 38198765 fetched: 2 scheduled: 0 executed: 0 num_reg_dependent: 0 num_mem_ops: 0 event: 29997768
[cpu0_IFETCH] entry:  49 instr_id: 38198766 fetched: 2 scheduled: 0 executed: 0 num_reg_dependent: 0 num_mem_ops: 0 event: 29997768
[cpu0_IFETCH] entry:  50 instr_id: 38198767 fetched: 2 scheduled: 0 executed: 0 num_reg_dependent: 0 num_mem_ops: 0 event: 29997768
[cpu0_IFETCH] entry:  51 instr_id: 38198768 fetched: 2 scheduled: 0 executed: 0 num_reg_dependent: 0 num_mem_ops: 0 event: 29997768
[cpu0_IFETCH] entry:  52 instr_id: 38198769 fetched: 2 scheduled: 0 executed: 0 num_reg_dependent: 0 num_mem_ops: 0 event: 29997769
[cpu0_IFETCH] entry:  53 instr_id: 38198770 fetched: 2 scheduled: 0 executed: 0 num_reg_dependent: 0 num_mem_ops: 0 event: 29997769
[cpu0_IFETCH] entry:  54 instr_id: 38198771 fetched: 2 scheduled: 0 executed: 0 num_reg_dependent: 0 num_mem_ops: 0 event: 29997769
[cpu0_IFETCH] entry:  55 instr_id: 38198772 fetched: 2 scheduled: 0 executed: 0 num_reg_dependent: 0 num_mem_ops: 1 event: 29997769
[cpu0_IFETCH] entry:  56 instr_id: 38198773 fetched: 2 scheduled: 0 executed: 0 num_reg_dependent: 0 num_mem_ops: 0 event: 29997769
[cpu0_IFETCH] entry:  57 instr_id: 38198774 fetched: 2 scheduled: 0 executed: 0 num_reg_dependent: 0 num_mem_ops: 1 event: 29998937
[cpu0_IFETCH] entry:  58 instr_id: 38198775 fetched: 2 scheduled: 0 executed: 0 num_reg_dependent: 0 num_mem_ops: 0 event: 29998937
[cpu0_IFETCH] entry:  59 instr_id: 38198776 fetched: 2 scheduled: 0 executed: 0 num_reg_dependent: 0 num_mem_ops: 1 event: 29998937
[cpu0_IFETCH] entry:  60 instr_id: 38198777 fetched: 2 scheduled: 0 executed: 0 num_reg_dependent: 0 num_mem_ops: 1 event: 29998937
[cpu0_IFETCH] entry:  61 instr_id: 38198778 fetched: 2 scheduled: 0 executed: 0 num_reg_dependent: 0 num_mem_ops: 1 event: 29998937
[cpu0_IFETCH] entry:  62 instr_id: 38198779 fetched: 2 scheduled: 0 executed: 0 num_reg_dependent: 0 num_mem_ops: 1 event: 29998937
[cpu0_IFETCH] entry:  63 instr_id: 38198780 fetched: 2 scheduled: 0 executed: 0 num_reg_dependent: 0 num_mem_ops: 0 event: 29998938
[cpu0_IFETCH] entry:  64 instr_id: 38198781 fetched: 2 scheduled: 0 executed: 0 num_reg_dependent: 0 num_mem_ops: 0 event: 29998938
[cpu0_IFETCH] entry:  65 instr_id: 38198782 fetched: 2 scheduled: 0 executed: 0 num_reg_dependent: 0 num_mem_ops: 1 event: 29998938
[cpu0_IFETCH] entry:  66 instr_id: 38198783 fetched: 2 scheduled: 0 executed: 0 num_reg_dependent: 0 num_mem_ops: 0 event: 29998938
[cpu0_IFETCH] entry:  67 instr_id: 38198784 fetched: 2 scheduled: 0 executed: 0 num_reg_dependent: 0 num_mem_ops: 0 event: 29998938
[cpu0_IFETCH] entry:  68 instr_id: 38198785 fetched: 2 scheduled: 0 executed: 0 num_reg_dependent: 0 num_mem_ops: 0 event: 29998938
[cpu0_IFETCH] entry:  69 instr_id: 38198786 fetched: 2 scheduled: 0 executed: 0 num_reg_dependent: 0 num_mem_ops: 0 event: 29998939
[cpu0_IFETCH] entry:  70 instr_id: 38198787 fetched: 2 scheduled: 0 executed: 0 num_reg_dependent: 0 num_mem_ops: 0 event: 29998939
[cpu0_IFETCH] entry:  71 instr_id: 38198788 fetched: 2 scheduled: 0 executed: 0 num_reg_dependent: 0 num_mem_ops: 0 event: 29998939
[cpu0_IFETCH] entry:  72 instr_id: 38198789 fetched: 2 scheduled: 0 executed: 0 num_reg_dependent: 0 num_mem_ops: 0 event: 29998939
[cpu0_IFETCH] entry:  73 instr_id: 38198790 fetched: 2 scheduled: 0 executed: 0 num_reg_dependent: 0 num_mem_ops: 0 event: 29998939
[cpu0_IFETCH] entry:  74 instr_id: 38198791 fetched: 2 scheduled: 0 executed: 0 num_reg_dependent: 0 num_mem_ops: 0 event: 29998940
[cpu0_IFETCH] entry:  75 instr_id: 38198792 fetched: 2 scheduled: 0 executed: 0 num_reg_dependent: 0 num_mem_ops: 0 event: 29998940
[cpu0_IFETCH] entry:  76 instr_id: 38198793 fetched: 2 scheduled: 0 executed: 0 num_reg_dependent: 0 num_mem_ops: 0 event: 29998941
[cpu0_IFETCH] entry:  77 instr_id: 38198794 fetched: 2 scheduled: 0 executed: 0 num_reg_dependent: 0 num_mem_ops: 0 event: 29998941
[cpu0_IFETCH] entry:  78 instr_id: 38198795 fetched: 2 scheduled: 0 executed: 0 num_reg_dependent: 0 num_mem_ops: 0 event: 29998942
[cpu0_IFETCH] entry:  79 instr_id: 38198796 fetched: 2 scheduled: 0 executed: 0 num_reg_dependent: 0 num_mem_ops: 0 event: 29998942
[cpu0_IFETCH] entry:  80 instr_id: 38198797 fetched: 2 scheduled: 0 executed: 0 num_reg_dependent: 0 num_mem_ops: 0 event: 29998942
[cpu0_IFETCH] entry:  81 instr_id: 38198798 fetched: 2 scheduled: 0 executed: 0 num_reg_dependent: 0 num_mem_ops: 0 event: 29998942
[cpu0_IFETCH] entry:  82 instr_id: 38198799 fetched: 2 scheduled: 0 executed: 0 num_reg_dependent: 0 num_mem_ops: 1 event: 29998942
[cpu0_IFETCH] entry:  83 instr_id: 38198800 fetched: 2 scheduled: 0 executed: 0 num_reg_dependent: 0 num_mem_ops: 1 event: 29998942
[cpu0_IFETCH] entry:  84 instr_id: 38198801 fetched: 2 scheduled: 0 executed: 0 num_reg_dependent: 0 num_mem_ops: 1 event: 29998943
[cpu0_IFETCH] entry:  85 instr_id: 38198802 fetched: 2 scheduled: 0 executed: 0 num_reg_dependent: 0 num_mem_ops: 1 event: 29998943
[cpu0_IFETCH] entry:  86 instr_id: 38198803 fetched: 2 scheduled: 0 executed: 0 num_reg_dependent: 0 num_mem_ops: 0 event: 29998943
[cpu0_IFETCH] entry:  87 instr_id: 38198804 fetched: 2 scheduled: 0 executed: 0 num_reg_dependent: 0 num_mem_ops: 0 event: 29998943
[cpu0_IFETCH] entry:  88 instr_id: 38198805 fetched: 2 scheduled: 0 executed: 0 num_reg_dependent: 0 num_mem_ops: 0 event: 29998943
[cpu0_IFETCH] entry:  89 instr_id: 38198806 fetched: 2 scheduled: 0 executed: 0 num_reg_dependent: 0 num_mem_ops: 0 event: 29998943
[cpu0_IFETCH] entry:  90 instr_id: 38198807 fetched: 2 scheduled: 0 executed: 0 num_reg_dependent: 0 num_mem_ops: 0 event: 29998944
[cpu0_IFETCH] entry:  91 instr_id: 38198808 fetched: 2 scheduled: 0 executed: 0 num_reg_dependent: 0 num_mem_ops: 0 event: 29998944
[cpu0_IFETCH] entry:  92 instr_id: 38198809 fetched: 2 scheduled: 0 executed: 0 num_reg_dependent: 0 num_mem_ops: 0 event: 29998944
[cpu0_IFETCH] entry:  93 instr_id: 38198810 fetched: 2 scheduled: 0 executed: 0 num_reg_dependent: 0 num_mem_ops: 0 event: 29998944
[cpu0_IFETCH] entry:  94 instr_id: 38198811 fetched: 2 scheduled: 0 executed: 0 num_reg_dependent: 0 num_mem_ops: 0 event: 29998944
[cpu0_IFETCH] entry:  95 instr_id: 38198812 fetched: 2 scheduled: 0 executed: 0 num_reg_dependent: 0 num_mem_ops: 0 event: 29998944
[cpu0_IFETCH] entry:  96 instr_id: 38198813 fetched: 2 scheduled: 0 executed: 0 num_reg_dependent: 0 num_mem_ops: 0 event: 29998945
[cpu0_IFETCH] entry:  97 instr_id: 38198814 fetched: 2 scheduled: 0 executed: 0 num_reg_dependent: 0 num_mem_ops: 0 event: 29998945
[cpu0_IFETCH] entry:  98 instr_id: 38198815 fetched: 2 scheduled: 0 executed: 0 num_reg_dependent: 0 num_mem_ops: 0 event: 29998945
[cpu0_IFETCH] entry:  99 instr_id: 38198816 fetched: 2 scheduled: 0 executed: 0 num_reg_dependent: 0 num_mem_ops: 0 event: 29998945
[cpu0_IFETCH] entry: 100 instr_id: 38198817 fetched: 2 scheduled: 0 executed: 0 num_reg_dependent: 0 num_mem_ops: 0 event: 29998945
[cpu0_IFETCH] entry: 101 instr_id: 38198818 fetched: 2 scheduled: 0 executed: 0 num_reg_dependent: 0 num_mem_ops: 0 event: 29998945
[cpu0_IFETCH] entry: 102 instr_id: 38198819 fetched: 2 scheduled: 0 executed: 0 num_reg_dependent: 0 num_mem_ops: 1 event: 29998946
[cpu0_IFETCH] entry: 103 instr_id: 38198820 fetched: 2 scheduled: 0 executed: 0 num_reg_dependent: 0 num_mem_ops: 1 event: 29998946
[cpu0_IFETCH] entry: 104 instr_id: 38198821 fetched: 2 scheduled: 0 executed: 0 num_reg_dependent: 0 num_mem_ops: 1 event: 29998946
[cpu0_IFETCH] entry: 105 instr_id: 38198822 fetched: 2 scheduled: 0 executed: 0 num_reg_dependent: 0 num_mem_ops: 1 event: 29998946
[cpu0_IFETCH] entry: 106 instr_id: 38198823 fetched: 2 scheduled: 0 executed: 0 num_reg_dependent: 0 num_mem_ops: 0 event: 29998946
[cpu0_IFETCH] entry: 107 instr_id: 38198824 fetched: 2 scheduled: 0 executed: 0 num_reg_dependent: 0 num_mem_ops: 0 event: 29998946
[cpu0_IFETCH] entry: 108 instr_id: 38198825 fetched: 2 scheduled: 0 executed: 0 num_reg_dependent: 0 num_mem_ops: 0 event: 29998947
[cpu0_IFETCH] entry: 109 instr_id: 38198826 fetched: 2 scheduled: 0 executed: 0 num_reg_dependent: 0 num_mem_ops: 0 event: 29998947
[cpu0_IFETCH] entry: 110 instr_id: 38198827 fetched: 2 scheduled: 0 executed: 0 num_reg_dependent: 0 num_mem_ops: 0 event: 29998947
[cpu0_IFETCH] entry: 111 instr_id: 38198828 fetched: 2 scheduled: 0 executed: 0 num_reg_dependent: 0 num_mem_ops: 0 event: 29998947
[cpu0_IFETCH] entry: 112 instr_id: 38198829 fetched: 2 scheduled: 0 executed: 0 num_reg_dependent: 0 num_mem_ops: 0 event: 29998947
[cpu0_IFETCH] entry: 113 instr_id: 38198830 fetched: 2 scheduled: 0 executed: 0 num_reg_dependent: 0 num_mem_ops: 0 event: 29998947
[cpu0_IFETCH] entry: 114 instr_id: 38198831 fetched: 2 scheduled: 0 executed: 0 num_reg_dependent: 0 num_mem_ops: 0 event: 29998948
[cpu0_IFETCH] entry: 115 instr_id: 38198832 fetched: 2 scheduled: 0 executed: 0 num_reg_dependent: 0 num_mem_ops: 0 event: 29998948
[cpu0_IFETCH] entry: 116 instr_id: 38198833 fetched: 2 scheduled: 0 executed: 0 num_reg_dependent: 0 num_mem_ops: 0 event: 29998948
[cpu0_IFETCH] entry: 117 instr_id: 38198834 fetched: 2 scheduled: 0 executed: 0 num_reg_dependent: 0 num_mem_ops: 0 event: 29998948
[cpu0_IFETCH] entry: 118 instr_id: 38198835 fetched: 2 scheduled: 0 executed: 0 num_reg_dependent: 0 num_mem_ops: 0 event: 29998948
[cpu0_IFETCH] entry: 119 instr_id: 38198836 fetched: 2 scheduled: 0 executed: 0 num_reg_dependent: 0 num_mem_ops: 0 event: 29998948
[cpu0_IFETCH] entry: 120 instr_id: 38198837 fetched: 2 scheduled: 0 executed: 0 num_reg_dependent: 0 num_mem_ops: 0 event: 29998949
[cpu0_IFETCH] entry: 121 instr_id: 38198838 fetched: 2 scheduled: 0 executed: 0 num_reg_dependent: 0 num_mem_ops: 0 event: 29998949
[cpu0_IFETCH] entry: 122 instr_id: 38198839 fetched: 2 scheduled: 0 executed: 0 num_reg_dependent: 0 num_mem_ops: 0 event: 29998949
[cpu0_IFETCH] entry: 123 instr_id: 38198840 fetched: 2 scheduled: 0 executed: 0 num_reg_dependent: 0 num_mem_ops: 1 event: 29998949
[cpu0_IFETCH] entry: 124 instr_id: 38198841 fetched: 2 scheduled: 0 executed: 0 num_reg_dependent: 0 num_mem_ops: 0 event: 29998949
[cpu0_IFETCH] entry: 125 instr_id: 38198842 fetched: 2 scheduled: 0 executed: 0 num_reg_dependent: 0 num_mem_ops: 1 event: 29998950
[cpu0_IFETCH] entry: 126 instr_id: 38198843 fetched: 2 scheduled: 0 executed: 0 num_reg_dependent: 0 num_mem_ops: 0 event: 29998950
[cpu0_IFETCH] entry: 127 instr_id: 38198844 fetched: 2 scheduled: 0 executed: 0 num_reg_dependent: 0 num_mem_ops: 1 event: 29998950
[cpu0_IFETCH] entry: 128 instr_id: 38198845 fetched: 2 scheduled: 0 executed: 0 num_reg_dependent: 0 num_mem_ops: 1 event: 29998950
[cpu0_IFETCH] entry: 129 instr_id: 38198846 fetched: 2 scheduled: 0 executed: 0 num_reg_dependent: 0 num_mem_ops: 1 event: 29998950
[cpu0_IFETCH] entry: 130 instr_id: 38198847 fetched: 2 scheduled: 0 executed: 0 num_reg_dependent: 0 num_mem_ops: 1 event: 29998950
[cpu0_IFETCH] entry: 131 instr_id: 38198848 fetched: 2 scheduled: 0 executed: 0 num_reg_dependent: 0 num_mem_ops: 0 event: 29998950
[cpu0_IFETCH] entry: 132 instr_id: 38198849 fetched: 2 scheduled: 0 executed: 0 num_reg_dependent: 0 num_mem_ops: 0 event: 29998951
[cpu0_IFETCH] entry: 133 instr_id: 38198850 fetched: 2 scheduled: 0 executed: 0 num_reg_dependent: 0 num_mem_ops: 1 event: 29998951
[cpu0_IFETCH] entry: 134 instr_id: 38198851 fetched: 2 scheduled: 0 executed: 0 num_reg_dependent: 0 num_mem_ops: 0 event: 29998951
[cpu0_IFETCH] entry: 135 instr_id: 38198852 fetched: 2 scheduled: 0 executed: 0 num_reg_dependent: 0 num_mem_ops: 0 event: 29998951
[cpu0_IFETCH] entry: 136 instr_id: 38198853 fetched: 2 scheduled: 0 executed: 0 num_reg_dependent: 0 num_mem_ops: 0 event: 29998951
[cpu0_IFETCH] entry: 137 instr_id: 38198854 fetched: 2 scheduled: 0 executed: 0 num_reg_dependent: 0 num_mem_ops: 0 event: 29998951
[cpu0_IFETCH] entry: 138 instr_id: 38198855 fetched: 2 scheduled: 0 executed: 0 num_reg_dependent: 0 num_mem_ops: 0 event: 29998952
[cpu0_IFETCH] entry: 139 instr_id: 38198856 fetched: 2 scheduled: 0 executed: 0 num_reg_dependent: 0 num_mem_ops: 0 event: 29998952
[cpu0_IFETCH] entry: 140 instr_id: 38198857 fetched: 2 scheduled: 0 executed: 0 num_reg_dependent: 0 num_mem_ops: 0 event: 29998952
[cpu0_IFETCH] entry: 141 instr_id: 38198858 fetched: 2 scheduled: 0 executed: 0 num_reg_dependent: 0 num_mem_ops: 0 event: 29998952
[cpu0_IFETCH] entry: 142 instr_id: 38198859 fetched: 2 scheduled: 0 executed: 0 num_reg_dependent: 0 num_mem_ops: 0 event: 29998952
[cpu0_IFETCH] entry: 143 instr_id: 38198860 fetched: 2 scheduled: 0 executed: 0 num_reg_dependent: 0 num_mem_ops: 0 event: 29998952
[cpu0_IFETCH] entry: 144 instr_id: 38198861 fetched: 2 scheduled: 0 executed: 0 num_reg_dependent: 0 num_mem_ops: 0 event: 29998953
[cpu0_IFETCH] entry: 145 instr_id: 38198862 fetched: 2 scheduled: 0 executed: 0 num_reg_dependent: 0 num_mem_ops: 0 event: 29998953
[cpu0_IFETCH] entry: 146 instr_id: 38198863 fetched: 2 scheduled: 0 executed: 0 num_reg_dependent: 0 num_mem_ops: 0 event: 29998953
[cpu0_IFETCH] entry: 147 instr_id: 38198864 fetched: 2 scheduled: 0 executed: 0 num_reg_dependent: 0 num_mem_ops: 0 event: 29998953
[cpu0_IFETCH] entry: 148 instr_id: 38198865 fetched: 2 scheduled: 0 executed: 0 num_reg_dependent: 0 num_mem_ops: 0 event: 29998953
[cpu0_IFETCH] entry: 149 instr_id: 38198866 fetched: 2 scheduled: 0 executed: 0 num_reg_dependent: 0 num_mem_ops: 0 event: 29998953
[cpu0_IFETCH] entry: 150 instr_id: 38198867 fetched: 2 scheduled: 0 executed: 0 num_reg_dependent: 0 num_mem_ops: 1 event: 29998954
[cpu0_IFETCH] entry: 151 instr_id: 38198868 fetched: 2 scheduled: 0 executed: 0 num_reg_dependent: 0 num_mem_ops: 1 event: 29998954
[cpu0_IFETCH] entry: 152 instr_id: 38198869 fetched: 2 scheduled: 0 executed: 0 num_reg_dependent: 0 num_mem_ops: 1 event: 29998954
[cpu0_IFETCH] entry: 153 instr_id: 38198870 fetched: 2 scheduled: 0 executed: 0 num_reg_dependent: 0 num_mem_ops: 1 event: 29998954
[cpu0_IFETCH] entry: 154 instr_id: 38198871 fetched: 2 scheduled: 0 executed: 0 num_reg_dependent: 0 num_mem_ops: 0 event: 29998954
[cpu0_IFETCH] entry: 155 instr_id: 38198872 fetched: 2 scheduled: 0 executed: 0 num_reg_dependent: 0 num_mem_ops: 0 event: 29998954
[cpu0_IFETCH] entry: 156 instr_id: 38198873 fetched: 2 scheduled: 0 executed: 0 num_reg_dependent: 0 num_mem_ops: 0 event: 29998955
[cpu0_IFETCH] entry: 157 instr_id: 38198874 fetched: 2 scheduled: 0 executed: 0 num_reg_dependent: 0 num_mem_ops: 0 event: 29998955
[cpu0_IFETCH] entry: 158 instr_id: 38198875 fetched: 2 scheduled: 0 executed: 0 num_reg_dependent: 0 num_mem_ops: 0 event: 29998955
[cpu0_IFETCH] entry: 159 instr_id: 38198876 fetched: 2 scheduled: 0 executed: 0 num_reg_dependent: 0 num_mem_ops: 0 event: 29998955
[cpu0_IFETCH] entry: 160 instr_id: 38198877 fetched: 2 scheduled: 0 executed: 0 num_reg_dependent: 0 num_mem_ops: 0 event: 29998955
[cpu0_IFETCH] entry: 161 instr_id: 38198878 fetched: 2 scheduled: 0 executed: 0 num_reg_dependent: 0 num_mem_ops: 0 event: 29998955
[cpu0_IFETCH] entry: 162 instr_id: 38198879 fetched: 2 scheduled: 0 executed: 0 num_reg_dependent: 0 num_mem_ops: 0 event: 29998956
[cpu0_IFETCH] entry: 163 instr_id: 38198880 fetched: 2 scheduled: 0 executed: 0 num_reg_dependent: 0 num_mem_ops: 0 event: 29998956
[cpu0_IFETCH] entry: 164 instr_id: 38198881 fetched: 2 scheduled: 0 executed: 0 num_reg_dependent: 0 num_mem_ops: 0 event: 29998956
[cpu0_IFETCH] entry: 165 instr_id: 38198882 fetched: 2 scheduled: 0 executed: 0 num_reg_dependent: 0 num_mem_ops: 0 event: 29998956
[cpu0_IFETCH] entry: 166 instr_id: 38198883 fetched: 2 scheduled: 0 executed: 0 num_reg_dependent: 0 num_mem_ops: 0 event: 29998956
[cpu0_IFETCH] entry: 167 instr_id: 38198884 fetched: 2 scheduled: 0 executed: 0 num_reg_dependent: 0 num_mem_ops: 0 event: 29998956
[cpu0_IFETCH] entry: 168 instr_id: 38198885 fetched: 2 scheduled: 0 executed: 0 num_reg_dependent: 0 num_mem_ops: 0 event: 29998957
[cpu0_IFETCH] entry: 169 instr_id: 38198886 fetched: 2 scheduled: 0 executed: 0 num_reg_dependent: 0 num_mem_ops: 0 event: 29998957
[cpu0_IFETCH] entry: 170 instr_id: 38198887 fetched: 2 scheduled: 0 executed: 0 num_reg_dependent: 0 num_mem_ops: 1 event: 29998957
[cpu0_IFETCH] entry: 171 instr_id: 38198888 fetched: 2 scheduled: 0 executed: 0 num_reg_dependent: 0 num_mem_ops: 1 event: 29998957
[cpu0_IFETCH] entry: 172 instr_id: 38198889 fetched: 2 scheduled: 0 executed: 0 num_reg_dependent: 0 num_mem_ops: 1 event: 29998957
[cpu0_IFETCH] entry: 173 instr_id: 38198890 fetched: 2 scheduled: 0 executed: 0 num_reg_dependent: 0 num_mem_ops: 1 event: 29998957
[cpu0_IFETCH] entry: 174 instr_id: 38198891 fetched: 2 scheduled: 0 executed: 0 num_reg_dependent: 0 num_mem_ops: 0 event: 29998958
[cpu0_IFETCH] entry: 175 instr_id: 38198892 fetched: 2 scheduled: 0 executed: 0 num_reg_dependent: 0 num_mem_ops: 0 event: 29998958
[cpu0_IFETCH] entry: 176 instr_id: 38198893 fetched: 2 scheduled: 0 executed: 0 num_reg_dependent: 0 num_mem_ops: 0 event: 29998958
[cpu0_IFETCH] entry: 177 instr_id: 38198894 fetched: 2 scheduled: 0 executed: 0 num_reg_dependent: 0 num_mem_ops: 0 event: 29998958
[cpu0_IFETCH] entry: 178 instr_id: 38198895 fetched: 2 scheduled: 0 executed: 0 num_reg_dependent: 0 num_mem_ops: 0 event: 29998958
[cpu0_IFETCH] entry: 179 instr_id: 38198896 fetched: 2 scheduled: 0 executed: 0 num_reg_dependent: 0 num_mem_ops: 0 event: 29998958
[cpu0_IFETCH] entry: 180 instr_id: 38198897 fetched: 2 scheduled: 0 executed: 0 num_reg_dependent: 0 num_mem_ops: 0 event: 29998959
[cpu0_IFETCH] entry: 181 instr_id: 38198898 fetched: 2 scheduled: 0 executed: 0 num_reg_dependent: 0 num_mem_ops: 0 event: 29998959
[cpu0_IFETCH] entry: 182 instr_id: 38198899 fetched: 2 scheduled: 0 executed: 0 num_reg_dependent: 0 num_mem_ops: 0 event: 29998959
[cpu0_IFETCH] entry: 183 instr_id: 38198900 fetched: 2 scheduled: 0 executed: 0 num_reg_dependent: 0 num_mem_ops: 0 event: 29998959
[cpu0_IFETCH] entry: 184 instr_id: 38198901 fetched: 2 scheduled: 0 executed: 0 num_reg_dependent: 0 num_mem_ops: 0 event: 29998959
[cpu0_IFETCH] entry: 185 instr_id: 38198902 fetched: 2 scheduled: 0 executed: 0 num_reg_dependent: 0 num_mem_ops: 0 event: 29998959
[cpu0_IFETCH] entry: 186 instr_id: 38198903 fetched: 2 scheduled: 0 executed: 0 num_reg_dependent: 0 num_mem_ops: 0 event: 29998960
[cpu0_IFETCH] entry: 187 instr_id: 38198904 fetched: 2 scheduled: 0 executed: 0 num_reg_dependent: 0 num_mem_ops: 0 event: 29998960
[cpu0_IFETCH] entry: 188 instr_id: 38198905 fetched: 2 scheduled: 0 executed: 0 num_reg_dependent: 0 num_mem_ops: 0 event: 29998960
[cpu0_IFETCH] entry: 189 instr_id: 38198906 fetched: 2 scheduled: 0 executed: 0 num_reg_dependent: 0 num_mem_ops: 0 event: 29998960
[cpu0_IFETCH] entry: 190 instr_id: 38198907 fetched: 2 scheduled: 0 executed: 0 num_reg_dependent: 0 num_mem_ops: 0 event: 29998960
[cpu0_IFETCH] entry: 191 instr_id: 38198908 fetched: 2 scheduled: 0 executed: 0 num_reg_dependent: 0 num_mem_ops: 1 event: 29998960

[cpu0_DECODE] entry:   0 instr_id: 38198573 fetched: 2 scheduled: 0 executed: 0 num_reg_dependent: 0 num_mem_ops: 1 event: 29997767
[cpu0_DECODE] entry:   1 instr_id: 38198574 fetched: 2 scheduled: 0 executed: 0 num_reg_dependent: 0 num_mem_ops: 1 event: 29997767
[cpu0_DECODE] entry:   2 instr_id: 38198575 fetched: 2 scheduled: 0 executed: 0 num_reg_dependent: 0 num_mem_ops: 1 event: 29997767
[cpu0_DECODE] entry:   3 instr_id: 38198576 fetched: 2 scheduled: 0 executed: 0 num_reg_dependent: 0 num_mem_ops: 0 event: 29997767
[cpu0_DECODE] entry:   4 instr_id: 38198577 fetched: 2 scheduled: 0 executed: 0 num_reg_dependent: 0 num_mem_ops: 0 event: 29997768
[cpu0_DECODE] entry:   5 instr_id: 38198578 fetched: 2 scheduled: 0 executed: 0 num_reg_dependent: 0 num_mem_ops: 1 event: 29997768
[cpu0_DECODE] entry:   6 instr_id: 38198579 fetched: 2 scheduled: 0 executed: 0 num_reg_dependent: 0 num_mem_ops: 0 event: 29997768
[cpu0_DECODE] entry:   7 instr_id: 38198580 fetched: 2 scheduled: 0 executed: 0 num_reg_dependent: 0 num_mem_ops: 0 event: 29997768
[cpu0_DECODE] entry:   8 instr_id: 38198581 fetched: 2 scheduled: 0 executed: 0 num_reg_dependent: 0 num_mem_ops: 0 event: 29997768
[cpu0_DECODE] entry:   9 instr_id: 38198582 fetched: 2 scheduled: 0 executed: 0 num_reg_dependent: 0 num_mem_ops: 0 event: 29998936
[cpu0_DECODE] entry:  10 instr_id: 38198583 fetched: 2 scheduled: 0 executed: 0 num_reg_dependent: 0 num_mem_ops: 0 event: 29998936
[cpu0_DECODE] entry:  11 instr_id: 38198584 fetched: 2 scheduled: 0 executed: 0 num_reg_dependent: 0 num_mem_ops: 0 event: 29998936
[cpu0_DECODE] entry:  12 instr_id: 38198585 fetched: 2 scheduled: 0 executed: 0 num_reg_dependent: 0 num_mem_ops: 0 event: 29998936
[cpu0_DECODE] entry:  13 instr_id: 38198586 fetched: 2 scheduled: 0 executed: 0 num_reg_dependent: 0 num_mem_ops: 0 event: 29998936
[cpu0_DECODE] entry:  14 instr_id: 38198587 fetched: 2 scheduled: 0 executed: 0 num_reg_dependent: 0 num_mem_ops: 0 event: 29998936
[cpu0_DECODE] entry:  15 instr_id: 38198588 fetched: 2 scheduled: 0 executed: 0 num_reg_dependent: 0 num_mem_ops: 0 event: 29998937
[cpu0_DECODE] entry:  16 instr_id: 38198589 fetched: 2 scheduled: 0 executed: 0 num_reg_dependent: 0 num_mem_ops: 0 event: 29998937
[cpu0_DECODE] entry:  17 instr_id: 38198590 fetched: 2 scheduled: 0 executed: 0 num_reg_dependent: 0 num_mem_ops: 0 event: 29998937
[cpu0_DECODE] entry:  18 instr_id: 38198591 fetched: 2 scheduled: 0 executed: 0 num_reg_dependent: 0 num_mem_ops: 0 event: 29998937
[cpu0_DECODE] entry:  19 instr_id: 38198592 fetched: 2 scheduled: 0 executed: 0 num_reg_dependent: 0 num_mem_ops: 0 event: 29998937
[cpu0_DECODE] entry:  20 instr_id: 38198593 fetched: 2 scheduled: 0 executed: 0 num_reg_dependent: 0 num_mem_ops: 0 event: 29998937
[cpu0_DECODE] entry:  21 instr_id: 38198594 fetched: 2 scheduled: 0 executed: 0 num_reg_dependent: 0 num_mem_ops: 0 event: 29998938
[cpu0_DECODE] entry:  22 instr_id: 38198595 fetched: 2 scheduled: 0 executed: 0 num_reg_dependent: 0 num_mem_ops: 1 event: 29998938
[cpu0_DECODE] entry:  23 instr_id: 38198596 fetched: 2 scheduled: 0 executed: 0 num_reg_dependent: 0 num_mem_ops: 1 event: 29998938
[cpu0_DECODE] entry:  24 instr_id: 38198597 fetched: 2 scheduled: 0 executed: 0 num_reg_dependent: 0 num_mem_ops: 1 event: 29998938
[cpu0_DECODE] entry:  25 instr_id: 38198598 fetched: 2 scheduled: 0 executed: 0 num_reg_dependent: 0 num_mem_ops: 1 event: 29998938
[cpu0_DECODE] entry:  26 instr_id: 38198599 fetched: 2 scheduled: 0 executed: 0 num_reg_dependent: 0 num_mem_ops: 0 event: 29998939
[cpu0_DECODE] entry:  27 instr_id: 38198600 fetched: 2 scheduled: 0 executed: 0 num_reg_dependent: 0 num_mem_ops: 0 event: 29998939
[cpu0_DECODE] entry:  28 instr_id: 38198601 fetched: 2 scheduled: 0 executed: 0 num_reg_dependent: 0 num_mem_ops: 0 event: 29998940
[cpu0_DECODE] entry:  29 instr_id: 38198602 fetched: 2 scheduled: 0 executed: 0 num_reg_dependent: 0 num_mem_ops: 0 event: 29998940
[cpu0_DECODE] entry:  30 instr_id: 38198603 fetched: 2 scheduled: 0 executed: 0 num_reg_dependent: 0 num_mem_ops: 0 event: 29998941
[cpu0_DECODE] entry:  31 instr_id: 38198604 fetched: 2 scheduled: 0 executed: 0 num_reg_dependent: 0 num_mem_ops: 0 event: 29998941
[cpu0_DECODE] entry:  32 instr_id: 38198605 fetched: 2 scheduled: 0 executed: 0 num_reg_dependent: 0 num_mem_ops: 0 event: 29998941
[cpu0_DECODE] entry:  33 instr_id: 38198606 fetched: 2 scheduled: 0 executed: 0 num_reg_dependent: 0 num_mem_ops: 0 event: 29998941
[cpu0_DECODE] entry:  34 instr_id: 38198607 fetched: 2 scheduled: 0 executed: 0 num_reg_dependent: 0 num_mem_ops: 0 event: 29998941
[cpu0_DECODE] entry:  35 instr_id: 38198608 fetched: 2 scheduled: 0 executed: 0 num_reg_dependent: 0 num_mem_ops: 0 event: 29998941
[cpu0_DECODE] entry:  36 instr_id: 38198609 fetched: 2 scheduled: 0 executed: 0 num_reg_dependent: 0 num_mem_ops: 0 event: 29998942
[cpu0_DECODE] entry:  37 instr_id: 38198610 fetched: 2 scheduled: 0 executed: 0 num_reg_dependent: 0 num_mem_ops: 0 event: 29998942
[cpu0_DECODE] entry:  38 instr_id: 38198611 fetched: 2 scheduled: 0 executed: 0 num_reg_dependent: 0 num_mem_ops: 0 event: 29998942
[cpu0_DECODE] entry:  39 instr_id: 38198612 fetched: 2 scheduled: 0 executed: 0 num_reg_dependent: 0 num_mem_ops: 0 event: 29998942
[cpu0_DECODE] entry:  40 instr_id: 38198613 fetched: 2 scheduled: 0 executed: 0 num_reg_dependent: 0 num_mem_ops: 0 event: 29998942
[cpu0_DECODE] entry:  41 instr_id: 38198614 fetched: 2 scheduled: 0 executed: 0 num_reg_dependent: 0 num_mem_ops: 0 event: 29998942
[cpu0_DECODE] entry:  42 instr_id: 38198615 fetched: 2 scheduled: 0 executed: 0 num_reg_dependent: 0 num_mem_ops: 1 event: 29998943
[cpu0_DECODE] entry:  43 instr_id: 38198616 fetched: 2 scheduled: 0 executed: 0 num_reg_dependent: 0 num_mem_ops: 1 event: 29998943
[cpu0_DECODE] entry:  44 instr_id: 38198617 fetched: 2 scheduled: 0 executed: 0 num_reg_dependent: 0 num_mem_ops: 1 event: 29998943
[cpu0_DECODE] entry:  45 instr_id: 38198618 fetched: 2 scheduled: 0 executed: 0 num_reg_dependent: 0 num_mem_ops: 1 event: 29998943
[cpu0_DECODE] entry:  46 instr_id: 38198619 fetched: 2 scheduled: 0 executed: 0 num_reg_dependent: 0 num_mem_ops: 0 event: 29998943
[cpu0_DECODE] entry:  47 instr_id: 38198620 fetched: 2 scheduled: 0 executed: 0 num_reg_dependent: 0 num_mem_ops: 0 event: 29998943
[cpu0_DECODE] entry:  48 instr_id: 38198621 fetched: 2 scheduled: 0 executed: 0 num_reg_dependent: 0 num_mem_ops: 0 event: 29998944
[cpu0_DECODE] entry:  49 instr_id: 38198622 fetched: 2 scheduled: 0 executed: 0 num_reg_dependent: 0 num_mem_ops: 0 event: 29998944
[cpu0_DECODE] entry:  50 instr_id: 38198623 fetched: 2 scheduled: 0 executed: 0 num_reg_dependent: 0 num_mem_ops: 0 event: 29998944
[cpu0_DECODE] entry:  51 instr_id: 38198624 fetched: 2 scheduled: 0 executed: 0 num_reg_dependent: 0 num_mem_ops: 0 event: 29998944
[cpu0_DECODE] entry:  52 instr_id: 38198625 fetched: 2 scheduled: 0 executed: 0 num_reg_dependent: 0 num_mem_ops: 0 event: 29998944
[cpu0_DECODE] entry:  53 instr_id: 38198626 fetched: 2 scheduled: 0 executed: 0 num_reg_dependent: 0 num_mem_ops: 0 event: 29998944
[cpu0_DECODE] entry:  54 instr_id: 38198627 fetched: 2 scheduled: 0 executed: 0 num_reg_dependent: 0 num_mem_ops: 0 event: 29998945
[cpu0_DECODE] entry:  55 instr_id: 38198628 fetched: 2 scheduled: 0 executed: 0 num_reg_dependent: 0 num_mem_ops: 0 event: 29998945
[cpu0_DECODE] entry:  56 instr_id: 38198629 fetched: 2 scheduled: 0 executed: 0 num_reg_dependent: 0 num_mem_ops: 0 event: 29998945
[cpu0_DECODE] entry:  57 instr_id: 38198630 fetched: 2 scheduled: 0 executed: 0 num_reg_dependent: 0 num_mem_ops: 0 event: 29998945
[cpu0_DECODE] entry:  58 instr_id: 38198631 fetched: 2 scheduled: 0 executed: 0 num_reg_dependent: 0 num_mem_ops: 0 event: 29998945
[cpu0_DECODE] entry:  59 instr_id: 38198632 fetched: 2 scheduled: 0 executed: 0 num_reg_dependent: 0 num_mem_ops: 0 event: 29998945
[cpu0_DECODE] entry:  60 instr_id: 38198633 fetched: 2 scheduled: 0 executed: 0 num_reg_dependent: 0 num_mem_ops: 0 event: 29998946
[cpu0_DECODE] entry:  61 instr_id: 38198634 fetched: 2 scheduled: 0 executed: 0 num_reg_dependent: 0 num_mem_ops: 0 event: 29998946
[cpu0_DECODE] entry:  62 instr_id: 38198635 fetched: 2 scheduled: 0 executed: 0 num_reg_dependent: 0 num_mem_ops: 0 event: 29998946
[cpu0_DECODE] entry:  63 instr_id: 38198636 fetched: 2 scheduled: 0 executed: 0 num_reg_dependent: 0 num_mem_ops: 1 event: 29998946
[cpu0_DECODE] entry:  64 instr_id: 38198637 fetched: 2 scheduled: 0 executed: 0 num_reg_dependent: 0 num_mem_ops: 0 event: 29998946
[cpu0_DECODE] entry:  65 instr_id: 38198638 fetched: 2 scheduled: 0 executed: 0 num_reg_dependent: 0 num_mem_ops: 1 event: 29998946
[cpu0_DECODE] entry:  66 instr_id: 38198639 fetched: 2 scheduled: 0 executed: 0 num_reg_dependent: 0 num_mem_ops: 0 event: 29998947
[cpu0_DECODE] entry:  67 instr_id: 38198640 fetched: 2 scheduled: 0 executed: 0 num_reg_dependent: 0 num_mem_ops: 1 event: 29998947
[cpu0_DECODE] entry:  68 instr_id: 38198641 fetched: 2 scheduled: 0 executed: 0 num_reg_dependent: 0 num_mem_ops: 1 event: 29998947
[cpu0_DECODE] entry:  69 instr_id: 38198642 fetched: 2 scheduled: 0 executed: 0 num_reg_dependent: 0 num_mem_ops: 1 event: 29998947
[cpu0_DECODE] entry:  70 instr_id: 38198643 fetched: 2 scheduled: 0 executed: 0 num_reg_dependent: 0 num_mem_ops: 1 event: 29998947
[cpu0_DECODE] entry:  71 instr_id: 38198644 fetched: 2 scheduled: 0 executed: 0 num_reg_dependent: 0 num_mem_ops: 0 event: 29998947
[cpu0_DECODE] entry:  72 instr_id: 38198645 fetched: 2 scheduled: 0 executed: 0 num_reg_dependent: 0 num_mem_ops: 0 event: 29998948
[cpu0_DECODE] entry:  73 instr_id: 38198646 fetched: 2 scheduled: 0 executed: 0 num_reg_dependent: 0 num_mem_ops: 1 event: 29998948
[cpu0_DECODE] entry:  74 instr_id: 38198647 fetched: 2 scheduled: 0 executed: 0 num_reg_dependent: 0 num_mem_ops: 0 event: 29998948
[cpu0_DECODE] entry:  75 instr_id: 38198648 fetched: 2 scheduled: 0 executed: 0 num_reg_dependent: 0 num_mem_ops: 0 event: 29998948
[cpu0_DECODE] entry:  76 instr_id: 38198649 fetched: 2 scheduled: 0 executed: 0 num_reg_dependent: 0 num_mem_ops: 0 event: 29998948
[cpu0_DECODE] entry:  77 instr_id: 38198650 fetched: 2 scheduled: 0 executed: 0 num_reg_dependent: 0 num_mem_ops: 0 event: 29998948
[cpu0_DECODE] entry:  78 instr_id: 38198651 fetched: 2 scheduled: 0 executed: 0 num_reg_dependent: 0 num_mem_ops: 0 event: 29998949
[cpu0_DECODE] entry:  79 instr_id: 38198652 fetched: 2 scheduled: 0 executed: 0 num_reg_dependent: 0 num_mem_ops: 0 event: 29998949
[cpu0_DECODE] entry:  80 instr_id: 38198653 fetched: 2 scheduled: 0 executed: 0 num_reg_dependent: 0 num_mem_ops: 0 event: 29998949
[cpu0_DECODE] entry:  81 instr_id: 38198654 fetched: 2 scheduled: 0 executed: 0 num_reg_dependent: 0 num_mem_ops: 0 event: 29998949
[cpu0_DECODE] entry:  82 instr_id: 38198655 fetched: 2 scheduled: 0 executed: 0 num_reg_dependent: 0 num_mem_ops: 0 event: 29998949
[cpu0_DECODE] entry:  83 instr_id: 38198656 fetched: 2 scheduled: 0 executed: 0 num_reg_dependent: 0 num_mem_ops: 0 event: 29998949
[cpu0_DECODE] entry:  84 instr_id: 38198657 fetched: 2 scheduled: 0 executed: 0 num_reg_dependent: 0 num_mem_ops: 0 event: 29998950
[cpu0_DECODE] entry:  85 instr_id: 38198658 fetched: 2 scheduled: 0 executed: 0 num_reg_dependent: 0 num_mem_ops: 0 event: 29998950
[cpu0_DECODE] entry:  86 instr_id: 38198659 fetched: 2 scheduled: 0 executed: 0 num_reg_dependent: 0 num_mem_ops: 0 event: 29998950
[cpu0_DECODE] entry:  87 instr_id: 38198660 fetched: 2 scheduled: 0 executed: 0 num_reg_dependent: 0 num_mem_ops: 0 event: 29998950
[cpu0_DECODE] entry:  88 instr_id: 38198661 fetched: 2 scheduled: 0 executed: 0 num_reg_dependent: 0 num_mem_ops: 0 event: 29998950
[cpu0_DECODE] entry:  89 instr_id: 38198662 fetched: 2 scheduled: 0 executed: 0 num_reg_dependent: 0 num_mem_ops: 0 event: 29998950
[cpu0_DECODE] entry:  90 instr_id: 38198663 fetched: 2 scheduled: 0 executed: 0 num_reg_dependent: 0 num_mem_ops: 1 event: 29998951
[cpu0_DECODE] entry:  91 instr_id: 38198664 fetched: 2 scheduled: 0 executed: 0 num_reg_dependent: 0 num_mem_ops: 1 event: 29998951
[cpu0_DECODE] entry:  92 instr_id: 38198665 fetched: 2 scheduled: 0 executed: 0 num_reg_dependent: 0 num_mem_ops: 1 event: 29998951
[cpu0_DECODE] entry:  93 instr_id: 38198666 fetched: 2 scheduled: 0 executed: 0 num_reg_dependent: 0 num_mem_ops: 1 event: 29998951
[cpu0_DECODE] entry:  94 instr_id: 38198667 fetched: 2 scheduled: 0 executed: 0 num_reg_dependent: 0 num_mem_ops: 0 event: 29998951
[cpu0_DECODE] entry:  95 instr_id: 38198668 fetched: 2 scheduled: 0 executed: 0 num_reg_dependent: 0 num_mem_ops: 0 event: 29998951
[cpu0_DECODE] entry:  96 instr_id: 38198669 fetched: 2 scheduled: 0 executed: 0 num_reg_dependent: 0 num_mem_ops: 0 event: 29998952
[cpu0_DECODE] entry:  97 instr_id: 38198670 fetched: 2 scheduled: 0 executed: 0 num_reg_dependent: 0 num_mem_ops: 0 event: 29998952
[cpu0_DECODE] entry:  98 instr_id: 38198671 fetched: 2 scheduled: 0 executed: 0 num_reg_dependent: 0 num_mem_ops: 0 event: 29998952
[cpu0_DECODE] entry:  99 instr_id: 38198672 fetched: 2 scheduled: 0 executed: 0 num_reg_dependent: 0 num_mem_ops: 0 event: 29998952
[cpu0_DECODE] entry: 100 instr_id: 38198673 fetched: 2 scheduled: 0 executed: 0 num_reg_dependent: 0 num_mem_ops: 0 event: 29998952
[cpu0_DECODE] entry: 101 instr_id: 38198674 fetched: 2 scheduled: 0 executed: 0 num_reg_dependent: 0 num_mem_ops: 0 event: 29998952
[cpu0_DECODE] entry: 102 instr_id: 38198675 fetched: 2 scheduled: 0 executed: 0 num_reg_dependent: 0 num_mem_ops: 0 event: 29998953
[cpu0_DECODE] entry: 103 instr_id: 38198676 fetched: 2 scheduled: 0 executed: 0 num_reg_dependent: 0 num_mem_ops: 0 event: 29998953
[cpu0_DECODE] entry: 104 instr_id: 38198677 fetched: 2 scheduled: 0 executed: 0 num_reg_dependent: 0 num_mem_ops: 0 event: 29998953
[cpu0_DECODE] entry: 105 instr_id: 38198678 fetched: 2 scheduled: 0 executed: 0 num_reg_dependent: 0 num_mem_ops: 0 event: 29998953
[cpu0_DECODE] entry: 106 instr_id: 38198679 fetched: 2 scheduled: 0 executed: 0 num_reg_dependent: 0 num_mem_ops: 0 event: 29998953
[cpu0_DECODE] entry: 107 instr_id: 38198680 fetched: 2 scheduled: 0 executed: 0 num_reg_dependent: 0 num_mem_ops: 0 event: 29998953
[cpu0_DECODE] entry: 108 instr_id: 38198681 fetched: 2 scheduled: 0 executed: 0 num_reg_dependent: 0 num_mem_ops: 0 event: 29998954
[cpu0_DECODE] entry: 109 instr_id: 38198682 fetched: 2 scheduled: 0 executed: 0 num_reg_dependent: 0 num_mem_ops: 0 event: 29998954
[cpu0_DECODE] entry: 110 instr_id: 38198683 fetched: 2 scheduled: 0 executed: 0 num_reg_dependent: 0 num_mem_ops: 1 event: 29998954
[cpu0_DECODE] entry: 111 instr_id: 38198684 fetched: 2 scheduled: 0 executed: 0 num_reg_dependent: 0 num_mem_ops: 1 event: 29998954
[cpu0_DECODE] entry: 112 instr_id: 38198685 fetched: 2 scheduled: 0 executed: 0 num_reg_dependent: 0 num_mem_ops: 1 event: 29998954
[cpu0_DECODE] entry: 113 instr_id: 38198686 fetched: 2 scheduled: 0 executed: 0 num_reg_dependent: 0 num_mem_ops: 1 event: 29998954
[cpu0_DECODE] entry: 114 instr_id: 38198687 fetched: 2 scheduled: 0 executed: 0 num_reg_dependent: 0 num_mem_ops: 0 event: 29998955
[cpu0_DECODE] entry: 115 instr_id: 38198688 fetched: 2 scheduled: 0 executed: 0 num_reg_dependent: 0 num_mem_ops: 0 event: 29998955
[cpu0_DECODE] entry: 116 instr_id: 38198689 fetched: 2 scheduled: 0 executed: 0 num_reg_dependent: 0 num_mem_ops: 0 event: 29998955
[cpu0_DECODE] entry: 117 instr_id: 38198690 fetched: 2 scheduled: 0 executed: 0 num_reg_dependent: 0 num_mem_ops: 0 event: 29998955
[cpu0_DECODE] entry: 118 instr_id: 38198691 fetched: 2 scheduled: 0 executed: 0 num_reg_dependent: 0 num_mem_ops: 0 event: 29998955
[cpu0_DECODE] entry: 119 instr_id: 38198692 fetched: 2 scheduled: 0 executed: 0 num_reg_dependent: 0 num_mem_ops: 0 event: 29998955
[cpu0_DECODE] entry: 120 instr_id: 38198693 fetched: 2 scheduled: 0 executed: 0 num_reg_dependent: 0 num_mem_ops: 0 event: 29998956
[cpu0_DECODE] entry: 121 instr_id: 38198694 fetched: 2 scheduled: 0 executed: 0 num_reg_dependent: 0 num_mem_ops: 0 event: 29998956
[cpu0_DECODE] entry: 122 instr_id: 38198695 fetched: 2 scheduled: 0 executed: 0 num_reg_dependent: 0 num_mem_ops: 0 event: 29998956
[cpu0_DECODE] entry: 123 instr_id: 38198696 fetched: 2 scheduled: 0 executed: 0 num_reg_dependent: 0 num_mem_ops: 0 event: 29998956
[cpu0_DECODE] entry: 124 instr_id: 38198697 fetched: 2 scheduled: 0 executed: 0 num_reg_dependent: 0 num_mem_ops: 0 event: 29998956
[cpu0_DECODE] entry: 125 instr_id: 38198698 fetched: 2 scheduled: 0 executed: 0 num_reg_dependent: 0 num_mem_ops: 0 event: 29998956
[cpu0_DECODE] entry: 126 instr_id: 38198699 fetched: 2 scheduled: 0 executed: 0 num_reg_dependent: 0 num_mem_ops: 0 event: 29998957
[cpu0_DECODE] entry: 127 instr_id: 38198700 fetched: 2 scheduled: 0 executed: 0 num_reg_dependent: 0 num_mem_ops: 0 event: 29998957
[cpu0_DECODE] entry: 128 instr_id: 38198701 fetched: 2 scheduled: 0 executed: 0 num_reg_dependent: 0 num_mem_ops: 0 event: 29998957
[cpu0_DECODE] entry: 129 instr_id: 38198702 fetched: 2 scheduled: 0 executed: 0 num_reg_dependent: 0 num_mem_ops: 0 event: 29998957
[cpu0_DECODE] entry: 130 instr_id: 38198703 fetched: 2 scheduled: 0 executed: 0 num_reg_dependent: 0 num_mem_ops: 0 event: 29998957
[cpu0_DECODE] entry: 131 instr_id: 38198704 fetched: 2 scheduled: 0 executed: 0 num_reg_dependent: 0 num_mem_ops: 1 event: 29998957
[cpu0_DECODE] entry: 132 instr_id: 38198705 fetched: 2 scheduled: 0 executed: 0 num_reg_dependent: 0 num_mem_ops: 0 event: 29998958
[cpu0_DECODE] entry: 133 instr_id: 38198706 fetched: 2 scheduled: 0 executed: 0 num_reg_dependent: 0 num_mem_ops: 1 event: 29998958
[cpu0_DECODE] entry: 134 instr_id: 38198707 fetched: 2 scheduled: 0 executed: 0 num_reg_dependent: 0 num_mem_ops: 0 event: 29998958
[cpu0_DECODE] entry: 135 instr_id: 38198708 fetched: 2 scheduled: 0 executed: 0 num_reg_dependent: 0 num_mem_ops: 1 event: 29998958
[cpu0_DECODE] entry: 136 instr_id: 38198709 fetched: 2 scheduled: 0 executed: 0 num_reg_dependent: 0 num_mem_ops: 1 event: 29998958
[cpu0_DECODE] entry: 137 instr_id: 38198710 fetched: 2 scheduled: 0 executed: 0 num_reg_dependent: 0 num_mem_ops: 1 event: 29998958
[cpu0_DECODE] entry: 138 instr_id: 38198711 fetched: 2 scheduled: 0 executed: 0 num_reg_dependent: 0 num_mem_ops: 1 event: 29998959
[cpu0_DECODE] entry: 139 instr_id: 38198712 fetched: 2 scheduled: 0 executed: 0 num_reg_dependent: 0 num_mem_ops: 0 event: 29998959
[cpu0_DECODE] entry: 140 instr_id: 38198713 fetched: 2 scheduled: 0 executed: 0 num_reg_dependent: 0 num_mem_ops: 0 event: 29998959
[cpu0_DECODE] entry: 141 instr_id: 38198714 fetched: 2 scheduled: 0 executed: 0 num_reg_dependent: 0 num_mem_ops: 1 event: 29998959
[cpu0_DECODE] entry: 142 instr_id: 38198715 fetched: 2 scheduled: 0 executed: 0 num_reg_dependent: 0 num_mem_ops: 0 event: 29998959
[cpu0_DECODE] entry: 143 instr_id: 38198716 fetched: 2 scheduled: 0 executed: 0 num_reg_dependent: 0 num_mem_ops: 0 event: 29998959

[cpu0_DISPATCH] entry:   0 instr_id: 38198541 fetched: 2 scheduled: 0 executed: 0 num_reg_dependent: 0 num_mem_ops: 0 event: 29998955
[cpu0_DISPATCH] entry:   1 instr_id: 38198542 fetched: 2 scheduled: 0 executed: 0 num_reg_dependent: 0 num_mem_ops: 0 event: 29998955
[cpu0_DISPATCH] entry:   2 instr_id: 38198543 fetched: 2 scheduled: 0 executed: 0 num_reg_dependent: 0 num_mem_ops: 0 event: 29998956
[cpu0_DISPATCH] entry:   3 instr_id: 38198544 fetched: 2 scheduled: 0 executed: 0 num_reg_dependent: 0 num_mem_ops: 0 event: 29998956
[cpu0_DISPATCH] entry:   4 instr_id: 38198545 fetched: 2 scheduled: 0 executed: 0 num_reg_dependent: 0 num_mem_ops: 0 event: 29998956
[cpu0_DISPATCH] entry:   5 instr_id: 38198546 fetched: 2 scheduled: 0 executed: 0 num_reg_dependent: 0 num_mem_ops: 0 event: 29998956
[cpu0_DISPATCH] entry:   6 instr_id: 38198547 fetched: 2 scheduled: 0 executed: 0 num_reg_dependent: 0 num_mem_ops: 1 event: 29998956
[cpu0_DISPATCH] entry:   7 instr_id: 38198548 fetched: 2 scheduled: 0 executed: 0 num_reg_dependent: 0 num_mem_ops: 1 event: 29998956
[cpu0_DISPATCH] entry:   8 instr_id: 38198549 fetched: 2 scheduled: 0 executed: 0 num_reg_dependent: 0 num_mem_ops: 1 event: 29998957
[cpu0_DISPATCH] entry:   9 instr_id: 38198550 fetched: 2 scheduled: 0 executed: 0 num_reg_dependent: 0 num_mem_ops: 1 event: 29998957
[cpu0_DISPATCH] entry:  10 instr_id: 38198551 fetched: 2 scheduled: 0 executed: 0 num_reg_dependent: 0 num_mem_ops: 0 event: 29998957
[cpu0_DISPATCH] entry:  11 instr_id: 38198552 fetched: 2 scheduled: 0 executed: 0 num_reg_dependent: 0 num_mem_ops: 0 event: 29998957
[cpu0_DISPATCH] entry:  12 instr_id: 38198553 fetched: 2 scheduled: 0 executed: 0 num_reg_dependent: 0 num_mem_ops: 0 event: 29998957
[cpu0_DISPATCH] entry:  13 instr_id: 38198554 fetched: 2 scheduled: 0 executed: 0 num_reg_dependent: 0 num_mem_ops: 0 event: 29998957
[cpu0_DISPATCH] entry:  14 instr_id: 38198555 fetched: 2 scheduled: 0 executed: 0 num_reg_dependent: 0 num_mem_ops: 0 event: 29998958
[cpu0_DISPATCH] entry:  15 instr_id: 38198556 fetched: 2 scheduled: 0 executed: 0 num_reg_dependent: 0 num_mem_ops: 0 event: 29998958
[cpu0_DISPATCH] entry:  16 instr_id: 38198557 fetched: 2 scheduled: 0 executed: 0 num_reg_dependent: 0 num_mem_ops: 0 event: 29998958
[cpu0_DISPATCH] entry:  17 instr_id: 38198558 fetched: 2 scheduled: 0 executed: 0 num_reg_dependent: 0 num_mem_ops: 0 event: 29998958
[cpu0_DISPATCH] entry:  18 instr_id: 38198559 fetched: 2 scheduled: 0 executed: 0 num_reg_dependent: 0 num_mem_ops: 0 event: 29998958
[cpu0_DISPATCH] entry:  19 instr_id: 38198560 fetched: 2 scheduled: 0 executed: 0 num_reg_dependent: 0 num_mem_ops: 0 event: 29998958
[cpu0_DISPATCH] entry:  20 instr_id: 38198561 fetched: 2 scheduled: 0 executed: 0 num_reg_dependent: 0 num_mem_ops: 0 event: 29998959
[cpu0_DISPATCH] entry:  21 instr_id: 38198562 fetched: 2 scheduled: 0 executed: 0 num_reg_dependent: 0 num_mem_ops: 0 event: 29998959
[cpu0_DISPATCH] entry:  22 instr_id: 38198563 fetched: 2 scheduled: 0 executed: 0 num_reg_dependent: 0 num_mem_ops: 0 event: 29998959
[cpu0_DISPATCH] entry:  23 instr_id: 38198564 fetched: 2 scheduled: 0 executed: 0 num_reg_dependent: 0 num_mem_ops: 0 event: 29998959
[cpu0_DISPATCH] entry:  24 instr_id: 38198565 fetched: 2 scheduled: 0 executed: 0 num_reg_dependent: 0 num_mem_ops: 0 event: 29998959
[cpu0_DISPATCH] entry:  25 instr_id: 38198566 fetched: 2 scheduled: 0 executed: 0 num_reg_dependent: 0 num_mem_ops: 0 event: 29998959
[cpu0_DISPATCH] entry:  26 instr_id: 38198567 fetched: 2 scheduled: 0 executed: 0 num_reg_dependent: 0 num_mem_ops: 0 event: 29998960
[cpu0_DISPATCH] entry:  27 instr_id: 38198568 fetched: 2 scheduled: 0 executed: 0 num_reg_dependent: 0 num_mem_ops: 1 event: 29998960
[cpu0_DISPATCH] entry:  28 instr_id: 38198569 fetched: 2 scheduled: 0 executed: 0 num_reg_dependent: 0 num_mem_ops: 0 event: 29998960
[cpu0_DISPATCH] entry:  29 instr_id: 38198570 fetched: 2 scheduled: 0 executed: 0 num_reg_dependent: 0 num_mem_ops: 1 event: 29998960
[cpu0_DISPATCH] entry:  30 instr_id: 38198571 fetched: 2 scheduled: 0 executed: 0 num_reg_dependent: 0 num_mem_ops: 0 event: 29998960
[cpu0_DISPATCH] entry:  31 instr_id: 38198572 fetched: 2 scheduled: 0 executed: 0 num_reg_dependent: 0 num_mem_ops: 1 event: 29998960

[cpu0_ROB] entry:   0 instr_id: 38198029 fetched: 2 scheduled: 2 executed: 1 num_reg_dependent: 0 num_mem_ops: 1 event: 29997706
[cpu0_ROB] entry:   1 instr_id: 38198030 fetched: 2 scheduled: 2 executed: 1 num_reg_dependent: 0 num_mem_ops: 1 event: 29997706
[cpu0_ROB] entry:   2 instr_id: 38198031 fetched: 2 scheduled: 2 executed: 2 num_reg_dependent: 0 num_mem_ops: 0 event: 29997706
[cpu0_ROB] entry:   3 instr_id: 38198032 fetched: 2 scheduled: 2 executed: 2 num_reg_dependent: 0 num_mem_ops: 0 event: 29997706
[cpu0_ROB] entry:   4 instr_id: 38198033 fetched: 2 scheduled: 2 executed: 2 num_reg_dependent: 0 num_mem_ops: 0 event: 29997707
[cpu0_ROB] entry:   5 instr_id: 38198034 fetched: 2 scheduled: 2 executed: 1 num_reg_dependent: 0 num_mem_ops: 1 event: 29997707
[cpu0_ROB] entry:   6 instr_id: 38198035 fetched: 2 scheduled: 2 executed: 0 num_reg_dependent: 1 num_mem_ops: 0 event: 29997707
[cpu0_ROB] entry:   7 instr_id: 38198036 fetched: 2 scheduled: 2 executed: 0 num_reg_dependent: 1 num_mem_ops: 0 event: 29997707
[cpu0_ROB] entry:   8 instr_id: 38198037 fetched: 2 scheduled: 2 executed: 0 num_reg_dependent: 1 num_mem_ops: 0 event: 29997707
[cpu0_ROB] entry:   9 instr_id: 38198038 fetched: 2 scheduled: 2 executed: 0 num_reg_dependent: 1 num_mem_ops: 0 event: 29997707
[cpu0_ROB] entry:  10 instr_id: 38198039 fetched: 2 scheduled: 2 executed: 0 num_reg_dependent: 2 num_mem_ops: 0 event: 29997707
[cpu0_ROB] entry:  11 instr_id: 38198040 fetched: 2 scheduled: 2 executed: 0 num_reg_dependent: 1 num_mem_ops: 0 event: 29997707
[cpu0_ROB] entry:  12 instr_id: 38198041 fetched: 2 scheduled: 2 executed: 0 num_reg_dependent: 1 num_mem_ops: 0 event: 29997708
[cpu0_ROB] entry:  13 instr_id: 38198042 fetched: 2 scheduled: 2 executed: 0 num_reg_dependent: 2 num_mem_ops: 0 event: 29997708
[cpu0_ROB] entry:  14 instr_id: 38198043 fetched: 2 scheduled: 2 executed: 0 num_reg_dependent: 2 num_mem_ops: 0 event: 29997757
[cpu0_ROB] entry:  15 instr_id: 38198044 fetched: 2 scheduled: 2 executed: 0 num_reg_dependent: 2 num_mem_ops: 0 event: 29997757
[cpu0_ROB] entry:  16 instr_id: 38198045 fetched: 2 scheduled: 2 executed: 0 num_reg_dependent: 2 num_mem_ops: 0 event: 29997757
[cpu0_ROB] entry:  17 instr_id: 38198046 fetched: 2 scheduled: 2 executed: 0 num_reg_dependent: 2 num_mem_ops: 0 event: 29997757
[cpu0_ROB] entry:  18 instr_id: 38198047 fetched: 2 scheduled: 2 executed: 0 num_reg_dependent: 2 num_mem_ops: 0 event: 29997757
[cpu0_ROB] entry:  19 instr_id: 38198048 fetched: 2 scheduled: 2 executed: 0 num_reg_dependent: 2 num_mem_ops: 0 event: 29997757
[cpu0_ROB] entry:  20 instr_id: 38198049 fetched: 2 scheduled: 2 executed: 0 num_reg_dependent: 2 num_mem_ops: 0 event: 29997757
[cpu0_ROB] entry:  21 instr_id: 38198050 fetched: 2 scheduled: 2 executed: 0 num_reg_dependent: 2 num_mem_ops: 0 event: 29997757
[cpu0_ROB] entry:  22 instr_id: 38198051 fetched: 2 scheduled: 2 executed: 0 num_reg_dependent: 2 num_mem_ops: 0 event: 29997757
[cpu0_ROB] entry:  23 instr_id: 38198052 fetched: 2 scheduled: 2 executed: 1 num_reg_dependent: 0 num_mem_ops: 1 event: 29997758
[cpu0_ROB] entry:  24 instr_id: 38198053 fetched: 2 scheduled: 2 executed: 1 num_reg_dependent: 0 num_mem_ops: 1 event: 29997759
[cpu0_ROB] entry:  25 instr_id: 38198054 fetched: 2 scheduled: 2 executed: 1 num_reg_dependent: 0 num_mem_ops: 1 event: 29997759
[cpu0_ROB] entry:  26 instr_id: 38198055 fetched: 2 scheduled: 2 executed: 0 num_reg_dependent: 1 num_mem_ops: 0 event: 29997758
[cpu0_ROB] entry:  27 instr_id: 38198056 fetched: 2 scheduled: 2 executed: 0 num_reg_dependent: 1 num_mem_ops: 0 event: 29997758
[cpu0_ROB] entry:  28 instr_id: 38198057 fetched: 2 scheduled: 2 executed: 0 num_reg_dependent: 1 num_mem_ops: 0 event: 29997758
[cpu0_ROB] entry:  29 instr_id: 38198058 fetched: 2 scheduled: 2 executed: 0 num_reg_dependent: 1 num_mem_ops: 0 event: 29997758
[cpu0_ROB] entry:  30 instr_id: 38198059 fetched: 2 scheduled: 2 executed: 0 num_reg_dependent: 1 num_mem_ops: 0 event: 29997758
[cpu0_ROB] entry:  31 instr_id: 38198060 fetched: 2 scheduled: 2 executed: 0 num_reg_dependent: 1 num_mem_ops: 0 event: 29997758
[cpu0_ROB] entry:  32 instr_id: 38198061 fetched: 2 scheduled: 2 executed: 0 num_reg_dependent: 2 num_mem_ops: 0 event: 29997758
[cpu0_ROB] entry:  33 instr_id: 38198062 fetched: 2 scheduled: 2 executed: 0 num_reg_dependent: 2 num_mem_ops: 0 event: 29997758
[cpu0_ROB] entry:  34 instr_id: 38198063 fetched: 2 scheduled: 2 executed: 0 num_reg_dependent: 2 num_mem_ops: 0 event: 29997758
[cpu0_ROB] entry:  35 instr_id: 38198064 fetched: 2 scheduled: 2 executed: 0 num_reg_dependent: 2 num_mem_ops: 0 event: 29997759
[cpu0_ROB] entry:  36 instr_id: 38198065 fetched: 2 scheduled: 2 executed: 0 num_reg_dependent: 2 num_mem_ops: 0 event: 29997759
[cpu0_ROB] entry:  37 instr_id: 38198066 fetched: 2 scheduled: 2 executed: 0 num_reg_dependent: 2 num_mem_ops: 0 event: 29997759
[cpu0_ROB] entry:  38 instr_id: 38198067 fetched: 2 scheduled: 2 executed: 0 num_reg_dependent: 2 num_mem_ops: 0 event: 29997759
[cpu0_ROB] entry:  39 instr_id: 38198068 fetched: 2 scheduled: 2 executed: 0 num_reg_dependent: 2 num_mem_ops: 0 event: 29997759
[cpu0_ROB] entry:  40 instr_id: 38198069 fetched: 2 scheduled: 2 executed: 0 num_reg_dependent: 2 num_mem_ops: 0 event: 29997759
[cpu0_ROB] entry:  41 instr_id: 38198070 fetched: 2 scheduled: 2 executed: 0 num_reg_dependent: 2 num_mem_ops: 0 event: 29997759
[cpu0_ROB] entry:  42 instr_id: 38198071 fetched: 2 scheduled: 2 executed: 0 num_reg_dependent: 2 num_mem_ops: 0 event: 29997760
[cpu0_ROB] entry:  43 instr_id: 38198072 fetched: 2 scheduled: 2 executed: 1 num_reg_dependent: 0 num_mem_ops: 1 event: 29997761
[cpu0_ROB] entry:  44 instr_id: 38198073 fetched: 2 scheduled: 2 executed: 1 num_reg_dependent: 0 num_mem_ops: 1 event: 29997761
[cpu0_ROB] entry:  45 instr_id: 38198074 fetched: 2 scheduled: 2 executed: 1 num_reg_dependent: 0 num_mem_ops: 1 event: 29997761
[cpu0_ROB] entry:  46 instr_id: 38198075 fetched: 2 scheduled: 2 executed: 2 num_reg_dependent: 0 num_mem_ops: 0 event: 29997761
[cpu0_ROB] entry:  47 instr_id: 38198076 fetched: 2 scheduled: 2 executed: 0 num_reg_dependent: 1 num_mem_ops: 0 event: 29997760
[cpu0_ROB] entry:  48 instr_id: 38198077 fetched: 2 scheduled: 2 executed: 0 num_reg_dependent: 1 num_mem_ops: 0 event: 29997760
[cpu0_ROB] entry:  49 instr_id: 38198078 fetched: 2 scheduled: 2 executed: 0 num_reg_dependent: 1 num_mem_ops: 0 event: 29997760
[cpu0_ROB] entry:  50 instr_id: 38198079 fetched: 2 scheduled: 2 executed: 0 num_reg_dependent: 1 num_mem_ops: 0 event: 29997760
[cpu0_ROB] entry:  51 instr_id: 38198080 fetched: 2 scheduled: 2 executed: 0 num_reg_dependent: 1 num_mem_ops: 0 event: 29997760
[cpu0_ROB] entry:  52 instr_id: 38198081 fetched: 2 scheduled: 2 executed: 0 num_reg_dependent: 1 num_mem_ops: 0 event: 29997760
[cpu0_ROB] entry:  53 instr_id: 38198082 fetched: 2 scheduled: 2 executed: 0 num_reg_dependent: 2 num_mem_ops: 0 event: 29997761
[cpu0_ROB] entry:  54 instr_id: 38198083 fetched: 2 scheduled: 2 executed: 0 num_reg_dependent: 2 num_mem_ops: 0 event: 29997761
[cpu0_ROB] entry:  55 instr_id: 38198084 fetched: 2 scheduled: 2 executed: 0 num_reg_dependent: 2 num_mem_ops: 0 event: 29997761
[cpu0_ROB] entry:  56 instr_id: 38198085 fetched: 2 scheduled: 2 executed: 0 num_reg_dependent: 2 num_mem_ops: 0 event: 29997761
[cpu0_ROB] entry:  57 instr_id: 38198086 fetched: 2 scheduled: 2 executed: 0 num_reg_dependent: 2 num_mem_ops: 0 event: 29997761
[cpu0_ROB] entry:  58 instr_id: 38198087 fetched: 2 scheduled: 2 executed: 0 num_reg_dependent: 2 num_mem_ops: 0 event: 29997762
[cpu0_ROB] entry:  59 instr_id: 38198088 fetched: 2 scheduled: 2 executed: 0 num_reg_dependent: 2 num_mem_ops: 0 event: 29997762
[cpu0_ROB] entry:  60 instr_id: 38198089 fetched: 2 scheduled: 2 executed: 0 num_reg_dependent: 2 num_mem_ops: 0 event: 29997762
[cpu0_ROB] entry:  61 instr_id: 38198090 fetched: 2 scheduled: 2 executed: 0 num_reg_dependent: 2 num_mem_ops: 0 event: 29997762
[cpu0_ROB] entry:  62 instr_id: 38198091 fetched: 2 scheduled: 2 executed: 0 num_reg_dependent: 2 num_mem_ops: 0 event: 29997762
[cpu0_ROB] entry:  63 instr_id: 38198092 fetched: 2 scheduled: 2 executed: 0 num_reg_dependent: 2 num_mem_ops: 0 event: 29997763
[cpu0_ROB] entry:  64 instr_id: 38198093 fetched: 2 scheduled: 2 executed: 2 num_reg_dependent: 0 num_mem_ops: 0 event: 29998452
[cpu0_ROB] entry:  65 instr_id: 38198094 fetched: 2 scheduled: 2 executed: 2 num_reg_dependent: 0 num_mem_ops: 0 event: 29998452
[cpu0_ROB] entry:  66 instr_id: 38198095 fetched: 2 scheduled: 2 executed: 2 num_reg_dependent: 0 num_mem_ops: 0 event: 29998452
[cpu0_ROB] entry:  67 instr_id: 38198096 fetched: 2 scheduled: 2 executed: 2 num_reg_dependent: 0 num_mem_ops: 0 event: 29998452
[cpu0_ROB] entry:  68 instr_id: 38198097 fetched: 2 scheduled: 2 executed: 1 num_reg_dependent: 0 num_mem_ops: 1 event: 29998452
[cpu0_ROB] entry:  69 instr_id: 38198098 fetched: 2 scheduled: 2 executed: 1 num_reg_dependent: 0 num_mem_ops: 1 event: 29998453
[cpu0_ROB] entry:  70 instr_id: 38198099 fetched: 2 scheduled: 2 executed: 2 num_reg_dependent: 0 num_mem_ops: 0 event: 29998453
[cpu0_ROB] entry:  71 instr_id: 38198100 fetched: 2 scheduled: 2 executed: 2 num_reg_dependent: 0 num_mem_ops: 0 event: 29998453
[cpu0_ROB] entry:  72 instr_id: 38198101 fetched: 2 scheduled: 2 executed: 2 num_reg_dependent: 0 num_mem_ops: 0 event: 29998454
[cpu0_ROB] entry:  73 instr_id: 38198102 fetched: 2 scheduled: 2 executed: 1 num_reg_dependent: 0 num_mem_ops: 1 event: 29998454
[cpu0_ROB] entry:  74 instr_id: 38198103 fetched: 2 scheduled: 2 executed: 0 num_reg_dependent: 1 num_mem_ops: 0 event: 29998453
[cpu0_ROB] entry:  75 instr_id: 38198104 fetched: 2 scheduled: 2 executed: 0 num_reg_dependent: 1 num_mem_ops: 0 event: 29998453
[cpu0_ROB] entry:  76 instr_id: 38198105 fetched: 2 scheduled: 2 executed: 0 num_reg_dependent: 1 num_mem_ops: 0 event: 29998453
[cpu0_ROB] entry:  77 instr_id: 38198106 fetched: 2 scheduled: 2 executed: 0 num_reg_dependent: 1 num_mem_ops: 0 event: 29998453
[cpu0_ROB] entry:  78 instr_id: 38198107 fetched: 2 scheduled: 2 executed: 0 num_reg_dependent: 2 num_mem_ops: 0 event: 29998453
[cpu0_ROB] entry:  79 instr_id: 38198108 fetched: 2 scheduled: 2 executed: 0 num_reg_dependent: 1 num_mem_ops: 0 event: 29998454
[cpu0_ROB] entry:  80 instr_id: 38198109 fetched: 2 scheduled: 2 executed: 0 num_reg_dependent: 1 num_mem_ops: 0 event: 29998454
[cpu0_ROB] entry:  81 instr_id: 38198110 fetched: 2 scheduled: 2 executed: 0 num_reg_dependent: 3 num_mem_ops: 0 event: 29998454
[cpu0_ROB] entry:  82 instr_id: 38198111 fetched: 2 scheduled: 2 executed: 0 num_reg_dependent: 2 num_mem_ops: 0 event: 29998454
[cpu0_ROB] entry:  83 instr_id: 38198112 fetched: 2 scheduled: 2 executed: 0 num_reg_dependent: 3 num_mem_ops: 0 event: 29998454
[cpu0_ROB] entry:  84 instr_id: 38198113 fetched: 2 scheduled: 2 executed: 0 num_reg_dependent: 3 num_mem_ops: 0 event: 29998455
[cpu0_ROB] entry:  85 instr_id: 38198114 fetched: 2 scheduled: 2 executed: 0 num_reg_dependent: 3 num_mem_ops: 0 event: 29998455
[cpu0_ROB] entry:  86 instr_id: 38198115 fetched: 2 scheduled: 2 executed: 0 num_reg_dependent: 2 num_mem_ops: 0 event: 29998455
[cpu0_ROB] entry:  87 instr_id: 38198116 fetched: 2 scheduled: 2 executed: 0 num_reg_dependent: 2 num_mem_ops: 0 event: 29998937
[cpu0_ROB] entry:  88 instr_id: 38198117 fetched: 2 scheduled: 2 executed: 0 num_reg_dependent: 2 num_mem_ops: 0 event: 29998937
[cpu0_ROB] entry:  89 instr_id: 38198118 fetched: 2 scheduled: 2 executed: 0 num_reg_dependent: 2 num_mem_ops: 0 event: 29998937
[cpu0_ROB] entry:  90 instr_id: 38198119 fetched: 2 scheduled: 2 executed: 0 num_reg_dependent: 2 num_mem_ops: 0 event: 29998937
[cpu0_ROB] entry:  91 instr_id: 38198120 fetched: 2 scheduled: 2 executed: 1 num_reg_dependent: 0 num_mem_ops: 1 event: 29998938
[cpu0_ROB] entry:  92 instr_id: 38198121 fetched: 2 scheduled: 2 executed: 1 num_reg_dependent: 0 num_mem_ops: 1 event: 29998938
[cpu0_ROB] entry:  93 instr_id: 38198122 fetched: 2 scheduled: 2 executed: 1 num_reg_dependent: 0 num_mem_ops: 1 event: 29998939
[cpu0_ROB] entry:  94 instr_id: 38198123 fetched: 2 scheduled: 2 executed: 0 num_reg_dependent: 1 num_mem_ops: 0 event: 29998937
[cpu0_ROB] entry:  95 instr_id: 38198124 fetched: 2 scheduled: 2 executed: 0 num_reg_dependent: 2 num_mem_ops: 0 event: 29998937
[cpu0_ROB] entry:  96 instr_id: 38198125 fetched: 2 scheduled: 2 executed: 0 num_reg_dependent: 2 num_mem_ops: 0 event: 29998937
[cpu0_ROB] entry:  97 instr_id: 38198126 fetched: 2 scheduled: 2 executed: 0 num_reg_dependent: 2 num_mem_ops: 0 event: 29998937
[cpu0_ROB] entry:  98 instr_id: 38198127 fetched: 2 scheduled: 2 executed: 0 num_reg_dependent: 2 num_mem_ops: 0 event: 29998938
[cpu0_ROB] entry:  99 instr_id: 38198128 fetched: 2 scheduled: 2 executed: 0 num_reg_dependent: 2 num_mem_ops: 0 event: 29998938
[cpu0_ROB] entry: 100 instr_id: 38198129 fetched: 2 scheduled: 2 executed: 0 num_reg_dependent: 3 num_mem_ops: 0 event: 29998938
[cpu0_ROB] entry: 101 instr_id: 38198130 fetched: 2 scheduled: 2 executed: 0 num_reg_dependent: 3 num_mem_ops: 0 event: 29998938
[cpu0_ROB] entry: 102 instr_id: 38198131 fetched: 2 scheduled: 2 executed: 0 num_reg_dependent: 2 num_mem_ops: 0 event: 29998938
[cpu0_ROB] entry: 103 instr_id: 38198132 fetched: 2 scheduled: 2 executed: 0 num_reg_dependent: 3 num_mem_ops: 0 event: 29998938
[cpu0_ROB] entry: 104 instr_id: 38198133 fetched: 2 scheduled: 2 executed: 0 num_reg_dependent: 3 num_mem_ops: 0 event: 29998938
[cpu0_ROB] entry: 105 instr_id: 38198134 fetched: 2 scheduled: 2 executed: 0 num_reg_dependent: 3 num_mem_ops: 0 event: 29998938
[cpu0_ROB] entry: 106 instr_id: 38198135 fetched: 2 scheduled: 2 executed: 0 num_reg_dependent: 2 num_mem_ops: 0 event: 29998938
[cpu0_ROB] entry: 107 instr_id: 38198136 fetched: 2 scheduled: 2 executed: 0 num_reg_dependent: 2 num_mem_ops: 0 event: 29998938
[cpu0_ROB] entry: 108 instr_id: 38198137 fetched: 2 scheduled: 2 executed: 0 num_reg_dependent: 2 num_mem_ops: 0 event: 29998938
[cpu0_ROB] entry: 109 instr_id: 38198138 fetched: 2 scheduled: 2 executed: 0 num_reg_dependent: 2 num_mem_ops: 0 event: 29998938
[cpu0_ROB] entry: 110 instr_id: 38198139 fetched: 2 scheduled: 2 executed: 0 num_reg_dependent: 2 num_mem_ops: 0 event: 29998939
[cpu0_ROB] entry: 111 instr_id: 38198140 fetched: 2 scheduled: 2 executed: 1 num_reg_dependent: 0 num_mem_ops: 1 event: 29998940
[cpu0_ROB] entry: 112 instr_id: 38198141 fetched: 2 scheduled: 2 executed: 1 num_reg_dependent: 0 num_mem_ops: 1 event: 29998941
[cpu0_ROB] entry: 113 instr_id: 38198142 fetched: 2 scheduled: 2 executed: 1 num_reg_dependent: 0 num_mem_ops: 1 event: 29998941
[cpu0_ROB] entry: 114 instr_id: 38198143 fetched: 2 scheduled: 2 executed: 2 num_reg_dependent: 0 num_mem_ops: 0 event: 29998941
[cpu0_ROB] entry: 115 instr_id: 38198144 fetched: 2 scheduled: 2 executed: 0 num_reg_dependent: 1 num_mem_ops: 0 event: 29998939
[cpu0_ROB] entry: 116 instr_id: 38198145 fetched: 2 scheduled: 2 executed: 0 num_reg_dependent: 2 num_mem_ops: 0 event: 29998939
[cpu0_ROB] entry: 117 instr_id: 38198146 fetched: 2 scheduled: 2 executed: 0 num_reg_dependent: 2 num_mem_ops: 0 event: 29998939
[cpu0_ROB] entry: 118 instr_id: 38198147 fetched: 2 scheduled: 2 executed: 0 num_reg_dependent: 2 num_mem_ops: 0 event: 29998939
[cpu0_ROB] entry: 119 instr_id: 38198148 fetched: 2 scheduled: 2 executed: 0 num_reg_dependent: 2 num_mem_ops: 0 event: 29998939
[cpu0_ROB] entry: 120 instr_id: 38198149 fetched: 2 scheduled: 2 executed: 0 num_reg_dependent: 2 num_mem_ops: 0 event: 29998939
[cpu0_ROB] entry: 121 instr_id: 38198150 fetched: 2 scheduled: 2 executed: 0 num_reg_dependent: 3 num_mem_ops: 0 event: 29998939
[cpu0_ROB] entry: 122 instr_id: 38198151 fetched: 2 scheduled: 2 executed: 0 num_reg_dependent: 3 num_mem_ops: 0 event: 29998940
[cpu0_ROB] entry: 123 instr_id: 38198152 fetched: 2 scheduled: 2 executed: 0 num_reg_dependent: 3 num_mem_ops: 0 event: 29998940
[cpu0_ROB] entry: 124 instr_id: 38198153 fetched: 2 scheduled: 2 executed: 0 num_reg_dependent: 2 num_mem_ops: 0 event: 29998940
[cpu0_ROB] entry: 125 instr_id: 38198154 fetched: 2 scheduled: 2 executed: 0 num_reg_dependent: 3 num_mem_ops: 0 event: 29998940
[cpu0_ROB] entry: 126 instr_id: 38198155 fetched: 2 scheduled: 2 executed: 0 num_reg_dependent: 3 num_mem_ops: 0 event: 29998940
[cpu0_ROB] entry: 127 instr_id: 38198156 fetched: 2 scheduled: 2 executed: 0 num_reg_dependent: 2 num_mem_ops: 0 event: 29998940
[cpu0_ROB] entry: 128 instr_id: 38198157 fetched: 2 scheduled: 2 executed: 0 num_reg_dependent: 2 num_mem_ops: 0 event: 29998940
[cpu0_ROB] entry: 129 instr_id: 38198158 fetched: 2 scheduled: 2 executed: 0 num_reg_dependent: 2 num_mem_ops: 0 event: 29998940
[cpu0_ROB] entry: 130 instr_id: 38198159 fetched: 2 scheduled: 2 executed: 0 num_reg_dependent: 2 num_mem_ops: 0 event: 29998940
[cpu0_ROB] entry: 131 instr_id: 38198160 fetched: 2 scheduled: 2 executed: 0 num_reg_dependent: 2 num_mem_ops: 0 event: 29998940
[cpu0_ROB] entry: 132 instr_id: 38198161 fetched: 2 scheduled: 2 executed: 2 num_reg_dependent: 0 num_mem_ops: 0 event: 29998941
[cpu0_ROB] entry: 133 instr_id: 38198162 fetched: 2 scheduled: 2 executed: 1 num_reg_dependent: 0 num_mem_ops: 1 event: 29998942
[cpu0_ROB] entry: 134 instr_id: 38198163 fetched: 2 scheduled: 2 executed: 2 num_reg_dependent: 0 num_mem_ops: 0 event: 29998942
[cpu0_ROB] entry: 135 instr_id: 38198164 fetched: 2 scheduled: 2 executed: 1 num_reg_dependent: 0 num_mem_ops: 1 event: 29998942
[cpu0_ROB] entry: 136 instr_id: 38198165 fetched: 2 scheduled: 2 executed: 1 num_reg_dependent: 0 num_mem_ops: 1 event: 29998942
[cpu0_ROB] entry: 137 instr_id: 38198166 fetched: 2 scheduled: 2 executed: 1 num_reg_dependent: 0 num_mem_ops: 1 event: 29998942
[cpu0_ROB] entry: 138 instr_id: 38198167 fetched: 2 scheduled: 2 executed: 1 num_reg_dependent: 0 num_mem_ops: 1 event: 29998942
[cpu0_ROB] entry: 139 instr_id: 38198168 fetched: 2 scheduled: 2 executed: 2 num_reg_dependent: 0 num_mem_ops: 0 event: 29998942
[cpu0_ROB] entry: 140 instr_id: 38198169 fetched: 2 scheduled: 2 executed: 2 num_reg_dependent: 0 num_mem_ops: 0 event: 29998943
[cpu0_ROB] entry: 141 instr_id: 38198170 fetched: 2 scheduled: 2 executed: 1 num_reg_dependent: 0 num_mem_ops: 1 event: 29998942
[cpu0_ROB] entry: 142 instr_id: 38198171 fetched: 2 scheduled: 2 executed: 0 num_reg_dependent: 2 num_mem_ops: 0 event: 29998941
[cpu0_ROB] entry: 143 instr_id: 38198172 fetched: 2 scheduled: 2 executed: 0 num_reg_dependent: 2 num_mem_ops: 0 event: 29998941
[cpu0_ROB] entry: 144 instr_id: 38198173 fetched: 2 scheduled: 2 executed: 0 num_reg_dependent: 2 num_mem_ops: 0 event: 29998941
[cpu0_ROB] entry: 145 instr_id: 38198174 fetched: 2 scheduled: 2 executed: 0 num_reg_dependent: 2 num_mem_ops: 0 event: 29998942
[...]
[cpu0_ROB] entry: 503 instr_id: 38198532 fetched: 2 scheduled: 0 executed: 0 num_reg_dependent: 0 num_mem_ops: 0 event: 29998954
[cpu0_ROB] entry: 504 instr_id: 38198533 fetched: 2 scheduled: 0 executed: 0 num_reg_dependent: 0 num_mem_ops: 0 event: 29998954
[cpu0_ROB] entry: 505 instr_id: 38198534 fetched: 2 scheduled: 0 executed: 0 num_reg_dependent: 0 num_mem_ops: 0 event: 29998954
[cpu0_ROB] entry: 506 instr_id: 38198535 fetched: 2 scheduled: 0 executed: 0 num_reg_dependent: 0 num_mem_ops: 0 event: 29998954
[cpu0_ROB] entry: 507 instr_id: 38198536 fetched: 2 scheduled: 0 executed: 0 num_reg_dependent: 0 num_mem_ops: 0 event: 29998954
[cpu0_ROB] entry: 508 instr_id: 38198537 fetched: 2 scheduled: 0 executed: 0 num_reg_dependent: 0 num_mem_ops: 0 event: 29998955
[cpu0_ROB] entry: 509 instr_id: 38198538 fetched: 2 scheduled: 0 executed: 0 num_reg_dependent: 0 num_mem_ops: 0 event: 29998955
[cpu0_ROB] entry: 510 instr_id: 38198539 fetched: 2 scheduled: 0 executed: 0 num_reg_dependent: 0 num_mem_ops: 0 event: 29998955
[cpu0_ROB] entry: 511 instr_id: 38198540 fetched: 2 scheduled: 0 executed: 0 num_reg_dependent: 0 num_mem_ops: 0 event: 29998955

[cpu0_LQ] entry:   0 instr_id: 38198276 address: 0x3f2f890 fetch_issued: true event_cycle: 0 waits on -
[cpu0_LQ] entry:   1 instr_id: 38198412 address: 0x3f30890 fetch_issued: true event_cycle: 0 waits on -
[cpu0_LQ] entry:   2 instr_id: 38198344 address: 0x3f30090 fetch_issued: true event_cycle: 0 waits on -
[cpu0_LQ] entry:   3 instr_id: 38198277 address: 0x3f2f8c0 fetch_issued: true event_cycle: 0 waits on -
[cpu0_LQ] entry:   4 instr_id: 38198413 address: 0x3f308c0 fetch_issued: true event_cycle: 0 waits on -
[cpu0_LQ] entry:   5 instr_id: 38198072 address: 0x3f2e090 fetch_issued: true event_cycle: 29997761 waits on -
[cpu0_LQ] entry:   6 instr_id: 38198278 address: 0x3f2f8f0 fetch_issued: true event_cycle: 0 waits on -
[cpu0_LQ] entry:   7 instr_id: 38198298 address: 0x283b9bc0 fetch_issued: true event_cycle: 0 waits on -
[cpu0_LQ] entry:   8 instr_id: 38198345 address: 0x3f300c0 fetch_issued: true event_cycle: 0 waits on -
[cpu0_LQ] entry:   9 instr_id: 38198414 address: 0x3f308f0 fetch_issued: true event_cycle: 0 waits on -
[cpu0_LQ] entry:  10 instr_id: 38198346 address: 0x3f300f0 fetch_issued: true event_cycle: 0 waits on -
[cpu0_LQ] entry:  11 instr_id: 38198366 address: 0x283b9bf0 fetch_issued: true event_cycle: 0 waits on -
[cpu0_LQ] entry:  12 instr_id: 38198073 address: 0x3f2e0c0 fetch_issued: true event_cycle: 29997761 waits on -
[cpu0_LQ] entry:  13 instr_id: 38198434 address: 0x283b9c20 fetch_issued: true event_cycle: 0 waits on -
[cpu0_LQ] entry:  14 instr_id: 38198436 address: 0x283b9c30 fetch_issued: true event_cycle: 0 waits on -
[cpu0_LQ] entry:  15 instr_id: 38198437 address: 0x3f31070 fetch_issued: true event_cycle: 0 waits on -
[cpu0_LQ] entry:  16 instr_id: 38198029 address: 0x3f2e070 fetch_issued: true event_cycle: 29997706 waits on -
[cpu0_LQ] entry:  17 instr_id: 38198030 address: 0x3f2e0a0 fetch_issued: true event_cycle: 29997706 waits on -
[cpu0_LQ] entry:  18 instr_id: 38198438 address: 0x3f310a0 fetch_issued: true event_cycle: 0 waits on -
[cpu0_LQ] entry:  19 instr_id: 38198439 address: 0x283b9c40 fetch_issued: true event_cycle: 0 waits on -
[cpu0_LQ] entry:  20 instr_id: 38198074 address: 0x3f2e0f0 fetch_issued: true event_cycle: 29997761 waits on -
[cpu0_LQ] entry:  21 instr_id: 38198034 address: 0x3f2e0d0 fetch_issued: true event_cycle: 29997707 waits on -
[cpu0_LQ] entry:  22 instr_id: 38198052 address: 0x3f2e080 fetch_issued: true event_cycle: 29997758 waits on -
[cpu0_LQ] entry:  23 instr_id: 38198053 address: 0x3f2e0b0 fetch_issued: true event_cycle: 29997759 waits on -
[cpu0_LQ] entry:  24 instr_id: 38198054 address: 0x3f2e0e0 fetch_issued: true event_cycle: 29997759 waits on -
[cpu0_LQ] entry:  25 instr_id: 38198140 address: 0x3f2e890 fetch_issued: true event_cycle: 29998940 waits on -
[cpu0_LQ] entry:  26 instr_id: 38198141 address: 0x3f2e8c0 fetch_issued: true event_cycle: 29998941 waits on -
[cpu0_LQ] entry:  27 instr_id: 38198097 address: 0x3f2e870 fetch_issued: true event_cycle: 29998452 waits on -
[cpu0_LQ] entry:  28 instr_id: 38198098 address: 0x3f2e8a0 fetch_issued: true event_cycle: 29998453 waits on -
[cpu0_LQ] entry:  29 instr_id: 38198142 address: 0x3f2e8f0 fetch_issued: true event_cycle: 29998941 waits on -
[cpu0_LQ] entry:  30 instr_id: 38198102 address: 0x3f2e8d0 fetch_issued: true event_cycle: 29998454 waits on -
[cpu0_LQ] entry:  31 instr_id: 38198120 address: 0x3f2e880 fetch_issued: true event_cycle: 29998938 waits on -
[cpu0_LQ] entry:  32 instr_id: 38198121 address: 0x3f2e8b0 fetch_issued: true event_cycle: 29998938 waits on -
[cpu0_LQ] entry:  33 instr_id: 38198122 address: 0x3f2e8e0 fetch_issued: true event_cycle: 29998939 waits on -
[cpu0_LQ] entry:  34 instr_id: 38198162 address: 0x283b9b60 fetch_issued: true event_cycle: 29998942 waits on -
[cpu0_LQ] entry:  35 instr_id: 38198164 address: 0x283b9b70 fetch_issued: true event_cycle: 29998942 waits on -
[cpu0_LQ] entry:  36 instr_id: 38198165 address: 0x3f2f070 fetch_issued: true event_cycle: 29998942 waits on -
[cpu0_LQ] entry:  37 instr_id: 38198166 address: 0x3f2f0a0 fetch_issued: true event_cycle: 29998942 waits on -
[cpu0_LQ] entry:  38 instr_id: 38198167 address: 0x283b9b80 fetch_issued: true event_cycle: 29998942 waits on -
[cpu0_LQ] entry:  39 instr_id: 38198170 address: 0x3f2f0d0 fetch_issued: true event_cycle: 29998942 waits on -
[cpu0_LQ] entry:  40 instr_id: 38198188 address: 0x3f2f080 fetch_issued: true event_cycle: 29998944 waits on -
[cpu0_LQ] entry:  41 instr_id: 38198189 address: 0x3f2f0b0 fetch_issued: true event_cycle: 29998944 waits on -
[cpu0_LQ] entry:  42 instr_id: 38198190 address: 0x3f2f0e0 fetch_issued: true event_cycle: 29998944 waits on -
[cpu0_LQ] entry:  43 instr_id: 38198208 address: 0x3f2f090 fetch_issued: true event_cycle: 0 waits on -
[cpu0_LQ] entry:  44 instr_id: 38198209 address: 0x3f2f0c0 fetch_issued: true event_cycle: 0 waits on -
[cpu0_LQ] entry:  45 instr_id: 38198210 address: 0x3f2f0f0 fetch_issued: true event_cycle: 0 waits on -
[cpu0_LQ] entry:  46 instr_id: 38198230 address: 0x283b9b90 fetch_issued: true event_cycle: 0 waits on -
[cpu0_LQ] entry:  47 instr_id: 38198232 address: 0x283b9ba0 fetch_issued: true event_cycle: 0 waits on -
[cpu0_LQ] entry:  48 instr_id: 38198233 address: 0x3f2f870 fetch_issued: true event_cycle: 0 waits on -
[cpu0_LQ] entry:  49 instr_id: 38198234 address: 0x3f2f8a0 fetch_issued: true event_cycle: 0 waits on -
[cpu0_LQ] entry:  50 instr_id: 38198235 address: 0x283b9bb0 fetch_issued: true event_cycle: 0 waits on -
[cpu0_LQ] entry:  51 instr_id: 38198238 address: 0x3f2f8d0 fetch_issued: true event_cycle: 0 waits on -
[cpu0_LQ] entry:  52 instr_id: 38198256 address: 0x3f2f880 fetch_issued: true event_cycle: 0 waits on -
[cpu0_LQ] entry:  53 instr_id: 38198257 address: 0x3f2f8b0 fetch_issued: true event_cycle: 0 waits on -
[cpu0_LQ] entry:  54 instr_id: 38198258 address: 0x3f2f8e0 fetch_issued: true event_cycle: 0 waits on -
[cpu0_LQ] entry:  55 instr_id: 38198300 address: 0x283b9bd0 fetch_issued: true event_cycle: 0 waits on -
[cpu0_LQ] entry:  56 instr_id: 38198301 address: 0x3f30070 fetch_issued: true event_cycle: 0 waits on -
[cpu0_LQ] entry:  57 instr_id: 38198302 address: 0x3f300a0 fetch_issued: true event_cycle: 0 waits on -
[cpu0_LQ] entry:  58 instr_id: 38198303 address: 0x283b9be0 fetch_issued: true event_cycle: 0 waits on -
[cpu0_LQ] entry:  59 instr_id: 38198306 address: 0x3f300d0 fetch_issued: true event_cycle: 0 waits on -
[cpu0_LQ] entry:  60 instr_id: 38198324 address: 0x3f30080 fetch_issued: true event_cycle: 0 waits on -
[cpu0_LQ] entry:  61 instr_id: 38198325 address: 0x3f300b0 fetch_issued: true event_cycle: 0 waits on -
[cpu0_LQ] entry:  62 instr_id: 38198326 address: 0x3f300e0 fetch_issued: true event_cycle: 0 waits on -
[cpu0_LQ] entry:  63 instr_id: 38198368 address: 0x283b9c00 fetch_issued: true event_cycle: 0 waits on -
[cpu0_LQ] entry:  64 instr_id: 38198369 address: 0x3f30870 fetch_issued: true event_cycle: 0 waits on -
[cpu0_LQ] entry:  65 instr_id: 38198370 address: 0x3f308a0 fetch_issued: true event_cycle: 0 waits on -
[cpu0_LQ] entry:  66 instr_id: 38198371 address: 0x283b9c10 fetch_issued: true event_cycle: 0 waits on -
[cpu0_LQ] entry:  67 instr_id: 38198374 address: 0x3f308d0 fetch_issued: true event_cycle: 0 waits on -
[cpu0_LQ] entry:  68 instr_id: 38198392 address: 0x3f30880 fetch_issued: true event_cycle: 0 waits on -
[cpu0_LQ] entry:  69 instr_id: 38198393 address: 0x3f308b0 fetch_issued: true event_cycle: 0 waits on -
[cpu0_LQ] entry:  70 instr_id: 38198394 address: 0x3f308e0 fetch_issued: true event_cycle: 0 waits on -
[cpu0_LQ] entry:  71 instr_id: 38198442 address: 0x3f310d0 fetch_issued: true event_cycle: 0 waits on -
[cpu0_LQ] entry:  72 instr_id: 38198460 address: 0x3f31080 fetch_issued: true event_cycle: 0 waits on -
[cpu0_LQ] entry:  73 instr_id: 38198461 address: 0x3f310b0 fetch_issued: true event_cycle: 0 waits on -
[cpu0_LQ] entry:  74 instr_id: 38198462 address: 0x3f310e0 fetch_issued: true event_cycle: 0 waits on -
[cpu0_LQ] entry:  75 instr_id: 38198480 address: 0x3f31090 fetch_issued: true event_cycle: 0 waits on -
[cpu0_LQ] entry:  76 instr_id: 38198481 address: 0x3f310c0 fetch_issued: true event_cycle: 0 waits on -
[cpu0_LQ] entry:  77 instr_id: 38198482 address: 0x3f310f0 fetch_issued: true event_cycle: 0 waits on -
[cpu0_LQ] entry:  78 instr_id: 38198502 address: 0x283b9c50 fetch_issued: true event_cycle: 0 waits on -
[cpu0_LQ] entry:  79 instr_id: 38198504 address: 0x283b9c60 fetch_issued: true event_cycle: 0 waits on -
[cpu0_LQ] entry:  80 instr_id: 38198505 address: 0x3f31870 fetch_issued: true event_cycle: 0 waits on -
[cpu0_LQ] entry:  81 instr_id: 38198506 address: 0x3f318a0 fetch_issued: true event_cycle: 0 waits on -
[cpu0_LQ] entry:  82 instr_id: 38198507 address: 0x283b9c70 fetch_issued: true event_cycle: 0 waits on -
[cpu0_LQ] entry:  83 instr_id: 38198510 address: 0x3f318d0 fetch_issued: true event_cycle: 0 waits on -
[cpu0_LQ] entry:  84 instr_id: 38198528 address: 0x3f31880 fetch_issued: true event_cycle: 0 waits on -
[cpu0_LQ] entry:  85 instr_id: 38198529 address: 0x3f318b0 fetch_issued: true event_cycle: 0 waits on -
[cpu0_LQ] entry:  86 instr_id: 38198530 address: 0x3f318e0 fetch_issued: true event_cycle: 0 waits on -
[cpu0_LQ] entry:  87 empty
[cpu0_LQ] entry:  88 empty
[cpu0_LQ] entry:  89 empty
[cpu0_LQ] entry:  90 empty
[cpu0_LQ] entry:  91 empty
[cpu0_LQ] entry:  92 empty
[cpu0_LQ] entry:  93 empty
[cpu0_LQ] entry:  94 empty
[cpu0_LQ] entry:  95 empty
[cpu0_LQ] entry:  96 empty
[cpu0_LQ] entry:  97 empty
[cpu0_LQ] entry:  98 empty
[cpu0_LQ] entry:  99 empty
[cpu0_LQ] entry: 100 empty
[cpu0_LQ] entry: 101 empty
[cpu0_LQ] entry: 102 empty
[cpu0_LQ] entry: 103 empty
[cpu0_LQ] entry: 104 empty
[cpu0_LQ] entry: 105 empty
[cpu0_LQ] entry: 106 empty
[cpu0_LQ] entry: 107 empty
[cpu0_LQ] entry: 108 empty
[cpu0_LQ] entry: 109 empty
[cpu0_LQ] entry: 110 empty
[cpu0_LQ] entry: 111 empty
[cpu0_LQ] entry: 112 empty
[cpu0_LQ] entry: 113 empty
[cpu0_LQ] entry: 114 empty
[cpu0_LQ] entry: 115 empty
[cpu0_LQ] entry: 116 empty
[cpu0_LQ] entry: 117 empty
[cpu0_LQ] entry: 118 empty
[cpu0_LQ] entry: 119 empty
[cpu0_LQ] entry: 120 empty
[cpu0_LQ] entry: 121 empty
[cpu0_LQ] entry: 122 empty
[cpu0_LQ] entry: 123 empty
[cpu0_LQ] entry: 124 empty
[cpu0_LQ] entry: 125 empty
[cpu0_LQ] entry: 126 empty
[cpu0_LQ] entry: 127 empty
[cpu0_LQ] entry: 128 empty
[cpu0_LQ] entry: 129 empty
[cpu0_LQ] entry: 130 empty
[cpu0_LQ] entry: 131 empty
[cpu0_LQ] entry: 132 empty
[cpu0_LQ] entry: 133 empty
[cpu0_LQ] entry: 134 empty
[cpu0_LQ] entry: 135 empty
[cpu0_LQ] entry: 136 empty
[cpu0_LQ] entry: 137 empty
[cpu0_LQ] entry: 138 empty
[cpu0_LQ] entry: 139 empty
[cpu0_LQ] entry: 140 empty
[cpu0_LQ] entry: 141 empty
[cpu0_LQ] entry: 142 empty
[cpu0_LQ] entry: 143 empty
[cpu0_LQ] entry: 144 empty
[cpu0_LQ] entry: 145 empty
[cpu0_LQ] entry: 146 empty
[cpu0_LQ] entry: 147 empty
[cpu0_LQ] entry: 148 empty
[cpu0_LQ] entry: 149 empty
[cpu0_LQ] entry: 150 empty
[cpu0_LQ] entry: 151 empty
[cpu0_LQ] entry: 152 empty
[cpu0_LQ] entry: 153 empty
[cpu0_LQ] entry: 154 empty
[cpu0_LQ] entry: 155 empty
[cpu0_LQ] entry: 156 empty
[cpu0_LQ] entry: 157 empty
[cpu0_LQ] entry: 158 empty
[cpu0_LQ] entry: 159 empty
[cpu0_LQ] entry: 160 empty
[cpu0_LQ] entry: 161 empty
[cpu0_LQ] entry: 162 empty
[cpu0_LQ] entry: 163 empty
[cpu0_LQ] entry: 164 empty
[cpu0_LQ] entry: 165 empty
[cpu0_LQ] entry: 166 empty
[cpu0_LQ] entry: 167 empty
[cpu0_LQ] entry: 168 empty
[cpu0_LQ] entry: 169 empty
[cpu0_LQ] entry: 170 empty
[cpu0_LQ] entry: 171 empty
[cpu0_LQ] entry: 172 empty
[cpu0_LQ] entry: 173 empty
[cpu0_LQ] entry: 174 empty
[cpu0_LQ] entry: 175 empty
[cpu0_LQ] entry: 176 empty
[cpu0_LQ] entry: 177 empty
[cpu0_LQ] entry: 178 empty
[cpu0_LQ] entry: 179 empty
[cpu0_LQ] entry: 180 empty
[cpu0_LQ] entry: 181 empty
[cpu0_LQ] entry: 182 empty
[cpu0_LQ] entry: 183 empty
[cpu0_LQ] entry: 184 empty
[cpu0_LQ] entry: 185 empty
[cpu0_LQ] entry: 186 empty
[cpu0_LQ] entry: 187 empty
[cpu0_LQ] entry: 188 empty
[cpu0_LQ] entry: 189 empty
[cpu0_LQ] entry: 190 empty
[cpu0_LQ] entry: 191 empty

[cpu0_SQ] entry:   0 instr_id: 38198051 address: 0x2afb1b00 fetch_issued: true event_cycle: 29997433 LQ waiting: []
[cpu0_SQ] entry:   1 instr_id: 38198071 address: 0x2afb1b10 fetch_issued: true event_cycle: 29997436 LQ waiting: []
[cpu0_SQ] entry:   2 instr_id: 38198092 address: 0x2afb1b20 fetch_issued: true event_cycle: 29997439 LQ waiting: []
[cpu0_SQ] entry:   3 instr_id: 38198119 address: 0x2afb1b30 fetch_issued: true event_cycle: 29997444 LQ waiting: []
[cpu0_SQ] entry:   4 instr_id: 38198139 address: 0x2afb1b40 fetch_issued: true event_cycle: 29997447 LQ waiting: []
[cpu0_SQ] entry:   5 instr_id: 38198160 address: 0x2afb1b50 fetch_issued: true event_cycle: 29997451 LQ waiting: []
[cpu0_SQ] entry:   6 instr_id: 38198187 address: 0x2afb1b60 fetch_issued: true event_cycle: 29997455 LQ waiting: []
[cpu0_SQ] entry:   7 instr_id: 38198207 address: 0x2afb1b70 fetch_issued: true event_cycle: 29997459 LQ waiting: []
[cpu0_SQ] entry:   8 instr_id: 38198228 address: 0x2afb1b80 fetch_issued: true event_cycle: 29997462 LQ waiting: []
[cpu0_SQ] entry:   9 instr_id: 38198255 address: 0x2afb1b90 fetch_issued: true event_cycle: 29997467 LQ waiting: []
[cpu0_SQ] entry:  10 instr_id: 38198275 address: 0x2afb1ba0 fetch_issued: true event_cycle: 29997701 LQ waiting: []
[cpu0_SQ] entry:  11 instr_id: 38198296 address: 0x2afb1bb0 fetch_issued: true event_cycle: 29997706 LQ waiting: []
[cpu0_SQ] entry:  12 instr_id: 38198323 address: 0x2afb1bc0 fetch_issued: true event_cycle: 29997711 LQ waiting: []
[cpu0_SQ] entry:  13 instr_id: 38198343 address: 0x2afb1bd0 fetch_issued: true event_cycle: 29997757 LQ waiting: []
[cpu0_SQ] entry:  14 instr_id: 38198364 address: 0x2afb1be0 fetch_issued: true event_cycle: 29997762 LQ waiting: []
[cpu0_SQ] entry:  15 instr_id: 38198391 address: 0x2afb1bf0 fetch_issued: true event_cycle: 29997767 LQ waiting: []
[cpu0_SQ] entry:  16 instr_id: 38198411 address: 0x2afb1c00 fetch_issued: true event_cycle: 29998937 LQ waiting: []
[cpu0_SQ] entry:  17 instr_id: 38198432 address: 0x2afb1c10 fetch_issued: true event_cycle: 29998942 LQ waiting: []
[cpu0_SQ] entry:  18 instr_id: 38198459 address: 0x2afb1c20 fetch_issued: true event_cycle: 29998947 LQ waiting: []
[cpu0_SQ] entry:  19 instr_id: 38198479 address: 0x2afb1c30 fetch_issued: true event_cycle: 29998950 LQ waiting: []
[cpu0_SQ] entry:  20 instr_id: 38198500 address: 0x2afb1c40 fetch_issued: true event_cycle: 29998954 LQ waiting: []
[cpu0_SQ] entry:  21 instr_id: 38198527 address: 0x2afb1c50 fetch_issued: true event_cycle: 29998958 LQ waiting: []

LLC_MSHR empty

LLC_tags empty

LLC_translation empty

LLC_RQ empty

LLC_WQ empty

LLC_PQ empty

[cpu0_DTLB_MSHR] entry:   0 instr_id: 38198140 address: 0x3f2e890 v_addr: 0x3f2e890 type: LOAD event: 18446744073709551615

cpu0_DTLB_tags empty

cpu0_DTLB_translation empty

cpu0_DTLB_RQ empty

cpu0_DTLB_WQ empty

cpu0_DTLB_PQ empty

cpu0_ITLB_MSHR empty

cpu0_ITLB_tags empty

cpu0_ITLB_translation empty

cpu0_ITLB_RQ empty

cpu0_ITLB_WQ empty

cpu0_ITLB_PQ empty

cpu0_L1D_MSHR empty

cpu0_L1D_tags empty

[cpu0_L1D_translation] entry:   0 instr_id: 0 address: 0x3f2e040 v_addr: 0x3f2e040 is_translated: false translate_issued: true event_cycle: 29995278
[cpu0_L1D_translation] entry:   1 instr_id: 0 address: 0x3f2e840 v_addr: 0x3f2e840 is_translated: false translate_issued: true event_cycle: 29995278
[cpu0_L1D_translation] entry:   2 instr_id: 0 address: 0x3f2e0c0 v_addr: 0x3f2e0c0 is_translated: false translate_issued: true event_cycle: 29997386
[cpu0_L1D_translation] entry:   3 instr_id: 0 address: 0x3f2e080 v_addr: 0x3f2e080 is_translated: false translate_issued: true event_cycle: 29997390
[cpu0_L1D_translation] entry:   4 instr_id: 0 address: 0x3f2e880 v_addr: 0x3f2e880 is_translated: false translate_issued: true event_cycle: 29997404
[cpu0_L1D_translation] entry:   5 instr_id: 38198029 address: 0x3f2e070 v_addr: 0x3f2e070 is_translated: false translate_issued: true event_cycle: 29997433
[cpu0_L1D_translation] entry:   6 instr_id: 38198030 address: 0x3f2e0a0 v_addr: 0x3f2e0a0 is_translated: false translate_issued: true event_cycle: 29997434
[cpu0_L1D_translation] entry:   7 instr_id: 38198034 address: 0x3f2e0d0 v_addr: 0x3f2e0d0 is_translated: false translate_issued: true event_cycle: 29997435
[cpu0_L1D_translation] entry:   8 instr_id: 38198052 address: 0x3f2e080 v_addr: 0x3f2e080 is_translated: false translate_issued: true event_cycle: 29997437
[cpu0_L1D_translation] entry:   9 instr_id: 38198054 address: 0x3f2e0e0 v_addr: 0x3f2e0e0 is_translated: false translate_issued: true event_cycle: 29997438
[cpu0_L1D_translation] entry:  10 instr_id: 38198072 address: 0x3f2e090 v_addr: 0x3f2e090 is_translated: false translate_issued: true event_cycle: 29997440
[cpu0_L1D_translation] entry:  11 instr_id: 38198073 address: 0x3f2e0c0 v_addr: 0x3f2e0c0 is_translated: false translate_issued: true event_cycle: 29997440
[cpu0_L1D_translation] entry:  12 instr_id: 0 address: 0x3f2e8c0 v_addr: 0x3f2e8c0 is_translated: false translate_issued: true event_cycle: 29997443
[cpu0_L1D_translation] entry:  13 instr_id: 38198097 address: 0x3f2e870 v_addr: 0x3f2e870 is_translated: false translate_issued: true event_cycle: 29997444
[cpu0_L1D_translation] entry:  14 instr_id: 38198098 address: 0x3f2e8a0 v_addr: 0x3f2e8a0 is_translated: false translate_issued: true event_cycle: 29997446
[cpu0_L1D_translation] entry:  15 instr_id: 38198102 address: 0x3f2e8d0 v_addr: 0x3f2e8d0 is_translated: false translate_issued: true event_cycle: 29997447
[cpu0_L1D_translation] entry:  16 instr_id: 38198120 address: 0x3f2e880 v_addr: 0x3f2e880 is_translated: false translate_issued: true event_cycle: 29997448
[cpu0_L1D_translation] entry:  17 instr_id: 38198122 address: 0x3f2e8e0 v_addr: 0x3f2e8e0 is_translated: false translate_issued: true event_cycle: 29997448
[cpu0_L1D_translation] entry:  18 instr_id: 38198140 address: 0x3f2e890 v_addr: 0x3f2e890 is_translated: false translate_issued: true event_cycle: 29997451

cpu0_L1D_RQ empty

cpu0_L1D_WQ empty

cpu0_L1D_PQ empty

[cpu0_L1D_RQ] entry:   0 instr_id: 38198141 address: 0x3f2e8c0 v_addr: 0x3f2e8c0 type: LOAD translated: false
[cpu0_L1D_RQ] entry:   1 instr_id: 38198162 address: 0x283b9b60 v_addr: 0x283b9b60 type: LOAD translated: false
[cpu0_L1D_RQ] entry:   2 instr_id: 38198165 address: 0x3f2f070 v_addr: 0x3f2f070 type: LOAD translated: false
[cpu0_L1D_RQ] entry:   3 instr_id: 38198166 address: 0x3f2f0a0 v_addr: 0x3f2f0a0 type: LOAD translated: false
[cpu0_L1D_RQ] entry:   4 instr_id: 38198167 address: 0x283b9b80 v_addr: 0x283b9b80 type: LOAD translated: false
[cpu0_L1D_RQ] entry:   5 instr_id: 38198170 address: 0x3f2f0d0 v_addr