WARNING: physical memory size is smaller than virtual memory size.

*** ChampSim Multicore Out-of-Order Simulator ***
Warmup Instructions: 30000000
Simulation Instructions: 100000000
Number of CPUs: 1
Page size: 4096

BTB:
Basic BTB sets: 1024 ways: 8
Indirect:
history lengths: 0 0 10 16 27 44 60 96 109 219 449 487 714 1313 2146 3881 
ITTAGE tables: 64768 bytes;Region table: 240 bytes;IUM: 384 bytes;Total Storage= 65392 bytes;
RAS:
RAS size: 64
[LLC] INSTR Demand IPV: 1 2 2 1 4 Prefetch IPV: 1 2 1 1 4
[LLC] DATA  Demand IPV: 1 1 1 2 4 Prefetch IPV: 1 1 2 2 4
Berti Prefetcher
CPU 0 Entangling prefetcher
Off-chip DRAM Size: 8 GiB Channels: 2 Width: 64-bit Data Race: 6400 MT/s
[DUEL] Epoch ended. INSTR misses = 141, DATA misses = 132. Winner = DATA
[DUEL] Epoch ended. INSTR misses = 109, DATA misses = 69. Winner = DATA
[DUEL] Epoch ended. INSTR misses = 49, DATA misses = 36. Winner = DATA
[DUEL] Epoch ended. INSTR misses = 66, DATA misses = 110. Winner = INSTR
[DUEL] Epoch ended. INSTR misses = 145, DATA misses = 153. Winner = INSTR
[DUEL] Epoch ended. INSTR misses = 23, DATA misses = 18. Winner = DATA
[DUEL] Epoch ended. INSTR misses = 264, DATA misses = 254. Winner = DATA
[DUEL] Epoch ended. INSTR misses = 127, DATA misses = 136. Winner = INSTR
[DUEL] Epoch ended. INSTR misses = 42, DATA misses = 49. Winner = INSTR
[DUEL] Epoch ended. INSTR misses = 18, DATA misses = 14. Winner = DATA
[DUEL] Epoch ended. INSTR misses = 46, DATA misses = 53. Winner = INSTR
[DUEL] Epoch ended. INSTR misses = 70, DATA misses = 64. Winner = DATA
[DUEL] Epoch ended. INSTR misses = 58, DATA misses = 32. Winner = DATA
[DUEL] Epoch ended. INSTR misses = 22, DATA misses = 33. Winner = INSTR
[DUEL] Epoch ended. INSTR misses = 22, DATA misses = 22. Winner = INSTR
[DUEL] Epoch ended. INSTR misses = 37, DATA misses = 34. Winner = DATA
[DUEL] Epoch ended. INSTR misses = 31, DATA misses = 42. Winner = INSTR
[DUEL] Epoch ended. INSTR misses = 37, DATA misses = 50. Winner = INSTR
[DUEL] Epoch ended. INSTR misses = 156, DATA misses = 176. Winner = INSTR
Heartbeat CPU 0 instructions: 10000008 cycles: 2013265 heartbeat IPC: 4.967 cumulative IPC: 4.967 (Simulation time: 00 hr 00 min 27 sec)
[DUEL] Epoch ended. INSTR misses = 181, DATA misses = 133. Winner = DATA
[DUEL] Epoch ended. INSTR misses = 98, DATA misses = 113. Winner = INSTR
[DUEL] Epoch ended. INSTR misses = 193, DATA misses = 194. Winner = INSTR
[DUEL] Epoch ended. INSTR misses = 130, DATA misses = 139. Winner = INSTR
[DUEL] Epoch ended. INSTR misses = 124, DATA misses = 136. Winner = INSTR
[DUEL] Epoch ended. INSTR misses = 131, DATA misses = 98. Winner = DATA
[DUEL] Epoch ended. INSTR misses = 114, DATA misses = 95. Winner = DATA
[DUEL] Epoch ended. INSTR misses = 122, DATA misses = 131. Winner = INSTR
[DUEL] Epoch ended. INSTR misses = 86, DATA misses = 101. Winner = INSTR
[DUEL] Epoch ended. INSTR misses = 48, DATA misses = 45. Winner = DATA
[DUEL] Epoch ended. INSTR misses = 46, DATA misses = 35. Winner = DATA
[DUEL] Epoch ended. INSTR misses = 24, DATA misses = 17. Winner = DATA
[DUEL] Epoch ended. INSTR misses = 16, DATA misses = 12. Winner = DATA
[DUEL] Epoch ended. INSTR misses = 13, DATA misses = 13. Winner = INSTR
[DUEL] Epoch ended. INSTR misses = 23, DATA misses = 21. Winner = DATA
[DUEL] Epoch ended. INSTR misses = 16, DATA misses = 5. Winner = DATA
[DUEL] Epoch ended. INSTR misses = 27, DATA misses = 16. Winner = DATA
[DUEL] Epoch ended. INSTR misses = 24, DATA misses = 24. Winner = INSTR
[DUEL] Epoch ended. INSTR misses = 26, DATA misses = 28. Winner = INSTR
Heartbeat CPU 0 instructions: 20000002 cycles: 3914307 heartbeat IPC: 5.26 cumulative IPC: 5.109 (Simulation time: 00 hr 00 min 56 sec)
[DUEL] Epoch ended. INSTR misses = 89, DATA misses = 83. Winner = DATA
[DUEL] Epoch ended. INSTR misses = 42, DATA misses = 49. Winner = INSTR
[DUEL] Epoch ended. INSTR misses = 54, DATA misses = 52. Winner = DATA
[DUEL] Epoch ended. INSTR misses = 20, DATA misses = 17. Winner = DATA
[DUEL] Epoch ended. INSTR misses = 19, DATA misses = 20. Winner = INSTR
[DUEL] Epoch ended. INSTR misses = 98, DATA misses = 91. Winner = DATA
[DUEL] Epoch ended. INSTR misses = 54, DATA misses = 61. Winner = INSTR
[DUEL] Epoch ended. INSTR misses = 22, DATA misses = 30. Winner = INSTR
[DUEL] Epoch ended. INSTR misses = 238, DATA misses = 254. Winner = INSTR
[DUEL] Epoch ended. INSTR misses = 200, DATA misses = 254. Winner = INSTR
[DUEL] Epoch ended. INSTR misses = 23, DATA misses = 31. Winner = INSTR
[DUEL] Epoch ended. INSTR misses = 33, DATA misses = 51. Winner = INSTR
[DUEL] Epoch ended. INSTR misses = 35, DATA misses = 40. Winner = INSTR
[DUEL] Epoch ended. INSTR misses = 48, DATA misses = 70. Winner = INSTR
[DUEL] Epoch ended. INSTR misses = 150, DATA misses = 165. Winner = INSTR
[DUEL] Epoch ended. INSTR misses = 38, DATA misses = 27. Winner = DATA
[DUEL] Epoch ended. INSTR misses = 29, DATA misses = 16. Winner = DATA
[DUEL] Epoch ended. INSTR misses = 23, DATA misses = 20. Winner = DATA
[DUEL] Epoch ended. INSTR misses = 8, DATA misses = 7. Winner = DATA
[DUEL] Epoch ended. INSTR misses = 19, DATA misses = 4. Winner = DATA
Heartbeat CPU 0 instructions: 30000010 cycles: 5812863 heartbeat IPC: 5.267 cumulative IPC: 5.161 (Simulation time: 00 hr 01 min 24 sec)
Warmup finished CPU 0 instructions: 30000010 cycles: 5812864 cumulative IPC: 5.161 (Simulation time: 00 hr 01 min 24 sec)
Warmup complete CPU 0 instructions: 30000010 cycles: 5812864 cumulative IPC: 5.161 (Simulation time: 00 hr 01 min 24 sec)
[DUEL] Epoch ended. INSTR misses = 13, DATA misses = 12. Winner = DATA
[DUEL] Epoch ended. INSTR misses = 198, DATA misses = 266. Winner = INSTR
[DUEL] Epoch ended. INSTR misses = 93, DATA misses = 104. Winner = INSTR
[DUEL] Epoch ended. INSTR misses = 15, DATA misses = 25. Winner = INSTR
[DUEL] Epoch ended. INSTR misses = 185, DATA misses = 231. Winner = INSTR
[DUEL] Epoch ended. INSTR misses = 253, DATA misses = 372. Winner = INSTR
[DUEL] Epoch ended. INSTR misses = 23, DATA misses = 35. Winner = INSTR
[DUEL] Epoch ended. INSTR misses = 21, DATA misses = 42. Winner = INSTR
[DUEL] Epoch ended. INSTR misses = 19, DATA misses = 27. Winner = INSTR
[DUEL] Epoch ended. INSTR misses = 29, DATA misses = 45. Winner = INSTR
[DUEL] Epoch ended. INSTR misses = 228, DATA misses = 229. Winner = INSTR
[DUEL] Epoch ended. INSTR misses = 33, DATA misses = 23. Winner = DATA
[DUEL] Epoch ended. INSTR misses = 24, DATA misses = 17. Winner = DATA
[DUEL] Epoch ended. INSTR misses = 23, DATA misses = 11. Winner = DATA
[DUEL] Epoch ended. INSTR misses = 8, DATA misses = 12. Winner = INSTR
[DUEL] Epoch ended. INSTR misses = 13, DATA misses = 5. Winner = DATA
[DUEL] Epoch ended. INSTR misses = 21, DATA misses = 14. Winner = DATA
[DUEL] Epoch ended. INSTR misses = 97, DATA misses = 99. Winner = INSTR
[DUEL] Epoch ended. INSTR misses = 86, DATA misses = 97. Winner = INSTR
Heartbeat CPU 0 instructions: 40000003 cycles: 16790656 heartbeat IPC: 0.9109 cumulative IPC: 0.9109 (Simulation time: 00 hr 02 min 38 sec)
[DUEL] Epoch ended. INSTR misses = 17, DATA misses = 24. Winner = INSTR
[DUEL] Epoch ended. INSTR misses = 132, DATA misses = 178. Winner = INSTR
[DUEL] Epoch ended. INSTR misses = 240, DATA misses = 358. Winner = INSTR
[DUEL] Epoch ended. INSTR misses = 28, DATA misses = 50. Winner = INSTR
[DUEL] Epoch ended. INSTR misses = 22, DATA misses = 40. Winner = INSTR
[DUEL] Epoch ended. INSTR misses = 19, DATA misses = 27. Winner = INSTR
[DUEL] Epoch ended. INSTR misses = 10, DATA misses = 19. Winner = INSTR
[DUEL] Epoch ended. INSTR misses = 221, DATA misses = 256. Winner = INSTR
[DUEL] Epoch ended. INSTR misses = 31, DATA misses = 25. Winner = DATA
[DUEL] Epoch ended. INSTR misses = 36, DATA misses = 16. Winner = DATA
[DUEL] Epoch ended. INSTR misses = 18, DATA misses = 8. Winner = DATA
[DUEL] Epoch ended. INSTR misses = 12, DATA misses = 15. Winner = INSTR
[DUEL] Epoch ended. INSTR misses = 10, DATA misses = 5. Winner = DATA
[DUEL] Epoch ended. INSTR misses = 20, DATA misses = 16. Winner = DATA
[DUEL] Epoch ended. INSTR misses = 137, DATA misses = 195. Winner = INSTR
[DUEL] Epoch ended. INSTR misses = 121, DATA misses = 144. Winner = INSTR
[DUEL] Epoch ended. INSTR misses = 23, DATA misses = 27. Winner = INSTR
[DUEL] Epoch ended. INSTR misses = 9, DATA misses = 12. Winner = INSTR
[DUEL] Epoch ended. INSTR misses = 275, DATA misses = 374. Winner = INSTR
[DUEL] Epoch ended. INSTR misses = 146, DATA misses = 190. Winner = INSTR
Heartbeat CPU 0 instructions: 50000001 cycles: 27712951 heartbeat IPC: 0.9156 cumulative IPC: 0.9132 (Simulation time: 00 hr 03 min 51 sec)
[DUEL] Epoch ended. INSTR misses = 19, DATA misses = 28. Winner = INSTR
[DUEL] Epoch ended. INSTR misses = 14, DATA misses = 24. Winner = INSTR
[DUEL] Epoch ended. INSTR misses = 26, DATA misses = 44. Winner = INSTR
[DUEL] Epoch ended. INSTR misses = 113, DATA misses = 156. Winner = INSTR
[DUEL] Epoch ended. INSTR misses = 137, DATA misses = 88. Winner = DATA
[DUEL] Epoch ended. INSTR misses = 35, DATA misses = 24. Winner = DATA
[DUEL] Epoch ended. INSTR misses = 25, DATA misses = 6. Winner = DATA
[DUEL] Epoch ended. INSTR misses = 15, DATA misses = 18. Winner = INSTR
[DUEL] Epoch ended. INSTR misses = 13, DATA misses = 6. Winner = DATA
[DUEL] Epoch ended. INSTR misses = 21, DATA misses = 17. Winner = DATA
[DUEL] Epoch ended. INSTR misses = 2, DATA misses = 2. Winner = INSTR
[DUEL] Epoch ended. INSTR misses = 133, DATA misses = 151. Winner = INSTR
[DUEL] Epoch ended. INSTR misses = 30, DATA misses = 31. Winner = INSTR
[DUEL] Epoch ended. INSTR misses = 9, DATA misses = 12. Winner = INSTR
[DUEL] Epoch ended. INSTR misses = 265, DATA misses = 345. Winner = INSTR
[DUEL] Epoch ended. INSTR misses = 139, DATA misses = 183. Winner = INSTR
[DUEL] Epoch ended. INSTR misses = 18, DATA misses = 29. Winner = INSTR
[DUEL] Epoch ended. INSTR misses = 13, DATA misses = 23. Winner = INSTR
[DUEL] Epoch ended. INSTR misses = 24, DATA misses = 43. Winner = INSTR
Heartbeat CPU 0 instructions: 60000001 cycles: 36615310 heartbeat IPC: 1.123 cumulative IPC: 0.9739 (Simulation time: 00 hr 04 min 51 sec)
[DUEL] Epoch ended. INSTR misses = 94, DATA misses = 118. Winner = INSTR
[DUEL] Epoch ended. INSTR misses = 141, DATA misses = 150. Winner = INSTR
[DUEL] Epoch ended. INSTR misses = 34, DATA misses = 20. Winner = DATA
[DUEL] Epoch ended. INSTR misses = 19, DATA misses = 15. Winner = DATA
[DUEL] Epoch ended. INSTR misses = 26, DATA misses = 16. Winner = DATA
[DUEL] Epoch ended. INSTR misses = 12, DATA misses = 7. Winner = DATA
[DUEL] Epoch ended. INSTR misses = 24, DATA misses = 16. Winner = DATA
[DUEL] Epoch ended. INSTR misses = 56, DATA misses = 70. Winner = INSTR
[DUEL] Epoch ended. INSTR misses = 117, DATA misses = 169. Winner = INSTR
[DUEL] Epoch ended. INSTR misses = 92, DATA misses = 99. Winner = INSTR
[DUEL] Epoch ended. INSTR misses = 34, DATA misses = 38. Winner = INSTR
[DUEL] Epoch ended. INSTR misses = 98, DATA misses = 115. Winner = INSTR
[DUEL] Epoch ended. INSTR misses = 230, DATA misses = 358. Winner = INSTR
[DUEL] Epoch ended. INSTR misses = 68, DATA misses = 93. Winner = INSTR
[DUEL] Epoch ended. INSTR misses = 19, DATA misses = 37. Winner = INSTR
[DUEL] Epoch ended. INSTR misses = 4, DATA misses = 0. Winner = DATA
[DUEL] Epoch ended. INSTR misses = 22, DATA misses = 42. Winner = INSTR
[DUEL] Epoch ended. INSTR misses = 191, DATA misses = 226. Winner = INSTR
[DUEL] Epoch ended. INSTR misses = 49, DATA misses = 45. Winner = DATA
[DUEL] Epoch ended. INSTR misses = 35, DATA misses = 14. Winner = DATA
Heartbeat CPU 0 instructions: 70000001 cycles: 46751218 heartbeat IPC: 0.9866 cumulative IPC: 0.9771 (Simulation time: 00 hr 05 min 59 sec)
[DUEL] Epoch ended. INSTR misses = 16, DATA misses = 4. Winner = DATA
[DUEL] Epoch ended. INSTR misses = 23, DATA misses = 20. Winner = DATA
[DUEL] Epoch ended. INSTR misses = 8, DATA misses = 4. Winner = DATA
[DUEL] Epoch ended. INSTR misses = 27, DATA misses = 16. Winner = DATA
[DUEL] Epoch ended. INSTR misses = 126, DATA misses = 176. Winner = INSTR
[DUEL] Epoch ended. INSTR misses = 100, DATA misses = 119. Winner = INSTR
[DUEL] Epoch ended. INSTR misses = 25, DATA misses = 26. Winner = INSTR
[DUEL] Epoch ended. INSTR misses = 83, DATA misses = 99. Winner = INSTR
[DUEL] Epoch ended. INSTR misses = 224, DATA misses = 353. Winner = INSTR
[DUEL] Epoch ended. INSTR misses = 77, DATA misses = 109. Winner = INSTR
[DUEL] Epoch ended. INSTR misses = 16, DATA misses = 37. Winner = INSTR
[DUEL] Epoch ended. INSTR misses = 4, DATA misses = 0. Winner = DATA
[DUEL] Epoch ended. INSTR misses = 21, DATA misses = 42. Winner = INSTR
[DUEL] Epoch ended. INSTR misses = 176, DATA misses = 219. Winner = INSTR
[DUEL] Epoch ended. INSTR misses = 65, DATA misses = 54. Winner = DATA
[DUEL] Epoch ended. INSTR misses = 35, DATA misses = 16. Winner = DATA
[DUEL] Epoch ended. INSTR misses = 22, DATA misses = 5. Winner = DATA
[DUEL] Epoch ended. INSTR misses = 19, DATA misses = 20. Winner = INSTR
[DUEL] Epoch ended. INSTR misses = 7, DATA misses = 3. Winner = DATA
Heartbeat CPU 0 instructions: 80000003 cycles: 56399033 heartbeat IPC: 1.037 cumulative IPC: 0.9884 (Simulation time: 00 hr 07 min 04 sec)
[DUEL] Epoch ended. INSTR misses = 24, DATA misses = 15. Winner = DATA
[DUEL] Epoch ended. INSTR misses = 123, DATA misses = 171. Winner = INSTR
[DUEL] Epoch ended. INSTR misses = 87, DATA misses = 96. Winner = INSTR
[DUEL] Epoch ended. INSTR misses = 74, DATA misses = 82. Winner = INSTR
[DUEL] Epoch ended. INSTR misses = 9, DATA misses = 11. Winner = INSTR
[DUEL] Epoch ended. INSTR misses = 241, DATA misses = 310. Winner = INSTR
[DUEL] Epoch ended. INSTR misses = 133, DATA misses = 203. Winner = INSTR
[DUEL] Epoch ended. INSTR misses = 15, DATA misses = 30. Winner = INSTR
[DUEL] Epoch ended. INSTR misses = 9, DATA misses = 22. Winner = INSTR
[DUEL] Epoch ended. INSTR misses = 24, DATA misses = 41. Winner = INSTR
[DUEL] Epoch ended. INSTR misses = 80, DATA misses = 97. Winner = INSTR
[DUEL] Epoch ended. INSTR misses = 143, DATA misses = 116. Winner = DATA
[DUEL] Epoch ended. INSTR misses = 42, DATA misses = 24. Winner = DATA
[DUEL] Epoch ended. INSTR misses = 19, DATA misses = 14. Winner = DATA
[DUEL] Epoch ended. INSTR misses = 24, DATA misses = 15. Winner = DATA
[DUEL] Epoch ended. INSTR misses = 14, DATA misses = 9. Winner = DATA
[DUEL] Epoch ended. INSTR misses = 17, DATA misses = 14. Winner = DATA
[DUEL] Epoch ended. INSTR misses = 33, DATA misses = 18. Winner = DATA
[DUEL] Epoch ended. INSTR misses = 136, DATA misses = 196. Winner = INSTR
[DUEL] Epoch ended. INSTR misses = 95, DATA misses = 101. Winner = INSTR
Heartbeat CPU 0 instructions: 90000001 cycles: 66746212 heartbeat IPC: 0.9664 cumulative IPC: 0.9847 (Simulation time: 00 hr 08 min 15 sec)
[DUEL] Epoch ended. INSTR misses = 33, DATA misses = 35. Winner = INSTR
[DUEL] Epoch ended. INSTR misses = 91, DATA misses = 118. Winner = INSTR
[DUEL] Epoch ended. INSTR misses = 216, DATA misses = 345. Winner = INSTR
[DUEL] Epoch ended. INSTR misses = 73, DATA misses = 71. Winner = DATA
[DUEL] Epoch ended. INSTR misses = 16, DATA misses = 36. Winner = INSTR
[DUEL] Epoch ended. INSTR misses = 4, DATA misses = 0. Winner = DATA
[DUEL] Epoch ended. INSTR misses = 21, DATA misses = 41. Winner = INSTR
[DUEL] Epoch ended. INSTR misses = 181, DATA misses = 229. Winner = INSTR
[DUEL] Epoch ended. INSTR misses = 56, DATA misses = 39. Winner = DATA
[DUEL] Epoch ended. INSTR misses = 52, DATA misses = 27. Winner = DATA
[DUEL] Epoch ended. INSTR misses = 15, DATA misses = 9. Winner = DATA
[DUEL] Epoch ended. INSTR misses = 17, DATA misses = 17. Winner = INSTR
[DUEL] Epoch ended. INSTR misses = 9, DATA misses = 4. Winner = DATA
[DUEL] Epoch ended. INSTR misses = 28, DATA misses = 15. Winner = DATA
[DUEL] Epoch ended. INSTR misses = 119, DATA misses = 159. Winner = INSTR
[DUEL] Epoch ended. INSTR misses = 101, DATA misses = 119. Winner = INSTR
[DUEL] Epoch ended. INSTR misses = 24, DATA misses = 24. Winner = INSTR
[DUEL] Epoch ended. INSTR misses = 93, DATA misses = 99. Winner = INSTR
[DUEL] Epoch ended. INSTR misses = 216, DATA misses = 335. Winner = INSTR
[DUEL] Epoch ended. INSTR misses = 74, DATA misses = 122. Winner = INSTR
Heartbeat CPU 0 instructions: 100000001 cycles: 76721852 heartbeat IPC: 1.002 cumulative IPC: 0.9872 (Simulation time: 00 hr 09 min 24 sec)
[DUEL] Epoch ended. INSTR misses = 17, DATA misses = 36. Winner = INSTR
[DUEL] Epoch ended. INSTR misses = 4, DATA misses = 0. Winner = DATA
*** Reached end of trace: (0, "../traces/secret_traces/compute_fp/compute_fp_104.champsimtrace.xz")
[DUEL] Epoch ended. INSTR misses = 118, DATA misses = 128. Winner = INSTR
[DUEL] Epoch ended. INSTR misses = 163, DATA misses = 141. Winner = DATA
[DUEL] Epoch ended. INSTR misses = 89, DATA misses = 67. Winner = DATA
[DUEL] Epoch ended. INSTR misses = 63, DATA misses = 97. Winner = INSTR
[DUEL] Epoch ended. INSTR misses = 104, DATA misses = 111. Winner = INSTR
[DUEL] Epoch ended. INSTR misses = 23, DATA misses = 32. Winner = INSTR
[DUEL] Epoch ended. INSTR misses = 150, DATA misses = 183. Winner = INSTR
[DUEL] Epoch ended. INSTR misses = 134, DATA misses = 180. Winner = INSTR
[DUEL] Epoch ended. INSTR misses = 18, DATA misses = 39. Winner = INSTR
[DUEL] Epoch ended. INSTR misses = 12, DATA misses = 22. Winner = INSTR
[DUEL] Epoch ended. INSTR misses = 20, DATA misses = 41. Winner = INSTR
[DUEL] Epoch ended. INSTR misses = 65, DATA misses = 96. Winner = INSTR
[DUEL] Epoch ended. INSTR misses = 60, DATA misses = 20. Winner = DATA
[DUEL] Epoch ended. INSTR misses = 20, DATA misses = 17. Winner = DATA
[DUEL] Epoch ended. INSTR misses = 24, DATA misses = 19. Winner = DATA
[DUEL] Epoch ended. INSTR misses = 17, DATA misses = 6. Winner = DATA
[DUEL] Epoch ended. INSTR misses = 21, DATA misses = 10. Winner = DATA
Heartbeat CPU 0 instructions: 110000002 cycles: 85649536 heartbeat IPC: 1.12 cumulative IPC: 1.002 (Simulation time: 00 hr 10 min 25 sec)
[DUEL] Epoch ended. INSTR misses = 68, DATA misses = 108. Winner = INSTR
[DUEL] Epoch ended. INSTR misses = 166, DATA misses = 181. Winner = INSTR
[DUEL] Epoch ended. INSTR misses = 285, DATA misses = 223. Winner = DATA
[DUEL] Epoch ended. INSTR misses = 117, DATA misses = 135. Winner = INSTR
[DUEL] Epoch ended. INSTR misses = 156, DATA misses = 163. Winner = INSTR
[DUEL] Epoch ended. INSTR misses = 186, DATA misses = 202. Winner = INSTR
[DUEL] Epoch ended. INSTR misses = 134, DATA misses = 142. Winner = INSTR
[DUEL] Epoch ended. INSTR misses = 146, DATA misses = 109. Winner = DATA
[DUEL] Epoch ended. INSTR misses = 178, DATA misses = 117. Winner = DATA
[DUEL] Epoch ended. INSTR misses = 111, DATA misses = 70. Winner = DATA
[DUEL] Epoch ended. INSTR misses = 103, DATA misses = 122. Winner = INSTR
[DUEL] Epoch ended. INSTR misses = 63, DATA misses = 47. Winner = DATA
[DUEL] Epoch ended. INSTR misses = 34, DATA misses = 28. Winner = DATA
[DUEL] Epoch ended. INSTR misses = 15, DATA misses = 25. Winner = INSTR
[DUEL] Epoch ended. INSTR misses = 14, DATA misses = 13. Winner = DATA
[DUEL] Epoch ended. INSTR misses = 3, DATA misses = 3. Winner = INSTR
[DUEL] Epoch ended. INSTR misses = 26, DATA misses = 29. Winner = INSTR
[DUEL] Epoch ended. INSTR misses = 9, DATA misses = 4. Winner = DATA
[DUEL] Epoch ended. INSTR misses = 26, DATA misses = 21. Winner = DATA
Heartbeat CPU 0 instructions: 120000004 cycles: 104124097 heartbeat IPC: 0.5413 cumulative IPC: 0.9155 (Simulation time: 00 hr 12 min 12 sec)
[DUEL] Epoch ended. INSTR misses = 21, DATA misses = 19. Winner = DATA
[DUEL] Epoch ended. INSTR misses = 31, DATA misses = 25. Winner = DATA
[DUEL] Epoch ended. INSTR misses = 92, DATA misses = 82. Winner = DATA
[DUEL] Epoch ended. INSTR misses = 41, DATA misses = 60. Winner = INSTR
[DUEL] Epoch ended. INSTR misses = 58, DATA misses = 46. Winner = DATA
[DUEL] Epoch ended. INSTR misses = 18, DATA misses = 19. Winner = INSTR
[DUEL] Epoch ended. INSTR misses = 16, DATA misses = 20. Winner = INSTR
[DUEL] Epoch ended. INSTR misses = 108, DATA misses = 93. Winner = DATA
[DUEL] Epoch ended. INSTR misses = 59, DATA misses = 69. Winner = INSTR
[DUEL] Epoch ended. INSTR misses = 22, DATA misses = 22. Winner = INSTR
[DUEL] Epoch ended. INSTR misses = 283, DATA misses = 298. Winner = INSTR
[DUEL] Epoch ended. INSTR misses = 272, DATA misses = 301. Winner = INSTR
[DUEL] Epoch ended. INSTR misses = 17, DATA misses = 19. Winner = INSTR
[DUEL] Epoch ended. INSTR misses = 27, DATA misses = 40. Winner = INSTR
[DUEL] Epoch ended. INSTR misses = 28, DATA misses = 34. Winner = INSTR
[DUEL] Epoch ended. INSTR misses = 41, DATA misses = 70. Winner = INSTR
[DUEL] Epoch ended. INSTR misses = 193, DATA misses = 193. Winner = INSTR
[DUEL] Epoch ended. INSTR misses = 40, DATA misses = 33. Winner = DATA
[DUEL] Epoch ended. INSTR misses = 25, DATA misses = 14. Winner = DATA
[DUEL] Epoch ended. INSTR misses = 24, DATA misses = 16. Winner = DATA
Heartbeat CPU 0 instructions: 130000001 cycles: 116082646 heartbeat IPC: 0.8362 cumulative IPC: 0.9069 (Simulation time: 00 hr 13 min 32 sec)
Simulation finished CPU 0 instructions: 100000008 cycles: 110269786 cumulative IPC: 0.9069 (Simulation time: 00 hr 13 min 32 sec)
Simulation complete CPU 0 instructions: 100000008 cycles: 110269786 cumulative IPC: 0.9069 (Simulation time: 00 hr 13 min 32 sec)

ChampSim completed all CPUs

=== Simulation ===
CPU 0 runs ../traces/secret_traces/compute_fp/compute_fp_104.champsimtrace.xz
Region of Interest Statistics

CPU 0 cumulative IPC: 0.9069 instructions: 100000008 cycles: 110269786
CPU 0 Branch Prediction Accuracy: 93.94% MPKI: 11.67 Average ROB Occupancy at Mispredict: 38.86
Branch type MPKI
BRANCH_DIRECT_JUMP: 0.00871
BRANCH_INDIRECT: 0.158
BRANCH_CONDITIONAL: 11.5
BRANCH_DIRECT_CALL: 0.0221
BRANCH_INDIRECT_CALL: 0.00278
BRANCH_RETURN: 0.0123

LLC TOTAL        ACCESS:    5474255 HIT:    2066653 MISS:    3407602
LLC LOAD         ACCESS:    1047151 HIT:     347577 MISS:     699574
LLC RFO          ACCESS:     550323 HIT:     220990 MISS:     329333
LLC PREFETCH     ACCESS:    2578528 HIT:     789450 MISS:    1789078
LLC WRITE        ACCESS:    1263977 HIT:     705833 MISS:     558144
LLC TRANSLATION  ACCESS:      34276 HIT:       2803 MISS:      31473
LLC PREFETCH REQUESTED:          0 ISSUED:          0 USEFUL:          0 USELESS:          0
LLC AVERAGE MISS LATENCY: 328.2 cycles
cpu0_DTLB TOTAL        ACCESS:   26288149 HIT:   25466924 MISS:     821225
cpu0_DTLB LOAD         ACCESS:   26288149 HIT:   25466924 MISS:     821225
cpu0_DTLB RFO          ACCESS:          0 HIT:          0 MISS:          0
cpu0_DTLB PREFETCH     ACCESS:          0 HIT:          0 MISS:          0
cpu0_DTLB WRITE        ACCESS:          0 HIT:          0 MISS:          0
cpu0_DTLB TRANSLATION  ACCESS:          0 HIT:          0 MISS:          0
cpu0_DTLB PREFETCH REQUESTED:          0 ISSUED:          0 USEFUL:          0 USELESS:          0
cpu0_DTLB AVERAGE MISS LATENCY: 21.65 cycles
cpu0_ITLB TOTAL        ACCESS:     133813 HIT:     132140 MISS:       1673
cpu0_ITLB LOAD         ACCESS:     133813 HIT:     132140 MISS:       1673
cpu0_ITLB RFO          ACCESS:          0 HIT:          0 MISS:          0
cpu0_ITLB PREFETCH     ACCESS:          0 HIT:          0 MISS:          0
cpu0_ITLB WRITE        ACCESS:          0 HIT:          0 MISS:          0
cpu0_ITLB TRANSLATION  ACCESS:          0 HIT:          0 MISS:          0
cpu0_ITLB PREFETCH REQUESTED:          0 ISSUED:          0 USEFUL:          0 USELESS:          0
cpu0_ITLB AVERAGE MISS LATENCY: 75.01 cycles
cpu0_L1D TOTAL        ACCESS:   48359394 HIT:   37008236 MISS:   11351158
cpu0_L1D LOAD         ACCESS:   16877330 HIT:   12622631 MISS:    4254699
cpu0_L1D RFO          ACCESS:          0 HIT:          0 MISS:          0
cpu0_L1D PREFETCH     ACCESS:   24264581 HIT:   19324395 MISS:    4940186
cpu0_L1D WRITE        ACCESS:    7119139 HIT:    5033412 MISS:    2085727
cpu0_L1D TRANSLATION  ACCESS:      98344 HIT:      27798 MISS:      70546
cpu0_L1D PREFETCH REQUESTED:  107466339 ISSUED:   24264568 USEFUL:     872137 USELESS:     160841
cpu0_L1D AVERAGE MISS LATENCY: 53.9 cycles
cpu0_L1I TOTAL        ACCESS:     194218 HIT:     154097 MISS:      40121
cpu0_L1I LOAD         ACCESS:      65100 HIT:      54433 MISS:      10667
cpu0_L1I RFO          ACCESS:          0 HIT:          0 MISS:          0
cpu0_L1I PREFETCH     ACCESS:     129118 HIT:      99664 MISS:      29454
cpu0_L1I WRITE        ACCESS:          0 HIT:          0 MISS:          0
cpu0_L1I TRANSLATION  ACCESS:          0 HIT:          0 MISS:          0
cpu0_L1I PREFETCH REQUESTED:     177483 ISSUED:     129118 USEFUL:      16924 USELESS:      10378
cpu0_L1I AVERAGE MISS LATENCY: 149 cycles
cpu0_L2C TOTAL        ACCESS:   17050783 HIT:   10117411 MISS:    6933372
cpu0_L2C LOAD         ACCESS:    2807259 HIT:    1538907 MISS:    1268352
cpu0_L2C RFO          ACCESS:     848369 HIT:     291592 MISS:     556777
cpu0_L2C PREFETCH     ACCESS:   11321200 HIT:    6247343 MISS:    5073857
cpu0_L2C WRITE        ACCESS:    2004019 HIT:    2003909 MISS:        110
cpu0_L2C TRANSLATION  ACCESS:      69936 HIT:      35660 MISS:      34276
cpu0_L2C PREFETCH REQUESTED:    7619607 ISSUED:    6889417 USEFUL:     818186 USELESS:     701131
cpu0_L2C AVERAGE MISS LATENCY: 169 cycles
cpu0_STLB TOTAL        ACCESS:     525566 HIT:     428097 MISS:      97469
cpu0_STLB LOAD         ACCESS:     525566 HIT:     428097 MISS:      97469
cpu0_STLB RFO          ACCESS:          0 HIT:          0 MISS:          0
cpu0_STLB PREFETCH     ACCESS:          0 HIT:          0 MISS:          0
cpu0_STLB WRITE        ACCESS:          0 HIT:          0 MISS:          0
cpu0_STLB TRANSLATION  ACCESS:          0 HIT:          0 MISS:          0
cpu0_STLB PREFETCH REQUESTED:          0 ISSUED:          0 USEFUL:          0 USELESS:          0
cpu0_STLB AVERAGE MISS LATENCY: 169 cycles

DRAM Statistics

Channel 0 RQ ROW_BUFFER_HIT:     482385
  ROW_BUFFER_MISS:     951166
 AVG DBUS CONGESTED CYCLE: 3.932
WQ ROW_BUFFER_HIT: Channel 0 
  ROW_BUFFER_MISS:      25738
  FULL:     310302

Channel 1 RQ ROW_BUFFER_HIT:     476402
  ROW_BUFFER_MISS:     938108
 AVG DBUS CONGESTED CYCLE: 3.926
WQ ROW_BUFFER_HIT: Channel 1 
  ROW_BUFFER_MISS:      26593
  FULL:     308089
BERTI TO_L1: 64033088 TO_L2: 65425423 TO_L2_BC_MSHR: 23970763
BERTI AVG_LAT: 122.683 NUM_TRACK_LATENCY: 4998419 NUM_CANT_TRACK_LATENCY: 929
BERTI CROSS_PAGE 18745524 NO_CROSS_PAGE: 110712987
BERTI FOUND_BERTI: 27675726 NO_FOUND_BERTI: 4436401
BERTI AVERAGE_ISSUED: 3.86721
CPU 0 L1I Entangling prefetcher final stats
IP accesses: 44f6 113d80 1075 / 83826
IP misses: 44f6 113d80 1073 / 29393
IP hits: 0 0 0 / 0
IP late: 5aed 16bb40 23 / 5609
IP wrong: 5aef 16bbc0 28 / 10331
miss rate: 0.350643
coverage: 0
coverage_late: 0.190828
accuracy: 0
accuracy_late: 0.351883
discarded: 0
evicts entangled j table: 0
evicts entangled k table: 1592
max bb size: 65
formats: 445 0 1320 786 333 679 0 
hist_lookups: 1198 1259 943 850 759 642 523 429 349 271 219 139 82 56 25 0 6 3583 
hist_lookups_evict: 0.0529428 %
hist_lookups_shortlat: 31.6157 %
bb_found_hist: 0 15343 6771 3054 1288 667 279 117 109 37 21 7 12 14 3 0 18 0 0 0 0 0 0 0 0 0 0 0 0 0 0 0 0 0 0 0 0 0 0 0 0 0 0 0 0 0 0 0 0 2 0 0 0 0 0 0 0 0 0 0 0 0 0 0 
bb_found_summary: 51273 27742 1.84821
entangled_found_hist: 0 8379 5704 9921 2006 373 67 0 
entangled_found_summary: 59841 26450 2.26242
bb_ent_found_hist: 0 19660 10680 5167 2287 1375 891 342 227 58 66 6 0 8 0 0 1 0 0 0 0 0 0 0 0 0 0 0 0 0 0 0 0 0 0 0 0 0 0 0 0 0 0 0 0 0 0 0 0 3 0 0 0 0 0 0 0 0 0 0 0 0 0 0 
bb_ent_found_summary: 83615 40771 2.05085
