WARNING: physical memory size is smaller than virtual memory size.

*** ChampSim Multicore Out-of-Order Simulator ***
Warmup Instructions: 30000000
Simulation Instructions: 100000000
Number of CPUs: 1
Page size: 4096

BTB:
Basic BTB sets: 1024 ways: 8
Indirect:
history lengths: 0 0 10 16 27 44 60 96 109 219 449 487 714 1313 2146 3881 
ITTAGE tables: 64768 bytes;Region table: 240 bytes;IUM: 384 bytes;Total Storage= 65392 bytes;
RAS:
RAS size: 64
[LLC] INSTR Demand IPV: 1 2 2 1 4 Prefetch IPV: 1 2 1 1 4
[LLC] DATA  Demand IPV: 1 1 1 2 4 Prefetch IPV: 1 1 2 2 4
Berti Prefetcher
CPU 0 Entangling prefetcher
Off-chip DRAM Size: 8 GiB Channels: 2 Width: 64-bit Data Race: 6400 MT/s
[DUEL] Epoch ended. INSTR misses = 141, DATA misses = 154. Winner = INSTR
[DUEL] Epoch ended. INSTR misses = 59, DATA misses = 50. Winner = DATA
[DUEL] Epoch ended. INSTR misses = 56, DATA misses = 58. Winner = INSTR
[DUEL] Epoch ended. INSTR misses = 33, DATA misses = 32. Winner = DATA
[DUEL] Epoch ended. INSTR misses = 44, DATA misses = 44. Winner = INSTR
[DUEL] Epoch ended. INSTR misses = 48, DATA misses = 48. Winner = INSTR
[DUEL] Epoch ended. INSTR misses = 32, DATA misses = 32. Winner = INSTR
[DUEL] Epoch ended. INSTR misses = 58, DATA misses = 59. Winner = INSTR
[DUEL] Epoch ended. INSTR misses = 32, DATA misses = 32. Winner = INSTR
[DUEL] Epoch ended. INSTR misses = 137, DATA misses = 162. Winner = INSTR
[DUEL] Epoch ended. INSTR misses = 35, DATA misses = 75. Winner = INSTR
[DUEL] Epoch ended. INSTR misses = 18, DATA misses = 26. Winner = INSTR
[DUEL] Epoch ended. INSTR misses = 1, DATA misses = 1. Winner = INSTR
[DUEL] Epoch ended. INSTR misses = 11, DATA misses = 13. Winner = INSTR
[DUEL] Epoch ended. INSTR misses = 124, DATA misses = 111. Winner = DATA
[DUEL] Epoch ended. INSTR misses = 95, DATA misses = 93. Winner = DATA
[DUEL] Epoch ended. INSTR misses = 64, DATA misses = 64. Winner = INSTR
[DUEL] Epoch ended. INSTR misses = 80, DATA misses = 80. Winner = INSTR
[DUEL] Epoch ended. INSTR misses = 81, DATA misses = 80. Winner = DATA
Heartbeat CPU 0 instructions: 10000005 cycles: 1789019 heartbeat IPC: 5.59 cumulative IPC: 5.59 (Simulation time: 00 hr 00 min 28 sec)
[DUEL] Epoch ended. INSTR misses = 64, DATA misses = 64. Winner = INSTR
[DUEL] Epoch ended. INSTR misses = 94, DATA misses = 90. Winner = DATA
[DUEL] Epoch ended. INSTR misses = 97, DATA misses = 99. Winner = INSTR
[DUEL] Epoch ended. INSTR misses = 90, DATA misses = 96. Winner = INSTR
[DUEL] Epoch ended. INSTR misses = 87, DATA misses = 86. Winner = DATA
[DUEL] Epoch ended. INSTR misses = 80, DATA misses = 79. Winner = DATA
[DUEL] Epoch ended. INSTR misses = 96, DATA misses = 96. Winner = INSTR
[DUEL] Epoch ended. INSTR misses = 64, DATA misses = 64. Winner = INSTR
[DUEL] Epoch ended. INSTR misses = 93, DATA misses = 96. Winner = INSTR
[DUEL] Epoch ended. INSTR misses = 65, DATA misses = 63. Winner = DATA
[DUEL] Epoch ended. INSTR misses = 64, DATA misses = 64. Winner = INSTR
[DUEL] Epoch ended. INSTR misses = 80, DATA misses = 80. Winner = INSTR
[DUEL] Epoch ended. INSTR misses = 94, DATA misses = 95. Winner = INSTR
[DUEL] Epoch ended. INSTR misses = 91, DATA misses = 94. Winner = INSTR
[DUEL] Epoch ended. INSTR misses = 64, DATA misses = 64. Winner = INSTR
[DUEL] Epoch ended. INSTR misses = 95, DATA misses = 96. Winner = INSTR
[DUEL] Epoch ended. INSTR misses = 64, DATA misses = 64. Winner = INSTR
[DUEL] Epoch ended. INSTR misses = 80, DATA misses = 75. Winner = DATA
[DUEL] Epoch ended. INSTR misses = 81, DATA misses = 80. Winner = DATA
[DUEL] Epoch ended. INSTR misses = 65, DATA misses = 64. Winner = DATA
Heartbeat CPU 0 instructions: 20000003 cycles: 3463446 heartbeat IPC: 5.972 cumulative IPC: 5.775 (Simulation time: 00 hr 00 min 56 sec)
[DUEL] Epoch ended. INSTR misses = 80, DATA misses = 80. Winner = INSTR
[DUEL] Epoch ended. INSTR misses = 93, DATA misses = 94. Winner = INSTR
[DUEL] Epoch ended. INSTR misses = 61, DATA misses = 63. Winner = INSTR
[DUEL] Epoch ended. INSTR misses = 65, DATA misses = 74. Winner = INSTR
[DUEL] Epoch ended. INSTR misses = 64, DATA misses = 64. Winner = INSTR
[DUEL] Epoch ended. INSTR misses = 80, DATA misses = 72. Winner = DATA
[DUEL] Epoch ended. INSTR misses = 84, DATA misses = 95. Winner = INSTR
[DUEL] Epoch ended. INSTR misses = 79, DATA misses = 65. Winner = DATA
[DUEL] Epoch ended. INSTR misses = 80, DATA misses = 80. Winner = INSTR
[DUEL] Epoch ended. INSTR misses = 79, DATA misses = 78. Winner = DATA
[DUEL] Epoch ended. INSTR misses = 50, DATA misses = 48. Winner = DATA
[DUEL] Epoch ended. INSTR misses = 76, DATA misses = 79. Winner = INSTR
[DUEL] Epoch ended. INSTR misses = 80, DATA misses = 81. Winner = INSTR
[DUEL] Epoch ended. INSTR misses = 80, DATA misses = 82. Winner = INSTR
[DUEL] Epoch ended. INSTR misses = 80, DATA misses = 83. Winner = INSTR
[DUEL] Epoch ended. INSTR misses = 80, DATA misses = 80. Winner = INSTR
[DUEL] Epoch ended. INSTR misses = 78, DATA misses = 76. Winner = DATA
[DUEL] Epoch ended. INSTR misses = 64, DATA misses = 64. Winner = INSTR
[DUEL] Epoch ended. INSTR misses = 65, DATA misses = 69. Winner = INSTR
Heartbeat CPU 0 instructions: 30000002 cycles: 5130709 heartbeat IPC: 5.998 cumulative IPC: 5.847 (Simulation time: 00 hr 01 min 24 sec)
Warmup finished CPU 0 instructions: 30000002 cycles: 5130710 cumulative IPC: 5.847 (Simulation time: 00 hr 01 min 24 sec)
Warmup complete CPU 0 instructions: 30000002 cycles: 5130710 cumulative IPC: 5.847 (Simulation time: 00 hr 01 min 24 sec)
[DUEL] Epoch ended. INSTR misses = 79, DATA misses = 59. Winner = DATA
[DUEL] Epoch ended. INSTR misses = 94, DATA misses = 93. Winner = DATA
[DUEL] Epoch ended. INSTR misses = 64, DATA misses = 64. Winner = INSTR
[DUEL] Epoch ended. INSTR misses = 64, DATA misses = 64. Winner = INSTR
[DUEL] Epoch ended. INSTR misses = 98, DATA misses = 107. Winner = INSTR
[DUEL] Epoch ended. INSTR misses = 96, DATA misses = 96. Winner = INSTR
[DUEL] Epoch ended. INSTR misses = 94, DATA misses = 95. Winner = INSTR
[DUEL] Epoch ended. INSTR misses = 116, DATA misses = 100. Winner = DATA
[DUEL] Epoch ended. INSTR misses = 94, DATA misses = 98. Winner = INSTR
[DUEL] Epoch ended. INSTR misses = 106, DATA misses = 96. Winner = DATA
[DUEL] Epoch ended. INSTR misses = 55, DATA misses = 50. Winner = DATA
[DUEL] Epoch ended. INSTR misses = 75, DATA misses = 75. Winner = INSTR
[DUEL] Epoch ended. INSTR misses = 116, DATA misses = 126. Winner = INSTR
[DUEL] Epoch ended. INSTR misses = 63, DATA misses = 68. Winner = INSTR
[DUEL] Epoch ended. INSTR misses = 76, DATA misses = 64. Winner = DATA
[DUEL] Epoch ended. INSTR misses = 110, DATA misses = 118. Winner = INSTR
[DUEL] Epoch ended. INSTR misses = 124, DATA misses = 127. Winner = INSTR
[DUEL] Epoch ended. INSTR misses = 94, DATA misses = 103. Winner = INSTR
[DUEL] Epoch ended. INSTR misses = 81, DATA misses = 80. Winner = DATA
[DUEL] Epoch ended. INSTR misses = 77, DATA misses = 83. Winner = INSTR
Heartbeat CPU 0 instructions: 40000003 cycles: 11658136 heartbeat IPC: 1.532 cumulative IPC: 1.532 (Simulation time: 00 hr 02 min 25 sec)
[DUEL] Epoch ended. INSTR misses = 75, DATA misses = 69. Winner = DATA
[DUEL] Epoch ended. INSTR misses = 80, DATA misses = 80. Winner = INSTR
[DUEL] Epoch ended. INSTR misses = 75, DATA misses = 81. Winner = INSTR
[DUEL] Epoch ended. INSTR misses = 61, DATA misses = 57. Winner = DATA
[DUEL] Epoch ended. INSTR misses = 72, DATA misses = 62. Winner = DATA
[DUEL] Epoch ended. INSTR misses = 92, DATA misses = 93. Winner = INSTR
[DUEL] Epoch ended. INSTR misses = 67, DATA misses = 74. Winner = INSTR
[DUEL] Epoch ended. INSTR misses = 67, DATA misses = 69. Winner = INSTR
[DUEL] Epoch ended. INSTR misses = 88, DATA misses = 99. Winner = INSTR
[DUEL] Epoch ended. INSTR misses = 56, DATA misses = 74. Winner = INSTR
[DUEL] Epoch ended. INSTR misses = 82, DATA misses = 93. Winner = INSTR
[DUEL] Epoch ended. INSTR misses = 99, DATA misses = 95. Winner = DATA
[DUEL] Epoch ended. INSTR misses = 105, DATA misses = 93. Winner = DATA
[DUEL] Epoch ended. INSTR misses = 66, DATA misses = 66. Winner = INSTR
[DUEL] Epoch ended. INSTR misses = 89, DATA misses = 79. Winner = DATA
[DUEL] Epoch ended. INSTR misses = 81, DATA misses = 88. Winner = INSTR
[DUEL] Epoch ended. INSTR misses = 89, DATA misses = 74. Winner = DATA
[DUEL] Epoch ended. INSTR misses = 105, DATA misses = 101. Winner = DATA
[DUEL] Epoch ended. INSTR misses = 80, DATA misses = 80. Winner = INSTR
Heartbeat CPU 0 instructions: 50000000 cycles: 17983412 heartbeat IPC: 1.581 cumulative IPC: 1.556 (Simulation time: 00 hr 03 min 26 sec)
[DUEL] Epoch ended. INSTR misses = 96, DATA misses = 96. Winner = INSTR
[DUEL] Epoch ended. INSTR misses = 117, DATA misses = 117. Winner = INSTR
[DUEL] Epoch ended. INSTR misses = 78, DATA misses = 80. Winner = INSTR
[DUEL] Epoch ended. INSTR misses = 80, DATA misses = 80. Winner = INSTR
[DUEL] Epoch ended. INSTR misses = 49, DATA misses = 53. Winner = INSTR
[DUEL] Epoch ended. INSTR misses = 80, DATA misses = 75. Winner = DATA
[DUEL] Epoch ended. INSTR misses = 94, DATA misses = 96. Winner = INSTR
[DUEL] Epoch ended. INSTR misses = 80, DATA misses = 80. Winner = INSTR
[DUEL] Epoch ended. INSTR misses = 78, DATA misses = 80. Winner = INSTR
[DUEL] Epoch ended. INSTR misses = 80, DATA misses = 80. Winner = INSTR
[DUEL] Epoch ended. INSTR misses = 64, DATA misses = 64. Winner = INSTR
[DUEL] Epoch ended. INSTR misses = 96, DATA misses = 96. Winner = INSTR
[DUEL] Epoch ended. INSTR misses = 80, DATA misses = 73. Winner = DATA
[DUEL] Epoch ended. INSTR misses = 99, DATA misses = 112. Winner = INSTR
[DUEL] Epoch ended. INSTR misses = 93, DATA misses = 96. Winner = INSTR
[DUEL] Epoch ended. INSTR misses = 79, DATA misses = 64. Winner = DATA
[DUEL] Epoch ended. INSTR misses = 80, DATA misses = 78. Winner = DATA
[DUEL] Epoch ended. INSTR misses = 96, DATA misses = 96. Winner = INSTR
[DUEL] Epoch ended. INSTR misses = 80, DATA misses = 76. Winner = DATA
[DUEL] Epoch ended. INSTR misses = 65, DATA misses = 64. Winner = DATA
Heartbeat CPU 0 instructions: 60000000 cycles: 24455856 heartbeat IPC: 1.545 cumulative IPC: 1.552 (Simulation time: 00 hr 04 min 23 sec)
[DUEL] Epoch ended. INSTR misses = 86, DATA misses = 92. Winner = INSTR
[DUEL] Epoch ended. INSTR misses = 80, DATA misses = 80. Winner = INSTR
[DUEL] Epoch ended. INSTR misses = 64, DATA misses = 64. Winner = INSTR
[DUEL] Epoch ended. INSTR misses = 80, DATA misses = 80. Winner = INSTR
[DUEL] Epoch ended. INSTR misses = 64, DATA misses = 64. Winner = INSTR
[DUEL] Epoch ended. INSTR misses = 80, DATA misses = 80. Winner = INSTR
[DUEL] Epoch ended. INSTR misses = 64, DATA misses = 64. Winner = INSTR
[DUEL] Epoch ended. INSTR misses = 80, DATA misses = 80. Winner = INSTR
[DUEL] Epoch ended. INSTR misses = 80, DATA misses = 80. Winner = INSTR
[DUEL] Epoch ended. INSTR misses = 64, DATA misses = 74. Winner = INSTR
[DUEL] Epoch ended. INSTR misses = 92, DATA misses = 85. Winner = DATA
[DUEL] Epoch ended. INSTR misses = 82, DATA misses = 80. Winner = DATA
[DUEL] Epoch ended. INSTR misses = 81, DATA misses = 80. Winner = DATA
[DUEL] Epoch ended. INSTR misses = 64, DATA misses = 64. Winner = INSTR
[DUEL] Epoch ended. INSTR misses = 65, DATA misses = 64. Winner = DATA
[DUEL] Epoch ended. INSTR misses = 66, DATA misses = 71. Winner = INSTR
[DUEL] Epoch ended. INSTR misses = 79, DATA misses = 73. Winner = DATA
[DUEL] Epoch ended. INSTR misses = 117, DATA misses = 112. Winner = DATA
[DUEL] Epoch ended. INSTR misses = 64, DATA misses = 64. Winner = INSTR
Heartbeat CPU 0 instructions: 70000003 cycles: 30677377 heartbeat IPC: 1.607 cumulative IPC: 1.566 (Simulation time: 00 hr 05 min 20 sec)
[DUEL] Epoch ended. INSTR misses = 64, DATA misses = 64. Winner = INSTR
[DUEL] Epoch ended. INSTR misses = 96, DATA misses = 90. Winner = DATA
[DUEL] Epoch ended. INSTR misses = 75, DATA misses = 80. Winner = INSTR
[DUEL] Epoch ended. INSTR misses = 64, DATA misses = 64. Winner = INSTR
[DUEL] Epoch ended. INSTR misses = 80, DATA misses = 80. Winner = INSTR
[DUEL] Epoch ended. INSTR misses = 64, DATA misses = 64. Winner = INSTR
[DUEL] Epoch ended. INSTR misses = 80, DATA misses = 80. Winner = INSTR
[DUEL] Epoch ended. INSTR misses = 95, DATA misses = 96. Winner = INSTR
[DUEL] Epoch ended. INSTR misses = 64, DATA misses = 64. Winner = INSTR
[DUEL] Epoch ended. INSTR misses = 79, DATA misses = 78. Winner = DATA
[DUEL] Epoch ended. INSTR misses = 128, DATA misses = 128. Winner = INSTR
[DUEL] Epoch ended. INSTR misses = 81, DATA misses = 79. Winner = DATA
[DUEL] Epoch ended. INSTR misses = 74, DATA misses = 79. Winner = INSTR
[DUEL] Epoch ended. INSTR misses = 64, DATA misses = 64. Winner = INSTR
[DUEL] Epoch ended. INSTR misses = 159, DATA misses = 153. Winner = DATA
[DUEL] Epoch ended. INSTR misses = 49, DATA misses = 54. Winner = INSTR
[DUEL] Epoch ended. INSTR misses = 47, DATA misses = 46. Winner = DATA
[DUEL] Epoch ended. INSTR misses = 166, DATA misses = 170. Winner = INSTR
[DUEL] Epoch ended. INSTR misses = 103, DATA misses = 101. Winner = DATA
[DUEL] Epoch ended. INSTR misses = 135, DATA misses = 135. Winner = INSTR
Heartbeat CPU 0 instructions: 80000002 cycles: 38345498 heartbeat IPC: 1.304 cumulative IPC: 1.505 (Simulation time: 00 hr 06 min 28 sec)
[DUEL] Epoch ended. INSTR misses = 129, DATA misses = 128. Winner = DATA
[DUEL] Epoch ended. INSTR misses = 132, DATA misses = 127. Winner = DATA
[DUEL] Epoch ended. INSTR misses = 181, DATA misses = 174. Winner = DATA
[DUEL] Epoch ended. INSTR misses = 46, DATA misses = 43. Winner = DATA
[DUEL] Epoch ended. INSTR misses = 35, DATA misses = 31. Winner = DATA
[DUEL] Epoch ended. INSTR misses = 62, DATA misses = 61. Winner = DATA
[DUEL] Epoch ended. INSTR misses = 80, DATA misses = 80. Winner = INSTR
[DUEL] Epoch ended. INSTR misses = 110, DATA misses = 111. Winner = INSTR
[DUEL] Epoch ended. INSTR misses = 57, DATA misses = 48. Winner = DATA
[DUEL] Epoch ended. INSTR misses = 41, DATA misses = 42. Winner = INSTR
[DUEL] Epoch ended. INSTR misses = 64, DATA misses = 56. Winner = DATA
[DUEL] Epoch ended. INSTR misses = 49, DATA misses = 48. Winner = DATA
[DUEL] Epoch ended. INSTR misses = 62, DATA misses = 49. Winner = DATA
[DUEL] Epoch ended. INSTR misses = 64, DATA misses = 60. Winner = DATA
[DUEL] Epoch ended. INSTR misses = 93, DATA misses = 92. Winner = DATA
[DUEL] Epoch ended. INSTR misses = 63, DATA misses = 64. Winner = INSTR
[DUEL] Epoch ended. INSTR misses = 80, DATA misses = 76. Winner = DATA
[DUEL] Epoch ended. INSTR misses = 64, DATA misses = 62. Winner = DATA
[DUEL] Epoch ended. INSTR misses = 67, DATA misses = 62. Winner = DATA
Heartbeat CPU 0 instructions: 90000006 cycles: 47478021 heartbeat IPC: 1.095 cumulative IPC: 1.417 (Simulation time: 00 hr 07 min 35 sec)
[DUEL] Epoch ended. INSTR misses = 51, DATA misses = 36. Winner = DATA
[DUEL] Epoch ended. INSTR misses = 68, DATA misses = 59. Winner = DATA
[DUEL] Epoch ended. INSTR misses = 4, DATA misses = 5. Winner = INSTR
[DUEL] Epoch ended. INSTR misses = 42, DATA misses = 34. Winner = DATA
[DUEL] Epoch ended. INSTR misses = 221, DATA misses = 219. Winner = DATA
[DUEL] Epoch ended. INSTR misses = 210, DATA misses = 190. Winner = DATA
[DUEL] Epoch ended. INSTR misses = 142, DATA misses = 148. Winner = INSTR
[DUEL] Epoch ended. INSTR misses = 119, DATA misses = 182. Winner = INSTR
[DUEL] Epoch ended. INSTR misses = 79, DATA misses = 87. Winner = INSTR
[DUEL] Epoch ended. INSTR misses = 162, DATA misses = 208. Winner = INSTR
[DUEL] Epoch ended. INSTR misses = 148, DATA misses = 156. Winner = INSTR
[DUEL] Epoch ended. INSTR misses = 180, DATA misses = 196. Winner = INSTR
[DUEL] Epoch ended. INSTR misses = 147, DATA misses = 136. Winner = DATA
[DUEL] Epoch ended. INSTR misses = 175, DATA misses = 176. Winner = INSTR
[DUEL] Epoch ended. INSTR misses = 161, DATA misses = 168. Winner = INSTR
[DUEL] Epoch ended. INSTR misses = 133, DATA misses = 166. Winner = INSTR
[DUEL] Epoch ended. INSTR misses = 122, DATA misses = 137. Winner = INSTR
[DUEL] Epoch ended. INSTR misses = 130, DATA misses = 119. Winner = DATA
[DUEL] Epoch ended. INSTR misses = 159, DATA misses = 168. Winner = INSTR
[DUEL] Epoch ended. INSTR misses = 160, DATA misses = 178. Winner = INSTR
Heartbeat CPU 0 instructions: 100000000 cycles: 64528832 heartbeat IPC: 0.5865 cumulative IPC: 1.178 (Simulation time: 00 hr 10 min 02 sec)
[DUEL] Epoch ended. INSTR misses = 147, DATA misses = 182. Winner = INSTR
[DUEL] Epoch ended. INSTR misses = 156, DATA misses = 143. Winner = DATA
[DUEL] Epoch ended. INSTR misses = 138, DATA misses = 155. Winner = INSTR
[DUEL] Epoch ended. INSTR misses = 159, DATA misses = 163. Winner = INSTR
[DUEL] Epoch ended. INSTR misses = 106, DATA misses = 142. Winner = INSTR
[DUEL] Epoch ended. INSTR misses = 178, DATA misses = 155. Winner = DATA
[DUEL] Epoch ended. INSTR misses = 109, DATA misses = 133. Winner = INSTR
[DUEL] Epoch ended. INSTR misses = 137, DATA misses = 145. Winner = INSTR
[DUEL] Epoch ended. INSTR misses = 62, DATA misses = 72. Winner = INSTR
[DUEL] Epoch ended. INSTR misses = 28, DATA misses = 38. Winner = INSTR
[DUEL] Epoch ended. INSTR misses = 6, DATA misses = 6. Winner = INSTR
[DUEL] Epoch ended. INSTR misses = 15, DATA misses = 14. Winner = DATA
[DUEL] Epoch ended. INSTR misses = 9, DATA misses = 11. Winner = INSTR
[DUEL] Epoch ended. INSTR misses = 0, DATA misses = 0. Winner = INSTR
[DUEL] Epoch ended. INSTR misses = 0, DATA misses = 0. Winner = INSTR
*** Reached end of trace: (0, "../traces/secret_traces/compute_fp/compute_fp_111.champsimtrace.xz")
[DUEL] Epoch ended. INSTR misses = 14, DATA misses = 7. Winner = DATA
[DUEL] Epoch ended. INSTR misses = 174, DATA misses = 190. Winner = INSTR
[DUEL] Epoch ended. INSTR misses = 109, DATA misses = 100. Winner = DATA
[DUEL] Epoch ended. INSTR misses = 79, DATA misses = 74. Winner = DATA
Heartbeat CPU 0 instructions: 110000003 cycles: 75620609 heartbeat IPC: 0.9016 cumulative IPC: 1.135 (Simulation time: 00 hr 11 min 42 sec)
[DUEL] Epoch ended. INSTR misses = 39, DATA misses = 42. Winner = INSTR
[DUEL] Epoch ended. INSTR misses = 64, DATA misses = 62. Winner = DATA
[DUEL] Epoch ended. INSTR misses = 32, DATA misses = 32. Winner = INSTR
[DUEL] Epoch ended. INSTR misses = 39, DATA misses = 62. Winner = INSTR
[DUEL] Epoch ended. INSTR misses = 55, DATA misses = 31. Winner = DATA
[DUEL] Epoch ended. INSTR misses = 26, DATA misses = 28. Winner = INSTR
[DUEL] Epoch ended. INSTR misses = 140, DATA misses = 188. Winner = INSTR
[DUEL] Epoch ended. INSTR misses = 51, DATA misses = 80. Winner = INSTR
[DUEL] Epoch ended. INSTR misses = 9, DATA misses = 13. Winner = INSTR
[DUEL] Epoch ended. INSTR misses = 1, DATA misses = 0. Winner = DATA
[DUEL] Epoch ended. INSTR misses = 16, DATA misses = 16. Winner = INSTR
[DUEL] Epoch ended. INSTR misses = 144, DATA misses = 139. Winner = DATA
[DUEL] Epoch ended. INSTR misses = 76, DATA misses = 70. Winner = DATA
[DUEL] Epoch ended. INSTR misses = 64, DATA misses = 63. Winner = DATA
[DUEL] Epoch ended. INSTR misses = 80, DATA misses = 80. Winner = INSTR
[DUEL] Epoch ended. INSTR misses = 81, DATA misses = 80. Winner = DATA
[DUEL] Epoch ended. INSTR misses = 63, DATA misses = 63. Winner = INSTR
[DUEL] Epoch ended. INSTR misses = 77, DATA misses = 79. Winner = INSTR
[DUEL] Epoch ended. INSTR misses = 96, DATA misses = 96. Winner = INSTR
[DUEL] Epoch ended. INSTR misses = 94, DATA misses = 104. Winner = INSTR
Heartbeat CPU 0 instructions: 120000000 cycles: 82976456 heartbeat IPC: 1.359 cumulative IPC: 1.156 (Simulation time: 00 hr 12 min 41 sec)
[DUEL] Epoch ended. INSTR misses = 97, DATA misses = 102. Winner = INSTR
[DUEL] Epoch ended. INSTR misses = 73, DATA misses = 75. Winner = INSTR
[DUEL] Epoch ended. INSTR misses = 73, DATA misses = 77. Winner = INSTR
[DUEL] Epoch ended. INSTR misses = 80, DATA misses = 78. Winner = DATA
[DUEL] Epoch ended. INSTR misses = 69, DATA misses = 71. Winner = INSTR
[DUEL] Epoch ended. INSTR misses = 64, DATA misses = 62. Winner = DATA
[DUEL] Epoch ended. INSTR misses = 70, DATA misses = 68. Winner = DATA
[DUEL] Epoch ended. INSTR misses = 80, DATA misses = 79. Winner = DATA
[DUEL] Epoch ended. INSTR misses = 95, DATA misses = 95. Winner = INSTR
[DUEL] Epoch ended. INSTR misses = 80, DATA misses = 80. Winner = INSTR
[DUEL] Epoch ended. INSTR misses = 65, DATA misses = 64. Winner = DATA
[DUEL] Epoch ended. INSTR misses = 93, DATA misses = 96. Winner = INSTR
[DUEL] Epoch ended. INSTR misses = 80, DATA misses = 80. Winner = INSTR
[DUEL] Epoch ended. INSTR misses = 80, DATA misses = 75. Winner = DATA
[DUEL] Epoch ended. INSTR misses = 61, DATA misses = 63. Winner = INSTR
[DUEL] Epoch ended. INSTR misses = 80, DATA misses = 80. Winner = INSTR
[DUEL] Epoch ended. INSTR misses = 94, DATA misses = 94. Winner = INSTR
[DUEL] Epoch ended. INSTR misses = 64, DATA misses = 65. Winner = INSTR
[DUEL] Epoch ended. INSTR misses = 71, DATA misses = 80. Winner = INSTR
Heartbeat CPU 0 instructions: 130000004 cycles: 89353272 heartbeat IPC: 1.568 cumulative IPC: 1.187 (Simulation time: 00 hr 13 min 38 sec)
Simulation finished CPU 0 instructions: 100000002 cycles: 84222563 cumulative IPC: 1.187 (Simulation time: 00 hr 13 min 38 sec)
Simulation complete CPU 0 instructions: 100000002 cycles: 84222563 cumulative IPC: 1.187 (Simulation time: 00 hr 13 min 38 sec)

ChampSim completed all CPUs

=== Simulation ===
CPU 0 runs ../traces/secret_traces/compute_fp/compute_fp_111.champsimtrace.xz
Region of Interest Statistics

CPU 0 cumulative IPC: 1.187 instructions: 100000002 cycles: 84222563
CPU 0 Branch Prediction Accuracy: 97.58% MPKI: 3.887 Average ROB Occupancy at Mispredict: 70.01
Branch type MPKI
BRANCH_DIRECT_JUMP: 0.00837
BRANCH_INDIRECT: 0.152
BRANCH_CONDITIONAL: 3.69
BRANCH_DIRECT_CALL: 0.0212
BRANCH_INDIRECT_CALL: 0.00215
BRANCH_RETURN: 0.0117

LLC TOTAL        ACCESS:    4869504 HIT:     495986 MISS:    4373518
LLC LOAD         ACCESS:     646064 HIT:      90799 MISS:     555265
LLC RFO          ACCESS:     178949 HIT:       3095 MISS:     175854
LLC PREFETCH     ACCESS:    3341770 HIT:     152470 MISS:    3189300
LLC WRITE        ACCESS:     690245 HIT:     248794 MISS:     441451
LLC TRANSLATION  ACCESS:      12476 HIT:        828 MISS:      11648
LLC PREFETCH REQUESTED:          0 ISSUED:          0 USEFUL:          0 USELESS:          0
LLC AVERAGE MISS LATENCY: 309.1 cycles
cpu0_DTLB TOTAL        ACCESS:   23571941 HIT:   23157597 MISS:     414344
cpu0_DTLB LOAD         ACCESS:   23571941 HIT:   23157597 MISS:     414344
cpu0_DTLB RFO          ACCESS:          0 HIT:          0 MISS:          0
cpu0_DTLB PREFETCH     ACCESS:          0 HIT:          0 MISS:          0
cpu0_DTLB WRITE        ACCESS:          0 HIT:          0 MISS:          0
cpu0_DTLB TRANSLATION  ACCESS:          0 HIT:          0 MISS:          0
cpu0_DTLB PREFETCH REQUESTED:          0 ISSUED:          0 USEFUL:          0 USELESS:          0
cpu0_DTLB AVERAGE MISS LATENCY: 26.03 cycles
cpu0_ITLB TOTAL        ACCESS:     145926 HIT:     144261 MISS:       1665
cpu0_ITLB LOAD         ACCESS:     145926 HIT:     144261 MISS:       1665
cpu0_ITLB RFO          ACCESS:          0 HIT:          0 MISS:          0
cpu0_ITLB PREFETCH     ACCESS:          0 HIT:          0 MISS:          0
cpu0_ITLB WRITE        ACCESS:          0 HIT:          0 MISS:          0
cpu0_ITLB TRANSLATION  ACCESS:          0 HIT:          0 MISS:          0
cpu0_ITLB PREFETCH REQUESTED:          0 ISSUED:          0 USEFUL:          0 USELESS:          0
cpu0_ITLB AVERAGE MISS LATENCY: 75.23 cycles
cpu0_L1D TOTAL        ACCESS:   46214112 HIT:   30421039 MISS:   15793073
cpu0_L1D LOAD         ACCESS:   21978641 HIT:   16582749 MISS:    5395892
cpu0_L1D RFO          ACCESS:          0 HIT:          0 MISS:          0
cpu0_L1D PREFETCH     ACCESS:   20073016 HIT:   10973863 MISS:    9099153
cpu0_L1D WRITE        ACCESS:    4092234 HIT:    2829479 MISS:    1262755
cpu0_L1D TRANSLATION  ACCESS:      70221 HIT:      34948 MISS:      35273
cpu0_L1D PREFETCH REQUESTED:  142331629 ISSUED:   20072985 USEFUL:    1824768 USELESS:     135592
cpu0_L1D AVERAGE MISS LATENCY: 46.02 cycles
cpu0_L1I TOTAL        ACCESS:     216017 HIT:     180194 MISS:      35823
cpu0_L1I LOAD         ACCESS:      65869 HIT:      56330 MISS:       9539
cpu0_L1I RFO          ACCESS:          0 HIT:          0 MISS:          0
cpu0_L1I PREFETCH     ACCESS:     150148 HIT:     123864 MISS:      26284
cpu0_L1I WRITE        ACCESS:          0 HIT:          0 MISS:          0
cpu0_L1I TRANSLATION  ACCESS:          0 HIT:          0 MISS:          0
cpu0_L1I PREFETCH REQUESTED:     206604 ISSUED:     150148 USEFUL:      14143 USELESS:      10138
cpu0_L1I AVERAGE MISS LATENCY: 111.9 cycles
cpu0_L2C TOTAL        ACCESS:   19109804 HIT:    7468776 MISS:   11641028
cpu0_L2C LOAD         ACCESS:    1841628 HIT:     715297 MISS:    1126331
cpu0_L2C RFO          ACCESS:     210091 HIT:      31098 MISS:     178993
cpu0_L2C PREFETCH     ACCESS:   16204153 HIT:    5880928 MISS:   10323225
cpu0_L2C WRITE        ACCESS:     818836 HIT:     818833 MISS:          3
cpu0_L2C TRANSLATION  ACCESS:      35096 HIT:      22620 MISS:      12476
cpu0_L2C PREFETCH REQUESTED:    9268812 ISSUED:    8877428 USEFUL:     718410 USELESS:     479875
cpu0_L2C AVERAGE MISS LATENCY: 116.8 cycles
cpu0_STLB TOTAL        ACCESS:     165518 HIT:      96512 MISS:      69006
cpu0_STLB LOAD         ACCESS:     165518 HIT:      96512 MISS:      69006
cpu0_STLB RFO          ACCESS:          0 HIT:          0 MISS:          0
cpu0_STLB PREFETCH     ACCESS:          0 HIT:          0 MISS:          0
cpu0_STLB WRITE        ACCESS:          0 HIT:          0 MISS:          0
cpu0_STLB TRANSLATION  ACCESS:          0 HIT:          0 MISS:          0
cpu0_STLB PREFETCH REQUESTED:          0 ISSUED:          0 USEFUL:          0 USELESS:          0
cpu0_STLB AVERAGE MISS LATENCY: 200.2 cycles

DRAM Statistics

Channel 0 RQ ROW_BUFFER_HIT:    1054335
  ROW_BUFFER_MISS:     918293
 AVG DBUS CONGESTED CYCLE: 3.937
WQ ROW_BUFFER_HIT: Channel 0 
  ROW_BUFFER_MISS:       6728
  FULL:     262859

Channel 1 RQ ROW_BUFFER_HIT:    1048166
  ROW_BUFFER_MISS:     910416
 AVG DBUS CONGESTED CYCLE: 3.932
WQ ROW_BUFFER_HIT: Channel 1 
  ROW_BUFFER_MISS:       6916
  FULL:     262227
BERTI TO_L1: 48801519 TO_L2: 120013080 TO_L2_BC_MSHR: 46002073
BERTI AVG_LAT: 203.998 NUM_TRACK_LATENCY: 4769856 NUM_CANT_TRACK_LATENCY: 217
BERTI CROSS_PAGE 23925723 NO_CROSS_PAGE: 144888876
BERTI FOUND_BERTI: 38456143 NO_FOUND_BERTI: 4823299
BERTI AVERAGE_ISSUED: 2.93618
CPU 0 L1I Entangling prefetcher final stats
IP accesses: eab2 3aac80 684 / 77149
IP misses: eab2 3aac80 669 / 20819
IP hits: 0 0 0 / 0
IP late: 5aed 16bb40 13 / 4936
IP wrong: ea8a 3aa280 27 / 10083
miss rate: 0.269855
coverage: 0
coverage_late: 0.237092
accuracy: 0
accuracy_late: 0.328651
discarded: 0
evicts entangled j table: 0
evicts entangled k table: 1538
max bb size: 38
formats: 423 0 1276 718 309 661 0 
hist_lookups: 1206 1247 929 862 697 595 469 364 295 229 177 141 69 53 28 0 6 3151 
hist_lookups_evict: 0.0570451 %
hist_lookups_shortlat: 29.9582 %
bb_found_hist: 0 14950 6597 3535 1905 2149 610 500 207 313 45 64 12 293 52 2 17 0 0 0 0 0 0 0 0 0 0 0 0 0 0 0 0 0 0 0 0 0 1 0 0 0 0 0 0 0 0 0 0 0 0 0 0 0 0 0 0 0 0 0 0 0 0 0 
bb_found_summary: 74922 31252 2.39736
entangled_found_hist: 0 8917 5258 9120 2221 397 38 0 
entangled_found_summary: 57890 25951 2.23075
bb_ent_found_hist: 0 19408 9313 4994 2553 1888 879 317 232 119 57 87 0 188 127 0 0 0 0 0 0 0 0 0 0 0 0 0 0 0 0 0 0 0 0 0 0 0 2 0 0 0 0 0 0 0 0 0 0 0 0 0 0 0 0 0 0 0 0 0 0 0 0 0 
bb_ent_found_summary: 88913 40164 2.21375
