WARNING: physical memory size is smaller than virtual memory size.

*** ChampSim Multicore Out-of-Order Simulator ***
Warmup Instructions: 30000000
Simulation Instructions: 100000000
Number of CPUs: 1
Page size: 4096

BTB:
Basic BTB sets: 1024 ways: 8
Indirect:
history lengths: 0 0 10 16 27 44 60 96 109 219 449 487 714 1313 2146 3881 
ITTAGE tables: 64768 bytes;Region table: 240 bytes;IUM: 384 bytes;Total Storage= 65392 bytes;
RAS:
RAS size: 64
[LLC] INSTR Demand IPV: 1 2 2 1 4 Prefetch IPV: 1 2 1 1 4
[LLC] DATA  Demand IPV: 1 1 1 2 4 Prefetch IPV: 1 1 2 2 4
Berti Prefetcher
CPU 0 Entangling prefetcher
Off-chip DRAM Size: 8 GiB Channels: 2 Width: 64-bit Data Race: 6400 MT/s
[DUEL] Epoch ended. INSTR misses = 105, DATA misses = 96. Winner = DATA
[DUEL] Epoch ended. INSTR misses = 72, DATA misses = 72. Winner = INSTR
[DUEL] Epoch ended. INSTR misses = 1, DATA misses = 0. Winner = DATA
[DUEL] Epoch ended. INSTR misses = 0, DATA misses = 0. Winner = INSTR
[DUEL] Epoch ended. INSTR misses = 0, DATA misses = 0. Winner = INSTR
[DUEL] Epoch ended. INSTR misses = 0, DATA misses = 0. Winner = INSTR
[DUEL] Epoch ended. INSTR misses = 0, DATA misses = 0. Winner = INSTR
[DUEL] Epoch ended. INSTR misses = 1, DATA misses = 0. Winner = DATA
[DUEL] Epoch ended. INSTR misses = 0, DATA misses = 0. Winner = INSTR
[DUEL] Epoch ended. INSTR misses = 0, DATA misses = 0. Winner = INSTR
[DUEL] Epoch ended. INSTR misses = 0, DATA misses = 0. Winner = INSTR
[DUEL] Epoch ended. INSTR misses = 0, DATA misses = 0. Winner = INSTR
[DUEL] Epoch ended. INSTR misses = 0, DATA misses = 0. Winner = INSTR
[DUEL] Epoch ended. INSTR misses = 0, DATA misses = 0. Winner = INSTR
[DUEL] Epoch ended. INSTR misses = 0, DATA misses = 0. Winner = INSTR
[DUEL] Epoch ended. INSTR misses = 0, DATA misses = 0. Winner = INSTR
[DUEL] Epoch ended. INSTR misses = 0, DATA misses = 0. Winner = INSTR
Heartbeat CPU 0 instructions: 10000005 cycles: 1777419 heartbeat IPC: 5.626 cumulative IPC: 5.626 (Simulation time: 00 hr 00 min 22 sec)
[DUEL] Epoch ended. INSTR misses = 0, DATA misses = 0. Winner = INSTR
[DUEL] Epoch ended. INSTR misses = 0, DATA misses = 0. Winner = INSTR
[DUEL] Epoch ended. INSTR misses = 0, DATA misses = 0. Winner = INSTR
[DUEL] Epoch ended. INSTR misses = 0, DATA misses = 0. Winner = INSTR
[DUEL] Epoch ended. INSTR misses = 0, DATA misses = 0. Winner = INSTR
[DUEL] Epoch ended. INSTR misses = 0, DATA misses = 0. Winner = INSTR
[DUEL] Epoch ended. INSTR misses = 0, DATA misses = 0. Winner = INSTR
[DUEL] Epoch ended. INSTR misses = 0, DATA misses = 0. Winner = INSTR
[DUEL] Epoch ended. INSTR misses = 2, DATA misses = 2. Winner = INSTR
[DUEL] Epoch ended. INSTR misses = 0, DATA misses = 0. Winner = INSTR
[DUEL] Epoch ended. INSTR misses = 0, DATA misses = 0. Winner = INSTR
[DUEL] Epoch ended. INSTR misses = 0, DATA misses = 0. Winner = INSTR
[DUEL] Epoch ended. INSTR misses = 0, DATA misses = 0. Winner = INSTR
[DUEL] Epoch ended. INSTR misses = 0, DATA misses = 0. Winner = INSTR
[DUEL] Epoch ended. INSTR misses = 0, DATA misses = 0. Winner = INSTR
[DUEL] Epoch ended. INSTR misses = 0, DATA misses = 0. Winner = INSTR
[DUEL] Epoch ended. INSTR misses = 0, DATA misses = 0. Winner = INSTR
[DUEL] Epoch ended. INSTR misses = 0, DATA misses = 0. Winner = INSTR
Heartbeat CPU 0 instructions: 20000000 cycles: 3494190 heartbeat IPC: 5.825 cumulative IPC: 5.724 (Simulation time: 00 hr 00 min 44 sec)
[DUEL] Epoch ended. INSTR misses = 0, DATA misses = 0. Winner = INSTR
[DUEL] Epoch ended. INSTR misses = 0, DATA misses = 0. Winner = INSTR
[DUEL] Epoch ended. INSTR misses = 0, DATA misses = 0. Winner = INSTR
[DUEL] Epoch ended. INSTR misses = 0, DATA misses = 0. Winner = INSTR
[DUEL] Epoch ended. INSTR misses = 0, DATA misses = 0. Winner = INSTR
[DUEL] Epoch ended. INSTR misses = 0, DATA misses = 0. Winner = INSTR
[DUEL] Epoch ended. INSTR misses = 0, DATA misses = 0. Winner = INSTR
[DUEL] Epoch ended. INSTR misses = 0, DATA misses = 0. Winner = INSTR
[DUEL] Epoch ended. INSTR misses = 0, DATA misses = 0. Winner = INSTR
[DUEL] Epoch ended. INSTR misses = 0, DATA misses = 0. Winner = INSTR
[DUEL] Epoch ended. INSTR misses = 0, DATA misses = 0. Winner = INSTR
[DUEL] Epoch ended. INSTR misses = 1, DATA misses = 1. Winner = INSTR
[DUEL] Epoch ended. INSTR misses = 0, DATA misses = 0. Winner = INSTR
Heartbeat CPU 0 instructions: 30000000 cycles: 5191135 heartbeat IPC: 5.893 cumulative IPC: 5.779 (Simulation time: 00 hr 01 min 06 sec)
Warmup finished CPU 0 instructions: 30000000 cycles: 5191136 cumulative IPC: 5.779 (Simulation time: 00 hr 01 min 06 sec)
Warmup complete CPU 0 instructions: 30000000 cycles: 5191136 cumulative IPC: 5.779 (Simulation time: 00 hr 01 min 06 sec)
[DUEL] Epoch ended. INSTR misses = 0, DATA misses = 0. Winner = INSTR
[DUEL] Epoch ended. INSTR misses = 0, DATA misses = 0. Winner = INSTR
[DUEL] Epoch ended. INSTR misses = 0, DATA misses = 0. Winner = INSTR
[DUEL] Epoch ended. INSTR misses = 0, DATA misses = 0. Winner = INSTR
[DUEL] Epoch ended. INSTR misses = 1, DATA misses = 0. Winner = DATA
[DUEL] Epoch ended. INSTR misses = 0, DATA misses = 0. Winner = INSTR
Heartbeat CPU 0 instructions: 40000000 cycles: 6909914 heartbeat IPC: 5.818 cumulative IPC: 5.818 (Simulation time: 00 hr 01 min 31 sec)
[DUEL] Epoch ended. INSTR misses = 0, DATA misses = 0. Winner = INSTR
[DUEL] Epoch ended. INSTR misses = 0, DATA misses = 0. Winner = INSTR
Heartbeat CPU 0 instructions: 50000004 cycles: 8600840 heartbeat IPC: 5.914 cumulative IPC: 5.866 (Simulation time: 00 hr 01 min 57 sec)
[DUEL] Epoch ended. INSTR misses = 0, DATA misses = 0. Winner = INSTR
[DUEL] Epoch ended. INSTR misses = 0, DATA misses = 0. Winner = INSTR
Heartbeat CPU 0 instructions: 60000008 cycles: 10286321 heartbeat IPC: 5.933 cumulative IPC: 5.888 (Simulation time: 00 hr 02 min 22 sec)
[DUEL] Epoch ended. INSTR misses = 0, DATA misses = 0. Winner = INSTR
[DUEL] Epoch ended. INSTR misses = 0, DATA misses = 0. Winner = INSTR
[DUEL] Epoch ended. INSTR misses = 0, DATA misses = 0. Winner = INSTR
Heartbeat CPU 0 instructions: 70000000 cycles: 11975005 heartbeat IPC: 5.922 cumulative IPC: 5.896 (Simulation time: 00 hr 02 min 48 sec)
[DUEL] Epoch ended. INSTR misses = 0, DATA misses = 0. Winner = INSTR
Heartbeat CPU 0 instructions: 80000000 cycles: 13660060 heartbeat IPC: 5.935 cumulative IPC: 5.904 (Simulation time: 00 hr 03 min 13 sec)
[DUEL] Epoch ended. INSTR misses = 0, DATA misses = 0. Winner = INSTR
Heartbeat CPU 0 instructions: 90000000 cycles: 15352794 heartbeat IPC: 5.908 cumulative IPC: 5.905 (Simulation time: 00 hr 03 min 39 sec)
[DUEL] Epoch ended. INSTR misses = 0, DATA misses = 0. Winner = INSTR
[DUEL] Epoch ended. INSTR misses = 0, DATA misses = 0. Winner = INSTR
[DUEL] Epoch ended. INSTR misses = 0, DATA misses = 0. Winner = INSTR
Heartbeat CPU 0 instructions: 100000000 cycles: 17040695 heartbeat IPC: 5.925 cumulative IPC: 5.907 (Simulation time: 00 hr 04 min 05 sec)
*** Reached end of trace: (0, "../traces/secret_traces/compute_fp/compute_fp_114.champsimtrace.xz")
[DUEL] Epoch ended. INSTR misses = 0, DATA misses = 0. Winner = INSTR
[DUEL] Epoch ended. INSTR misses = 0, DATA misses = 0. Winner = INSTR
[DUEL] Epoch ended. INSTR misses = 5, DATA misses = 3. Winner = DATA
[DUEL] Epoch ended. INSTR misses = 0, DATA misses = 0. Winner = INSTR
[DUEL] Epoch ended. INSTR misses = 0, DATA misses = 0. Winner = INSTR
[DUEL] Epoch ended. INSTR misses = 0, DATA misses = 0. Winner = INSTR
[DUEL] Epoch ended. INSTR misses = 0, DATA misses = 0. Winner = INSTR
[DUEL] Epoch ended. INSTR misses = 0, DATA misses = 0. Winner = INSTR
[DUEL] Epoch ended. INSTR misses = 0, DATA misses = 0. Winner = INSTR
[DUEL] Epoch ended. INSTR misses = 0, DATA misses = 0. Winner = INSTR
[DUEL] Epoch ended. INSTR misses = 0, DATA misses = 0. Winner = INSTR
[DUEL] Epoch ended. INSTR misses = 0, DATA misses = 0. Winner = INSTR
[DUEL] Epoch ended. INSTR misses = 0, DATA misses = 0. Winner = INSTR
[DUEL] Epoch ended. INSTR misses = 0, DATA misses = 0. Winner = INSTR
[DUEL] Epoch ended. INSTR misses = 0, DATA misses = 0. Winner = INSTR
[DUEL] Epoch ended. INSTR misses = 0, DATA misses = 0. Winner = INSTR
[DUEL] Epoch ended. INSTR misses = 0, DATA misses = 0. Winner = INSTR
[DUEL] Epoch ended. INSTR misses = 0, DATA misses = 0. Winner = INSTR
Heartbeat CPU 0 instructions: 110000003 cycles: 19304845 heartbeat IPC: 4.417 cumulative IPC: 5.668 (Simulation time: 00 hr 04 min 33 sec)
[DUEL] Epoch ended. INSTR misses = 0, DATA misses = 0. Winner = INSTR
[DUEL] Epoch ended. INSTR misses = 0, DATA misses = 0. Winner = INSTR
[DUEL] Epoch ended. INSTR misses = 0, DATA misses = 0. Winner = INSTR
[DUEL] Epoch ended. INSTR misses = 0, DATA misses = 0. Winner = INSTR
[DUEL] Epoch ended. INSTR misses = 0, DATA misses = 0. Winner = INSTR
[DUEL] Epoch ended. INSTR misses = 0, DATA misses = 0. Winner = INSTR
[DUEL] Epoch ended. INSTR misses = 0, DATA misses = 0. Winner = INSTR
[DUEL] Epoch ended. INSTR misses = 0, DATA misses = 0. Winner = INSTR
[DUEL] Epoch ended. INSTR misses = 2, DATA misses = 0. Winner = DATA
[DUEL] Epoch ended. INSTR misses = 0, DATA misses = 0. Winner = INSTR
[DUEL] Epoch ended. INSTR misses = 0, DATA misses = 0. Winner = INSTR
[DUEL] Epoch ended. INSTR misses = 0, DATA misses = 0. Winner = INSTR
[DUEL] Epoch ended. INSTR misses = 0, DATA misses = 0. Winner = INSTR
[DUEL] Epoch ended. INSTR misses = 0, DATA misses = 0. Winner = INSTR
[DUEL] Epoch ended. INSTR misses = 0, DATA misses = 0. Winner = INSTR
[DUEL] Epoch ended. INSTR misses = 0, DATA misses = 0. Winner = INSTR
[DUEL] Epoch ended. INSTR misses = 0, DATA misses = 0. Winner = INSTR
[DUEL] Epoch ended. INSTR misses = 0, DATA misses = 0. Winner = INSTR
Heartbeat CPU 0 instructions: 120000006 cycles: 21056911 heartbeat IPC: 5.708 cumulative IPC: 5.673 (Simulation time: 00 hr 04 min 59 sec)
[DUEL] Epoch ended. INSTR misses = 0, DATA misses = 0. Winner = INSTR
[DUEL] Epoch ended. INSTR misses = 0, DATA misses = 0. Winner = INSTR
[DUEL] Epoch ended. INSTR misses = 0, DATA misses = 0. Winner = INSTR
[DUEL] Epoch ended. INSTR misses = 0, DATA misses = 0. Winner = INSTR
[DUEL] Epoch ended. INSTR misses = 0, DATA misses = 0. Winner = INSTR
[DUEL] Epoch ended. INSTR misses = 0, DATA misses = 0. Winner = INSTR
[DUEL] Epoch ended. INSTR misses = 0, DATA misses = 0. Winner = INSTR
[DUEL] Epoch ended. INSTR misses = 0, DATA misses = 0. Winner = INSTR
[DUEL] Epoch ended. INSTR misses = 0, DATA misses = 0. Winner = INSTR
[DUEL] Epoch ended. INSTR misses = 0, DATA misses = 0. Winner = INSTR
[DUEL] Epoch ended. INSTR misses = 0, DATA misses = 0. Winner = INSTR
[DUEL] Epoch ended. INSTR misses = 1, DATA misses = 0. Winner = DATA
[DUEL] Epoch ended. INSTR misses = 0, DATA misses = 0. Winner = INSTR
Heartbeat CPU 0 instructions: 130000004 cycles: 22779317 heartbeat IPC: 5.806 cumulative IPC: 5.686 (Simulation time: 00 hr 05 min 25 sec)
Simulation finished CPU 0 instructions: 100000004 cycles: 17588182 cumulative IPC: 5.686 (Simulation time: 00 hr 05 min 25 sec)
Simulation complete CPU 0 instructions: 100000004 cycles: 17588182 cumulative IPC: 5.686 (Simulation time: 00 hr 05 min 25 sec)

ChampSim completed all CPUs

=== Simulation ===
CPU 0 runs ../traces/secret_traces/compute_fp/compute_fp_114.champsimtrace.xz
Region of Interest Statistics

CPU 0 cumulative IPC: 5.686 instructions: 100000004 cycles: 17588182
CPU 0 Branch Prediction Accuracy: 99.67% MPKI: 0.2608 Average ROB Occupancy at Mispredict: 46.48
Branch type MPKI
BRANCH_DIRECT_JUMP: 0.00854
BRANCH_INDIRECT: 0.0762
BRANCH_CONDITIONAL: 0.14
BRANCH_DIRECT_CALL: 0.0214
BRANCH_INDIRECT_CALL: 0.0025
BRANCH_RETURN: 0.0118

LLC TOTAL        ACCESS:      87601 HIT:      75488 MISS:      12113
LLC LOAD         ACCESS:      13183 HIT:      10404 MISS:       2779
LLC RFO          ACCESS:      26831 HIT:      24544 MISS:       2287
LLC PREFETCH     ACCESS:      17835 HIT:      12465 MISS:       5370
LLC WRITE        ACCESS:      29554 HIT:      28022 MISS:       1532
LLC TRANSLATION  ACCESS:        198 HIT:         53 MISS:        145
LLC PREFETCH REQUESTED:          0 ISSUED:          0 USEFUL:          0 USELESS:          0
LLC AVERAGE MISS LATENCY: 121.9 cycles
cpu0_DTLB TOTAL        ACCESS:   15948348 HIT:   15912140 MISS:      36208
cpu0_DTLB LOAD         ACCESS:   15948348 HIT:   15912140 MISS:      36208
cpu0_DTLB RFO          ACCESS:          0 HIT:          0 MISS:          0
cpu0_DTLB PREFETCH     ACCESS:          0 HIT:          0 MISS:          0
cpu0_DTLB WRITE        ACCESS:          0 HIT:          0 MISS:          0
cpu0_DTLB TRANSLATION  ACCESS:          0 HIT:          0 MISS:          0
cpu0_DTLB PREFETCH REQUESTED:          0 ISSUED:          0 USEFUL:          0 USELESS:          0
cpu0_DTLB AVERAGE MISS LATENCY: 3.748 cycles
cpu0_ITLB TOTAL        ACCESS:    4132776 HIT:    4131119 MISS:       1657
cpu0_ITLB LOAD         ACCESS:    4132776 HIT:    4131119 MISS:       1657
cpu0_ITLB RFO          ACCESS:          0 HIT:          0 MISS:          0
cpu0_ITLB PREFETCH     ACCESS:          0 HIT:          0 MISS:          0
cpu0_ITLB WRITE        ACCESS:          0 HIT:          0 MISS:          0
cpu0_ITLB TRANSLATION  ACCESS:          0 HIT:          0 MISS:          0
cpu0_ITLB PREFETCH REQUESTED:          0 ISSUED:          0 USEFUL:          0 USELESS:          0
cpu0_ITLB AVERAGE MISS LATENCY: 11.06 cycles
cpu0_L1D TOTAL        ACCESS:   23914790 HIT:   23702030 MISS:     212760
cpu0_L1D LOAD         ACCESS:   17940323 HIT:   17858286 MISS:      82037
cpu0_L1D RFO          ACCESS:          0 HIT:          0 MISS:          0
cpu0_L1D PREFETCH     ACCESS:      91871 HIT:      63641 MISS:      28230
cpu0_L1D WRITE        ACCESS:    5882343 HIT:    5780077 MISS:     102266
cpu0_L1D TRANSLATION  ACCESS:        253 HIT:         26 MISS:        227
cpu0_L1D PREFETCH REQUESTED:     317765 ISSUED:      91871 USEFUL:       1797 USELESS:        174
cpu0_L1D AVERAGE MISS LATENCY: 11.65 cycles
cpu0_L1I TOTAL        ACCESS:    6413749 HIT:    6322161 MISS:      91588
cpu0_L1I LOAD         ACCESS:    2344549 HIT:    2307465 MISS:      37084
cpu0_L1I RFO          ACCESS:          0 HIT:          0 MISS:          0
cpu0_L1I PREFETCH     ACCESS:    4069200 HIT:    4014696 MISS:      54504
cpu0_L1I WRITE        ACCESS:          0 HIT:          0 MISS:          0
cpu0_L1I TRANSLATION  ACCESS:          0 HIT:          0 MISS:          0
cpu0_L1I PREFETCH REQUESTED:   12056965 ISSUED:    4069215 USEFUL:      31166 USELESS:      19608
cpu0_L1I AVERAGE MISS LATENCY: 13.22 cycles
cpu0_L2C TOTAL        ACCESS:     383220 HIT:     311095 MISS:      72125
cpu0_L2C LOAD         ACCESS:      70715 HIT:      56317 MISS:      14398
cpu0_L2C RFO          ACCESS:      46654 HIT:      19817 MISS:      26837
cpu0_L2C PREFETCH     ACCESS:     209386 HIT:     178694 MISS:      30692
cpu0_L2C WRITE        ACCESS:      56238 HIT:      56238 MISS:          0
cpu0_L2C TRANSLATION  ACCESS:        227 HIT:         29 MISS:        198
cpu0_L2C PREFETCH REQUESTED:     143401 ISSUED:     136700 USEFUL:       4401 USELESS:       3603
cpu0_L2C AVERAGE MISS LATENCY: 36.43 cycles
cpu0_STLB TOTAL        ACCESS:      20044 HIT:      19839 MISS:        205
cpu0_STLB LOAD         ACCESS:      20044 HIT:      19839 MISS:        205
cpu0_STLB RFO          ACCESS:          0 HIT:          0 MISS:          0
cpu0_STLB PREFETCH     ACCESS:          0 HIT:          0 MISS:          0
cpu0_STLB WRITE        ACCESS:          0 HIT:          0 MISS:          0
cpu0_STLB TRANSLATION  ACCESS:          0 HIT:          0 MISS:          0
cpu0_STLB PREFETCH REQUESTED:          0 ISSUED:          0 USEFUL:          0 USELESS:          0
cpu0_STLB AVERAGE MISS LATENCY: 185.7 cycles

DRAM Statistics

Channel 0 RQ ROW_BUFFER_HIT:       2398
  ROW_BUFFER_MISS:       3091
 AVG DBUS CONGESTED CYCLE: 3.807
WQ ROW_BUFFER_HIT: Channel 0 
  ROW_BUFFER_MISS:        238
  FULL:        843

Channel 1 RQ ROW_BUFFER_HIT:       2197
  ROW_BUFFER_MISS:       2893
 AVG DBUS CONGESTED CYCLE: 3.759
WQ ROW_BUFFER_HIT: Channel 1 
  ROW_BUFFER_MISS:        241
  FULL:        732
BERTI TO_L1: 133684 TO_L2: 389274 TO_L2_BC_MSHR: 85324
BERTI AVG_LAT: 21.3476 NUM_TRACK_LATENCY: 88069 NUM_CANT_TRACK_LATENCY: 0
BERTI CROSS_PAGE 76537 NO_CROSS_PAGE: 446421
BERTI FOUND_BERTI: 1734246 NO_FOUND_BERTI: 22654311
BERTI AVERAGE_ISSUED: 2.86244
CPU 0 L1I Entangling prefetcher final stats
IP accesses: b712 2dc480 134593 / 2346114
IP misses: c411 310440 1230 / 38649
IP hits: 0 0 0 / 0
IP late: c411 310440 720 / 15066
IP wrong: 90d1 243440 636 / 19396
miss rate: 0.0164737
coverage: 0
coverage_late: 0.389817
accuracy: 0
accuracy_late: 0.437178
discarded: 0
evicts entangled j table: 0
evicts entangled k table: 2242
max bb size: 68
formats: 449 0 1919 775 468 922 0 
hist_lookups: 2526 2494 1972 1608 1294 1002 797 610 466 371 237 123 60 33 14 0 6 2881 
hist_lookups_evict: 0.0363769 %
hist_lookups_shortlat: 17.467 %
bb_found_hist: 0 439753 169583 139948 42432 90427 43572 16087 5319 31491 7058 13801 3283 4263 8745 9783 4451 5008 224 835 458 6497 1259 4058 0 2232 0 2310 1799 90 1204 0 152 623 0 82 11 646 456 0 0 0 0 446 0 0 470 582 3794 2 0 0 0 544 0 0 0 0 0 0 0 0 0 0 
bb_found_summary: 4106282 1063778 3.8601
entangled_found_hist: 0 306250 134251 168509 35188 13849 11587 0 
entangled_found_summary: 1359798 669634 2.03066
bb_ent_found_hist: 0 347297 125458 234644 102942 43095 94012 28136 22346 39944 4984 3977 33783 9402 2144 40540 17808 9763 1289 3737 1494 36 1726 7924 0 2731 0 10419 6819 0 3307 0 573 156 0 362 41 0 0 0 0 0 0 0 0 0 1517 0 13350 2 0 0 0 0 0 0 0 0 0 0 0 0 0 0 
bb_ent_found_summary: 6672005 1215758 5.48794
