WARNING: physical memory size is smaller than virtual memory size.

*** ChampSim Multicore Out-of-Order Simulator ***
Warmup Instructions: 30000000
Simulation Instructions: 100000000
Number of CPUs: 1
Page size: 4096

BTB:
Basic BTB sets: 1024 ways: 8
Indirect:
history lengths: 0 0 10 16 27 44 60 96 109 219 449 487 714 1313 2146 3881 
ITTAGE tables: 64768 bytes;Region table: 240 bytes;IUM: 384 bytes;Total Storage= 65392 bytes;
RAS:
RAS size: 64
[LLC] INSTR Demand IPV: 1 2 2 1 4 Prefetch IPV: 1 2 1 1 4
[LLC] DATA  Demand IPV: 1 1 1 2 4 Prefetch IPV: 1 1 2 2 4
Berti Prefetcher
CPU 0 Entangling prefetcher
Off-chip DRAM Size: 8 GiB Channels: 2 Width: 64-bit Data Race: 6400 MT/s
[DUEL] Epoch ended. INSTR misses = 109, DATA misses = 115. Winner = INSTR
[DUEL] Epoch ended. INSTR misses = 86, DATA misses = 87. Winner = INSTR
[DUEL] Epoch ended. INSTR misses = 117, DATA misses = 117. Winner = INSTR
[DUEL] Epoch ended. INSTR misses = 127, DATA misses = 131. Winner = INSTR
[DUEL] Epoch ended. INSTR misses = 143, DATA misses = 135. Winner = DATA
[DUEL] Epoch ended. INSTR misses = 162, DATA misses = 160. Winner = DATA
[DUEL] Epoch ended. INSTR misses = 131, DATA misses = 131. Winner = INSTR
[DUEL] Epoch ended. INSTR misses = 183, DATA misses = 178. Winner = DATA
[DUEL] Epoch ended. INSTR misses = 127, DATA misses = 125. Winner = DATA
[DUEL] Epoch ended. INSTR misses = 188, DATA misses = 184. Winner = DATA
[DUEL] Epoch ended. INSTR misses = 177, DATA misses = 178. Winner = INSTR
[DUEL] Epoch ended. INSTR misses = 161, DATA misses = 162. Winner = INSTR
[DUEL] Epoch ended. INSTR misses = 85, DATA misses = 84. Winner = DATA
[DUEL] Epoch ended. INSTR misses = 138, DATA misses = 139. Winner = INSTR
[DUEL] Epoch ended. INSTR misses = 190, DATA misses = 188. Winner = DATA
[DUEL] Epoch ended. INSTR misses = 150, DATA misses = 136. Winner = DATA
[DUEL] Epoch ended. INSTR misses = 153, DATA misses = 158. Winner = INSTR
[DUEL] Epoch ended. INSTR misses = 107, DATA misses = 105. Winner = DATA
[DUEL] Epoch ended. INSTR misses = 160, DATA misses = 164. Winner = INSTR
Heartbeat CPU 0 instructions: 10000003 cycles: 1735820 heartbeat IPC: 5.761 cumulative IPC: 5.761 (Simulation time: 00 hr 00 min 24 sec)
[DUEL] Epoch ended. INSTR misses = 122, DATA misses = 118. Winner = DATA
[DUEL] Epoch ended. INSTR misses = 229, DATA misses = 227. Winner = DATA
[DUEL] Epoch ended. INSTR misses = 100, DATA misses = 100. Winner = INSTR
[DUEL] Epoch ended. INSTR misses = 160, DATA misses = 157. Winner = DATA
[DUEL] Epoch ended. INSTR misses = 155, DATA misses = 159. Winner = INSTR
[DUEL] Epoch ended. INSTR misses = 129, DATA misses = 126. Winner = DATA
[DUEL] Epoch ended. INSTR misses = 206, DATA misses = 204. Winner = DATA
[DUEL] Epoch ended. INSTR misses = 195, DATA misses = 198. Winner = INSTR
[DUEL] Epoch ended. INSTR misses = 171, DATA misses = 170. Winner = DATA
[DUEL] Epoch ended. INSTR misses = 153, DATA misses = 154. Winner = INSTR
[DUEL] Epoch ended. INSTR misses = 188, DATA misses = 185. Winner = DATA
[DUEL] Epoch ended. INSTR misses = 167, DATA misses = 170. Winner = INSTR
[DUEL] Epoch ended. INSTR misses = 231, DATA misses = 229. Winner = DATA
[DUEL] Epoch ended. INSTR misses = 148, DATA misses = 151. Winner = INSTR
[DUEL] Epoch ended. INSTR misses = 183, DATA misses = 183. Winner = INSTR
[DUEL] Epoch ended. INSTR misses = 185, DATA misses = 184. Winner = DATA
[DUEL] Epoch ended. INSTR misses = 194, DATA misses = 195. Winner = INSTR
[DUEL] Epoch ended. INSTR misses = 180, DATA misses = 182. Winner = INSTR
[DUEL] Epoch ended. INSTR misses = 164, DATA misses = 162. Winner = DATA
[DUEL] Epoch ended. INSTR misses = 161, DATA misses = 165. Winner = INSTR
Heartbeat CPU 0 instructions: 20000009 cycles: 3427884 heartbeat IPC: 5.91 cumulative IPC: 5.835 (Simulation time: 00 hr 00 min 47 sec)
[DUEL] Epoch ended. INSTR misses = 157, DATA misses = 167. Winner = INSTR
[DUEL] Epoch ended. INSTR misses = 178, DATA misses = 178. Winner = INSTR
[DUEL] Epoch ended. INSTR misses = 132, DATA misses = 132. Winner = INSTR
[DUEL] Epoch ended. INSTR misses = 148, DATA misses = 148. Winner = INSTR
[DUEL] Epoch ended. INSTR misses = 142, DATA misses = 141. Winner = DATA
[DUEL] Epoch ended. INSTR misses = 157, DATA misses = 158. Winner = INSTR
[DUEL] Epoch ended. INSTR misses = 176, DATA misses = 177. Winner = INSTR
[DUEL] Epoch ended. INSTR misses = 195, DATA misses = 193. Winner = DATA
[DUEL] Epoch ended. INSTR misses = 124, DATA misses = 125. Winner = INSTR
[DUEL] Epoch ended. INSTR misses = 186, DATA misses = 189. Winner = INSTR
[DUEL] Epoch ended. INSTR misses = 133, DATA misses = 132. Winner = DATA
[DUEL] Epoch ended. INSTR misses = 173, DATA misses = 173. Winner = INSTR
[DUEL] Epoch ended. INSTR misses = 164, DATA misses = 161. Winner = DATA
[DUEL] Epoch ended. INSTR misses = 146, DATA misses = 145. Winner = DATA
[DUEL] Epoch ended. INSTR misses = 121, DATA misses = 117. Winner = DATA
[DUEL] Epoch ended. INSTR misses = 159, DATA misses = 160. Winner = INSTR
[DUEL] Epoch ended. INSTR misses = 173, DATA misses = 172. Winner = DATA
[DUEL] Epoch ended. INSTR misses = 131, DATA misses = 134. Winner = INSTR
[DUEL] Epoch ended. INSTR misses = 107, DATA misses = 109. Winner = INSTR
Heartbeat CPU 0 instructions: 30000007 cycles: 5114147 heartbeat IPC: 5.93 cumulative IPC: 5.866 (Simulation time: 00 hr 01 min 11 sec)
Warmup finished CPU 0 instructions: 30000007 cycles: 5114148 cumulative IPC: 5.866 (Simulation time: 00 hr 01 min 11 sec)
Warmup complete CPU 0 instructions: 30000007 cycles: 5114148 cumulative IPC: 5.866 (Simulation time: 00 hr 01 min 11 sec)
[DUEL] Epoch ended. INSTR misses = 165, DATA misses = 165. Winner = INSTR
[DUEL] Epoch ended. INSTR misses = 160, DATA misses = 163. Winner = INSTR
[DUEL] Epoch ended. INSTR misses = 118, DATA misses = 118. Winner = INSTR
[DUEL] Epoch ended. INSTR misses = 144, DATA misses = 143. Winner = DATA
[DUEL] Epoch ended. INSTR misses = 200, DATA misses = 202. Winner = INSTR
[DUEL] Epoch ended. INSTR misses = 144, DATA misses = 144. Winner = INSTR
[DUEL] Epoch ended. INSTR misses = 145, DATA misses = 143. Winner = DATA
[DUEL] Epoch ended. INSTR misses = 148, DATA misses = 147. Winner = DATA
[DUEL] Epoch ended. INSTR misses = 178, DATA misses = 180. Winner = INSTR
[DUEL] Epoch ended. INSTR misses = 195, DATA misses = 196. Winner = INSTR
[DUEL] Epoch ended. INSTR misses = 173, DATA misses = 174. Winner = INSTR
[DUEL] Epoch ended. INSTR misses = 185, DATA misses = 185. Winner = INSTR
[DUEL] Epoch ended. INSTR misses = 186, DATA misses = 185. Winner = DATA
[DUEL] Epoch ended. INSTR misses = 128, DATA misses = 128. Winner = INSTR
[DUEL] Epoch ended. INSTR misses = 115, DATA misses = 116. Winner = INSTR
[DUEL] Epoch ended. INSTR misses = 153, DATA misses = 154. Winner = INSTR
[DUEL] Epoch ended. INSTR misses = 127, DATA misses = 129. Winner = INSTR
[DUEL] Epoch ended. INSTR misses = 183, DATA misses = 182. Winner = DATA
[DUEL] Epoch ended. INSTR misses = 155, DATA misses = 152. Winner = DATA
[DUEL] Epoch ended. INSTR misses = 168, DATA misses = 173. Winner = INSTR
Heartbeat CPU 0 instructions: 40000003 cycles: 24513486 heartbeat IPC: 0.5155 cumulative IPC: 0.5155 (Simulation time: 00 hr 03 min 37 sec)
[DUEL] Epoch ended. INSTR misses = 73, DATA misses = 70. Winner = DATA
[DUEL] Epoch ended. INSTR misses = 126, DATA misses = 128. Winner = INSTR
[DUEL] Epoch ended. INSTR misses = 223, DATA misses = 225. Winner = INSTR
[DUEL] Epoch ended. INSTR misses = 154, DATA misses = 155. Winner = INSTR
[DUEL] Epoch ended. INSTR misses = 120, DATA misses = 118. Winner = DATA
[DUEL] Epoch ended. INSTR misses = 156, DATA misses = 158. Winner = INSTR
[DUEL] Epoch ended. INSTR misses = 146, DATA misses = 147. Winner = INSTR
[DUEL] Epoch ended. INSTR misses = 195, DATA misses = 195. Winner = INSTR
[DUEL] Epoch ended. INSTR misses = 178, DATA misses = 164. Winner = DATA
[DUEL] Epoch ended. INSTR misses = 204, DATA misses = 207. Winner = INSTR
[DUEL] Epoch ended. INSTR misses = 156, DATA misses = 160. Winner = INSTR
[DUEL] Epoch ended. INSTR misses = 177, DATA misses = 173. Winner = DATA
[DUEL] Epoch ended. INSTR misses = 172, DATA misses = 178. Winner = INSTR
[DUEL] Epoch ended. INSTR misses = 143, DATA misses = 144. Winner = INSTR
[DUEL] Epoch ended. INSTR misses = 172, DATA misses = 172. Winner = INSTR
[DUEL] Epoch ended. INSTR misses = 167, DATA misses = 166. Winner = DATA
[DUEL] Epoch ended. INSTR misses = 203, DATA misses = 202. Winner = DATA
[DUEL] Epoch ended. INSTR misses = 179, DATA misses = 179. Winner = INSTR
[DUEL] Epoch ended. INSTR misses = 173, DATA misses = 174. Winner = INSTR
Heartbeat CPU 0 instructions: 50000005 cycles: 44338284 heartbeat IPC: 0.5044 cumulative IPC: 0.5099 (Simulation time: 00 hr 06 min 06 sec)
[DUEL] Epoch ended. INSTR misses = 170, DATA misses = 170. Winner = INSTR
[DUEL] Epoch ended. INSTR misses = 163, DATA misses = 164. Winner = INSTR
[DUEL] Epoch ended. INSTR misses = 228, DATA misses = 228. Winner = INSTR
[DUEL] Epoch ended. INSTR misses = 252, DATA misses = 248. Winner = DATA
[DUEL] Epoch ended. INSTR misses = 145, DATA misses = 148. Winner = INSTR
[DUEL] Epoch ended. INSTR misses = 131, DATA misses = 132. Winner = INSTR
[DUEL] Epoch ended. INSTR misses = 167, DATA misses = 166. Winner = DATA
[DUEL] Epoch ended. INSTR misses = 256, DATA misses = 257. Winner = INSTR
[DUEL] Epoch ended. INSTR misses = 176, DATA misses = 176. Winner = INSTR
[DUEL] Epoch ended. INSTR misses = 147, DATA misses = 148. Winner = INSTR
[DUEL] Epoch ended. INSTR misses = 140, DATA misses = 141. Winner = INSTR
[DUEL] Epoch ended. INSTR misses = 183, DATA misses = 180. Winner = DATA
[DUEL] Epoch ended. INSTR misses = 122, DATA misses = 121. Winner = DATA
[DUEL] Epoch ended. INSTR misses = 148, DATA misses = 147. Winner = DATA
[DUEL] Epoch ended. INSTR misses = 146, DATA misses = 147. Winner = INSTR
[DUEL] Epoch ended. INSTR misses = 135, DATA misses = 132. Winner = DATA
[DUEL] Epoch ended. INSTR misses = 131, DATA misses = 131. Winner = INSTR
[DUEL] Epoch ended. INSTR misses = 179, DATA misses = 179. Winner = INSTR
[DUEL] Epoch ended. INSTR misses = 138, DATA misses = 141. Winner = INSTR
[DUEL] Epoch ended. INSTR misses = 115, DATA misses = 116. Winner = INSTR
Heartbeat CPU 0 instructions: 60000008 cycles: 63857382 heartbeat IPC: 0.5123 cumulative IPC: 0.5107 (Simulation time: 00 hr 08 min 36 sec)
[DUEL] Epoch ended. INSTR misses = 157, DATA misses = 156. Winner = DATA
[DUEL] Epoch ended. INSTR misses = 208, DATA misses = 208. Winner = INSTR
[DUEL] Epoch ended. INSTR misses = 185, DATA misses = 174. Winner = DATA
[DUEL] Epoch ended. INSTR misses = 147, DATA misses = 159. Winner = INSTR
[DUEL] Epoch ended. INSTR misses = 204, DATA misses = 205. Winner = INSTR
[DUEL] Epoch ended. INSTR misses = 135, DATA misses = 135. Winner = INSTR
[DUEL] Epoch ended. INSTR misses = 167, DATA misses = 167. Winner = INSTR
[DUEL] Epoch ended. INSTR misses = 189, DATA misses = 188. Winner = DATA
[DUEL] Epoch ended. INSTR misses = 188, DATA misses = 188. Winner = INSTR
[DUEL] Epoch ended. INSTR misses = 174, DATA misses = 172. Winner = DATA
[DUEL] Epoch ended. INSTR misses = 183, DATA misses = 183. Winner = INSTR
[DUEL] Epoch ended. INSTR misses = 149, DATA misses = 151. Winner = INSTR
[DUEL] Epoch ended. INSTR misses = 115, DATA misses = 114. Winner = DATA
[DUEL] Epoch ended. INSTR misses = 183, DATA misses = 182. Winner = DATA
[DUEL] Epoch ended. INSTR misses = 167, DATA misses = 168. Winner = INSTR
[DUEL] Epoch ended. INSTR misses = 157, DATA misses = 157. Winner = INSTR
[DUEL] Epoch ended. INSTR misses = 132, DATA misses = 131. Winner = DATA
[DUEL] Epoch ended. INSTR misses = 159, DATA misses = 160. Winner = INSTR
[DUEL] Epoch ended. INSTR misses = 159, DATA misses = 159. Winner = INSTR
Heartbeat CPU 0 instructions: 70000011 cycles: 83437240 heartbeat IPC: 0.5107 cumulative IPC: 0.5107 (Simulation time: 00 hr 11 min 06 sec)
[DUEL] Epoch ended. INSTR misses = 189, DATA misses = 190. Winner = INSTR
[DUEL] Epoch ended. INSTR misses = 140, DATA misses = 136. Winner = DATA
[DUEL] Epoch ended. INSTR misses = 159, DATA misses = 161. Winner = INSTR
[DUEL] Epoch ended. INSTR misses = 138, DATA misses = 139. Winner = INSTR
[DUEL] Epoch ended. INSTR misses = 213, DATA misses = 209. Winner = DATA
[DUEL] Epoch ended. INSTR misses = 225, DATA misses = 223. Winner = DATA
[DUEL] Epoch ended. INSTR misses = 191, DATA misses = 192. Winner = INSTR
[DUEL] Epoch ended. INSTR misses = 96, DATA misses = 96. Winner = INSTR
[DUEL] Epoch ended. INSTR misses = 225, DATA misses = 225. Winner = INSTR
[DUEL] Epoch ended. INSTR misses = 167, DATA misses = 163. Winner = DATA
[DUEL] Epoch ended. INSTR misses = 208, DATA misses = 216. Winner = INSTR
[DUEL] Epoch ended. INSTR misses = 148, DATA misses = 147. Winner = DATA
[DUEL] Epoch ended. INSTR misses = 150, DATA misses = 150. Winner = INSTR
[DUEL] Epoch ended. INSTR misses = 146, DATA misses = 148. Winner = INSTR
[DUEL] Epoch ended. INSTR misses = 145, DATA misses = 144. Winner = DATA
[DUEL] Epoch ended. INSTR misses = 167, DATA misses = 167. Winner = INSTR
[DUEL] Epoch ended. INSTR misses = 170, DATA misses = 170. Winner = INSTR
[DUEL] Epoch ended. INSTR misses = 171, DATA misses = 169. Winner = DATA
[DUEL] Epoch ended. INSTR misses = 141, DATA misses = 140. Winner = DATA
[DUEL] Epoch ended. INSTR misses = 122, DATA misses = 122. Winner = INSTR
Heartbeat CPU 0 instructions: 80000000 cycles: 103292908 heartbeat IPC: 0.5036 cumulative IPC: 0.5093 (Simulation time: 00 hr 13 min 38 sec)
[DUEL] Epoch ended. INSTR misses = 164, DATA misses = 168. Winner = INSTR
[DUEL] Epoch ended. INSTR misses = 188, DATA misses = 189. Winner = INSTR
[DUEL] Epoch ended. INSTR misses = 140, DATA misses = 141. Winner = INSTR
[DUEL] Epoch ended. INSTR misses = 186, DATA misses = 186. Winner = INSTR
[DUEL] Epoch ended. INSTR misses = 196, DATA misses = 196. Winner = INSTR
[DUEL] Epoch ended. INSTR misses = 176, DATA misses = 176. Winner = INSTR
[DUEL] Epoch ended. INSTR misses = 144, DATA misses = 143. Winner = DATA
[DUEL] Epoch ended. INSTR misses = 267, DATA misses = 264. Winner = DATA
[DUEL] Epoch ended. INSTR misses = 199, DATA misses = 203. Winner = INSTR
[DUEL] Epoch ended. INSTR misses = 122, DATA misses = 122. Winner = INSTR
[DUEL] Epoch ended. INSTR misses = 125, DATA misses = 125. Winner = INSTR
[DUEL] Epoch ended. INSTR misses = 218, DATA misses = 218. Winner = INSTR
[DUEL] Epoch ended. INSTR misses = 202, DATA misses = 202. Winner = INSTR
[DUEL] Epoch ended. INSTR misses = 102, DATA misses = 103. Winner = INSTR
[DUEL] Epoch ended. INSTR misses = 118, DATA misses = 118. Winner = INSTR
[DUEL] Epoch ended. INSTR misses = 161, DATA misses = 161. Winner = INSTR
[DUEL] Epoch ended. INSTR misses = 144, DATA misses = 141. Winner = DATA
[DUEL] Epoch ended. INSTR misses = 113, DATA misses = 115. Winner = INSTR
[DUEL] Epoch ended. INSTR misses = 125, DATA misses = 125. Winner = INSTR
Heartbeat CPU 0 instructions: 90000010 cycles: 122656668 heartbeat IPC: 0.5164 cumulative IPC: 0.5105 (Simulation time: 00 hr 16 min 08 sec)
[DUEL] Epoch ended. INSTR misses = 179, DATA misses = 178. Winner = DATA
[DUEL] Epoch ended. INSTR misses = 102, DATA misses = 103. Winner = INSTR
[DUEL] Epoch ended. INSTR misses = 115, DATA misses = 114. Winner = DATA
[DUEL] Epoch ended. INSTR misses = 128, DATA misses = 128. Winner = INSTR
[DUEL] Epoch ended. INSTR misses = 177, DATA misses = 175. Winner = DATA
[DUEL] Epoch ended. INSTR misses = 96, DATA misses = 92. Winner = DATA
[DUEL] Epoch ended. INSTR misses = 93, DATA misses = 93. Winner = INSTR
[DUEL] Epoch ended. INSTR misses = 120, DATA misses = 121. Winner = INSTR
[DUEL] Epoch ended. INSTR misses = 125, DATA misses = 125. Winner = INSTR
[DUEL] Epoch ended. INSTR misses = 102, DATA misses = 103. Winner = INSTR
[DUEL] Epoch ended. INSTR misses = 105, DATA misses = 107. Winner = INSTR
[DUEL] Epoch ended. INSTR misses = 74, DATA misses = 73. Winner = DATA
[DUEL] Epoch ended. INSTR misses = 109, DATA misses = 109. Winner = INSTR
[DUEL] Epoch ended. INSTR misses = 144, DATA misses = 144. Winner = INSTR
[DUEL] Epoch ended. INSTR misses = 80, DATA misses = 80. Winner = INSTR
[DUEL] Epoch ended. INSTR misses = 147, DATA misses = 148. Winner = INSTR
[DUEL] Epoch ended. INSTR misses = 115, DATA misses = 115. Winner = INSTR
[DUEL] Epoch ended. INSTR misses = 154, DATA misses = 153. Winner = DATA
[DUEL] Epoch ended. INSTR misses = 165, DATA misses = 167. Winner = INSTR
[DUEL] Epoch ended. INSTR misses = 255, DATA misses = 253. Winner = DATA
Heartbeat CPU 0 instructions: 100000010 cycles: 143537129 heartbeat IPC: 0.4789 cumulative IPC: 0.5057 (Simulation time: 00 hr 18 min 47 sec)
*** Reached end of trace: (0, "../traces/secret_traces/compute_fp/compute_fp_110.champsimtrace.xz")
[DUEL] Epoch ended. INSTR misses = 157, DATA misses = 169. Winner = INSTR
[DUEL] Epoch ended. INSTR misses = 57, DATA misses = 69. Winner = INSTR
[DUEL] Epoch ended. INSTR misses = 76, DATA misses = 81. Winner = INSTR
[DUEL] Epoch ended. INSTR misses = 129, DATA misses = 130. Winner = INSTR
[DUEL] Epoch ended. INSTR misses = 89, DATA misses = 84. Winner = DATA
[DUEL] Epoch ended. INSTR misses = 187, DATA misses = 178. Winner = DATA
[DUEL] Epoch ended. INSTR misses = 151, DATA misses = 150. Winner = DATA
[DUEL] Epoch ended. INSTR misses = 157, DATA misses = 156. Winner = DATA
[DUEL] Epoch ended. INSTR misses = 138, DATA misses = 136. Winner = DATA
[DUEL] Epoch ended. INSTR misses = 166, DATA misses = 162. Winner = DATA
[DUEL] Epoch ended. INSTR misses = 137, DATA misses = 135. Winner = DATA
[DUEL] Epoch ended. INSTR misses = 209, DATA misses = 210. Winner = INSTR
[DUEL] Epoch ended. INSTR misses = 91, DATA misses = 91. Winner = INSTR
[DUEL] Epoch ended. INSTR misses = 122, DATA misses = 122. Winner = INSTR
[DUEL] Epoch ended. INSTR misses = 189, DATA misses = 185. Winner = DATA
[DUEL] Epoch ended. INSTR misses = 173, DATA misses = 171. Winner = DATA
[DUEL] Epoch ended. INSTR misses = 133, DATA misses = 131. Winner = DATA
[DUEL] Epoch ended. INSTR misses = 109, DATA misses = 107. Winner = DATA
[DUEL] Epoch ended. INSTR misses = 125, DATA misses = 125. Winner = INSTR
Heartbeat CPU 0 instructions: 110000010 cycles: 161617251 heartbeat IPC: 0.5531 cumulative IPC: 0.5112 (Simulation time: 00 hr 21 min 04 sec)
[DUEL] Epoch ended. INSTR misses = 165, DATA misses = 164. Winner = DATA
[DUEL] Epoch ended. INSTR misses = 190, DATA misses = 187. Winner = DATA
[DUEL] Epoch ended. INSTR misses = 156, DATA misses = 157. Winner = INSTR
[DUEL] Epoch ended. INSTR misses = 99, DATA misses = 101. Winner = INSTR
[DUEL] Epoch ended. INSTR misses = 169, DATA misses = 171. Winner = INSTR
[DUEL] Epoch ended. INSTR misses = 155, DATA misses = 155. Winner = INSTR
[DUEL] Epoch ended. INSTR misses = 159, DATA misses = 155. Winner = DATA
[DUEL] Epoch ended. INSTR misses = 183, DATA misses = 184. Winner = INSTR
[DUEL] Epoch ended. INSTR misses = 188, DATA misses = 196. Winner = INSTR
[DUEL] Epoch ended. INSTR misses = 150, DATA misses = 145. Winner = DATA
[DUEL] Epoch ended. INSTR misses = 188, DATA misses = 193. Winner = INSTR
[DUEL] Epoch ended. INSTR misses = 183, DATA misses = 185. Winner = INSTR
[DUEL] Epoch ended. INSTR misses = 202, DATA misses = 198. Winner = DATA
[DUEL] Epoch ended. INSTR misses = 167, DATA misses = 170. Winner = INSTR
[DUEL] Epoch ended. INSTR misses = 159, DATA misses = 160. Winner = INSTR
[DUEL] Epoch ended. INSTR misses = 202, DATA misses = 202. Winner = INSTR
[DUEL] Epoch ended. INSTR misses = 158, DATA misses = 160. Winner = INSTR
[DUEL] Epoch ended. INSTR misses = 210, DATA misses = 207. Winner = DATA
[DUEL] Epoch ended. INSTR misses = 164, DATA misses = 163. Winner = DATA
[DUEL] Epoch ended. INSTR misses = 185, DATA misses = 197. Winner = INSTR
Heartbeat CPU 0 instructions: 120000006 cycles: 180911982 heartbeat IPC: 0.5183 cumulative IPC: 0.512 (Simulation time: 00 hr 23 min 31 sec)
[DUEL] Epoch ended. INSTR misses = 141, DATA misses = 127. Winner = DATA
[DUEL] Epoch ended. INSTR misses = 171, DATA misses = 190. Winner = INSTR
[DUEL] Epoch ended. INSTR misses = 157, DATA misses = 156. Winner = DATA
[DUEL] Epoch ended. INSTR misses = 144, DATA misses = 134. Winner = DATA
[DUEL] Epoch ended. INSTR misses = 114, DATA misses = 122. Winner = INSTR
[DUEL] Epoch ended. INSTR misses = 159, DATA misses = 159. Winner = INSTR
[DUEL] Epoch ended. INSTR misses = 162, DATA misses = 162. Winner = INSTR
[DUEL] Epoch ended. INSTR misses = 179, DATA misses = 178. Winner = DATA
[DUEL] Epoch ended. INSTR misses = 160, DATA misses = 160. Winner = INSTR
[DUEL] Epoch ended. INSTR misses = 180, DATA misses = 182. Winner = INSTR
[DUEL] Epoch ended. INSTR misses = 138, DATA misses = 138. Winner = INSTR
[DUEL] Epoch ended. INSTR misses = 163, DATA misses = 164. Winner = INSTR
[DUEL] Epoch ended. INSTR misses = 157, DATA misses = 155. Winner = DATA
[DUEL] Epoch ended. INSTR misses = 158, DATA misses = 157. Winner = DATA
[DUEL] Epoch ended. INSTR misses = 127, DATA misses = 126. Winner = DATA
[DUEL] Epoch ended. INSTR misses = 150, DATA misses = 150. Winner = INSTR
[DUEL] Epoch ended. INSTR misses = 195, DATA misses = 195. Winner = INSTR
[DUEL] Epoch ended. INSTR misses = 116, DATA misses = 117. Winner = INSTR
[DUEL] Epoch ended. INSTR misses = 124, DATA misses = 129. Winner = INSTR
Heartbeat CPU 0 instructions: 130000004 cycles: 200303506 heartbeat IPC: 0.5157 cumulative IPC: 0.5123 (Simulation time: 00 hr 26 min 00 sec)
Simulation finished CPU 0 instructions: 100000005 cycles: 195189362 cumulative IPC: 0.5123 (Simulation time: 00 hr 26 min 00 sec)
Simulation complete CPU 0 instructions: 100000005 cycles: 195189362 cumulative IPC: 0.5123 (Simulation time: 00 hr 26 min 00 sec)

ChampSim completed all CPUs

=== Simulation ===
CPU 0 runs ../traces/secret_traces/compute_fp/compute_fp_110.champsimtrace.xz
Region of Interest Statistics

CPU 0 cumulative IPC: 0.5123 instructions: 100000005 cycles: 195189362
CPU 0 Branch Prediction Accuracy: 99.17% MPKI: 0.132 Average ROB Occupancy at Mispredict: 32.59
Branch type MPKI
BRANCH_DIRECT_JUMP: 0.00702
BRANCH_INDIRECT: 0.0667
BRANCH_CONDITIONAL: 0.0255
BRANCH_DIRECT_CALL: 0.0196
BRANCH_INDIRECT_CALL: 0.00227
BRANCH_RETURN: 0.0108

LLC TOTAL        ACCESS:    7824948 HIT:     436620 MISS:    7388328
LLC LOAD         ACCESS:      63625 HIT:        171 MISS:      63454
LLC RFO          ACCESS:    3297633 HIT:     126302 MISS:    3171331
LLC PREFETCH     ACCESS:    1152196 HIT:        192 MISS:    1152004
LLC WRITE        ACCESS:    3309447 HIT:     309874 MISS:    2999573
LLC TRANSLATION  ACCESS:       2047 HIT:         81 MISS:       1966
LLC PREFETCH REQUESTED:          0 ISSUED:          0 USEFUL:          0 USELESS:          0
LLC AVERAGE MISS LATENCY: 517.6 cycles
cpu0_DTLB TOTAL        ACCESS:   12132191 HIT:   12006202 MISS:     125989
cpu0_DTLB LOAD         ACCESS:   12132191 HIT:   12006202 MISS:     125989
cpu0_DTLB RFO          ACCESS:          0 HIT:          0 MISS:          0
cpu0_DTLB PREFETCH     ACCESS:          0 HIT:          0 MISS:          0
cpu0_DTLB WRITE        ACCESS:          0 HIT:          0 MISS:          0
cpu0_DTLB TRANSLATION  ACCESS:          0 HIT:          0 MISS:          0
cpu0_DTLB PREFETCH REQUESTED:          0 ISSUED:          0 USEFUL:          0 USELESS:          0
cpu0_DTLB AVERAGE MISS LATENCY: 61.29 cycles
cpu0_ITLB TOTAL        ACCESS:     116949 HIT:     115473 MISS:       1476
cpu0_ITLB LOAD         ACCESS:     116949 HIT:     115473 MISS:       1476
cpu0_ITLB RFO          ACCESS:          0 HIT:          0 MISS:          0
cpu0_ITLB PREFETCH     ACCESS:          0 HIT:          0 MISS:          0
cpu0_ITLB WRITE        ACCESS:          0 HIT:          0 MISS:          0
cpu0_ITLB TRANSLATION  ACCESS:          0 HIT:          0 MISS:          0
cpu0_ITLB PREFETCH REQUESTED:          0 ISSUED:          0 USEFUL:          0 USELESS:          0
cpu0_ITLB AVERAGE MISS LATENCY: 74.38 cycles
cpu0_L1D TOTAL        ACCESS:   15228915 HIT:    5042493 MISS:   10186422
cpu0_L1D LOAD         ACCESS:    3024831 HIT:    1921569 MISS:    1103262
cpu0_L1D RFO          ACCESS:          0 HIT:          0 MISS:          0
cpu0_L1D PREFETCH     ACCESS:    3117731 HIT:    1193880 MISS:    1923851
cpu0_L1D WRITE        ACCESS:    9046773 HIT:    1924281 MISS:    7122492
cpu0_L1D TRANSLATION  ACCESS:      39580 HIT:       2763 MISS:      36817
cpu0_L1D PREFETCH REQUESTED:  157963622 ISSUED:    3117763 USEFUL:     256632 USELESS:        159
cpu0_L1D AVERAGE MISS LATENCY: 266.7 cycles
cpu0_L1I TOTAL        ACCESS:     169536 HIT:     135005 MISS:      34531
cpu0_L1I LOAD         ACCESS:      58940 HIT:      48550 MISS:      10390
cpu0_L1I RFO          ACCESS:          0 HIT:          0 MISS:          0
cpu0_L1I PREFETCH     ACCESS:     110596 HIT:      86455 MISS:      24141
cpu0_L1I WRITE        ACCESS:          0 HIT:          0 MISS:          0
cpu0_L1I TRANSLATION  ACCESS:          0 HIT:          0 MISS:          0
cpu0_L1I PREFETCH REQUESTED:     167787 ISSUED:     110596 USEFUL:      13329 USELESS:       8832
cpu0_L1I AVERAGE MISS LATENCY: 149.6 cycles
cpu0_L2C TOTAL        ACCESS:   18380586 HIT:   13211225 MISS:    5169361
cpu0_L2C LOAD         ACCESS:     943400 HIT:     826151 MISS:     117249
cpu0_L2C RFO          ACCESS:    6585660 HIT:    3287960 MISS:    3297700
cpu0_L2C PREFETCH     ACCESS:    4225571 HIT:    2473206 MISS:    1752365
cpu0_L2C WRITE        ACCESS:    6589152 HIT:    6589152 MISS:          0
cpu0_L2C TRANSLATION  ACCESS:      36803 HIT:      34756 MISS:       2047
cpu0_L2C PREFETCH REQUESTED:    2646791 ISSUED:    2586427 USEFUL:     522932 USELESS:      18210
cpu0_L2C AVERAGE MISS LATENCY: 753.4 cycles
cpu0_STLB TOTAL        ACCESS:      77194 HIT:      37835 MISS:      39359
cpu0_STLB LOAD         ACCESS:      77194 HIT:      37835 MISS:      39359
cpu0_STLB RFO          ACCESS:          0 HIT:          0 MISS:          0
cpu0_STLB PREFETCH     ACCESS:          0 HIT:          0 MISS:          0
cpu0_STLB WRITE        ACCESS:          0 HIT:          0 MISS:          0
cpu0_STLB TRANSLATION  ACCESS:          0 HIT:          0 MISS:          0
cpu0_STLB PREFETCH REQUESTED:          0 ISSUED:          0 USEFUL:          0 USELESS:          0
cpu0_STLB AVERAGE MISS LATENCY: 303.5 cycles

DRAM Statistics

Channel 0 RQ ROW_BUFFER_HIT:     347390
  ROW_BUFFER_MISS:    1847178
 AVG DBUS CONGESTED CYCLE: 3.988
WQ ROW_BUFFER_HIT: Channel 0 
  ROW_BUFFER_MISS:      74280
  FULL:    1525447

Channel 1 RQ ROW_BUFFER_HIT:     343939
  ROW_BUFFER_MISS:    1850187
 AVG DBUS CONGESTED CYCLE: 3.988
WQ ROW_BUFFER_HIT: Channel 1 
  ROW_BUFFER_MISS:      74233
  FULL:    1525128
BERTI TO_L1: 4987264 TO_L2: 159866716 TO_L2_BC_MSHR: 114888393
BERTI AVG_LAT: 412.099 NUM_TRACK_LATENCY: 1528187 NUM_CANT_TRACK_LATENCY: 21566
BERTI CROSS_PAGE 75784463 NO_CROSS_PAGE: 89069517
BERTI FOUND_BERTI: 15368303 NO_FOUND_BERTI: 3068941
BERTI AVERAGE_ISSUED: 5.83431
CPU 0 L1I Entangling prefetcher final stats
IP accesses: ea8a 3aa280 1277 / 76661
IP misses: ea8a 3aa280 1249 / 28111
IP hits: 0 0 0 / 0
IP late: e8be 3a2f80 13 / 5413
IP wrong: e8e9 3a3a40 23 / 8779
miss rate: 0.366693
coverage: 0
coverage_late: 0.192559
accuracy: 0
accuracy_late: 0.381413
discarded: 0
evicts entangled j table: 0
evicts entangled k table: 1457
max bb size: 65
formats: 395 0 1272 747 312 625 0 
hist_lookups: 1035 1145 939 872 724 602 520 414 344 243 149 121 91 46 25 0 12 3524 
hist_lookups_evict: 0.11105 %
hist_lookups_shortlat: 32.6116 %
bb_found_hist: 0 14310 6149 2758 1025 640 228 66 65 29 26 22 12 0 40 1 17 0 0 0 0 0 0 0 0 0 0 0 0 0 0 0 0 0 0 0 0 0 0 0 0 0 0 0 0 0 0 0 0 2 0 0 0 0 0 0 0 0 0 0 0 0 0 0 
bb_found_summary: 46384 25390 1.82687
entangled_found_hist: 0 8170 5407 9789 1586 397 57 0 
entangled_found_summary: 57022 25406 2.24444
bb_ent_found_hist: 0 19120 9569 5662 2208 1375 894 274 200 5 15 0 0 0 38 2 0 0 0 0 0 0 0 0 0 0 0 0 0 0 0 0 0 0 0 0 0 0 0 0 0 0 0 0 0 0 0 0 0 3 0 0 0 0 0 0 0 0 0 0 0 0 0 0 
bb_ent_found_summary: 80737 39365 2.05099
