WARNING: physical memory size is smaller than virtual memory size.

*** ChampSim Multicore Out-of-Order Simulator ***
Warmup Instructions: 30000000
Simulation Instructions: 100000000
Number of CPUs: 1
Page size: 4096

BTB:
Basic BTB sets: 1024 ways: 8
Indirect:
history lengths: 0 0 10 16 27 44 60 96 109 219 449 487 714 1313 2146 3881 
ITTAGE tables: 64768 bytes;Region table: 240 bytes;IUM: 384 bytes;Total Storage= 65392 bytes;
RAS:
RAS size: 64
[LLC] INSTR Demand IPV: 1 2 2 1 4 Prefetch IPV: 1 2 1 1 4
[LLC] DATA  Demand IPV: 1 1 1 2 4 Prefetch IPV: 1 1 2 2 4
Berti Prefetcher
CPU 0 Entangling prefetcher
Off-chip DRAM Size: 8 GiB Channels: 2 Width: 64-bit Data Race: 6400 MT/s
[DUEL] Epoch ended. INSTR misses = 117, DATA misses = 101. Winner = DATA
[DUEL] Epoch ended. INSTR misses = 74, DATA misses = 61. Winner = DATA
[DUEL] Epoch ended. INSTR misses = 67, DATA misses = 66. Winner = DATA
[DUEL] Epoch ended. INSTR misses = 55, DATA misses = 65. Winner = INSTR
[DUEL] Epoch ended. INSTR misses = 34, DATA misses = 32. Winner = DATA
[DUEL] Epoch ended. INSTR misses = 69, DATA misses = 76. Winner = INSTR
[DUEL] Epoch ended. INSTR misses = 38, DATA misses = 42. Winner = INSTR
[DUEL] Epoch ended. INSTR misses = 33, DATA misses = 35. Winner = INSTR
[DUEL] Epoch ended. INSTR misses = 29, DATA misses = 33. Winner = INSTR
[DUEL] Epoch ended. INSTR misses = 39, DATA misses = 34. Winner = DATA
[DUEL] Epoch ended. INSTR misses = 32, DATA misses = 23. Winner = DATA
[DUEL] Epoch ended. INSTR misses = 23, DATA misses = 17. Winner = DATA
[DUEL] Epoch ended. INSTR misses = 29, DATA misses = 30. Winner = INSTR
[DUEL] Epoch ended. INSTR misses = 27, DATA misses = 20. Winner = DATA
[DUEL] Epoch ended. INSTR misses = 26, DATA misses = 28. Winner = INSTR
[DUEL] Epoch ended. INSTR misses = 27, DATA misses = 25. Winner = DATA
[DUEL] Epoch ended. INSTR misses = 32, DATA misses = 15. Winner = DATA
[DUEL] Epoch ended. INSTR misses = 21, DATA misses = 13. Winner = DATA
[DUEL] Epoch ended. INSTR misses = 24, DATA misses = 29. Winner = INSTR
Heartbeat CPU 0 instructions: 10000001 cycles: 1967726 heartbeat IPC: 5.082 cumulative IPC: 5.082 (Simulation time: 00 hr 00 min 28 sec)
[DUEL] Epoch ended. INSTR misses = 16, DATA misses = 12. Winner = DATA
[DUEL] Epoch ended. INSTR misses = 15, DATA misses = 12. Winner = DATA
[DUEL] Epoch ended. INSTR misses = 33, DATA misses = 26. Winner = DATA
[DUEL] Epoch ended. INSTR misses = 16, DATA misses = 12. Winner = DATA
[DUEL] Epoch ended. INSTR misses = 17, DATA misses = 14. Winner = DATA
[DUEL] Epoch ended. INSTR misses = 31, DATA misses = 25. Winner = DATA
[DUEL] Epoch ended. INSTR misses = 16, DATA misses = 12. Winner = DATA
[DUEL] Epoch ended. INSTR misses = 19, DATA misses = 14. Winner = DATA
[DUEL] Epoch ended. INSTR misses = 30, DATA misses = 24. Winner = DATA
[DUEL] Epoch ended. INSTR misses = 15, DATA misses = 12. Winner = DATA
[DUEL] Epoch ended. INSTR misses = 3, DATA misses = 4. Winner = INSTR
[DUEL] Epoch ended. INSTR misses = 0, DATA misses = 0. Winner = INSTR
[DUEL] Epoch ended. INSTR misses = 12, DATA misses = 12. Winner = INSTR
[DUEL] Epoch ended. INSTR misses = 21, DATA misses = 12. Winner = DATA
[DUEL] Epoch ended. INSTR misses = 25, DATA misses = 19. Winner = DATA
[DUEL] Epoch ended. INSTR misses = 16, DATA misses = 9. Winner = DATA
[DUEL] Epoch ended. INSTR misses = 18, DATA misses = 20. Winner = INSTR
[DUEL] Epoch ended. INSTR misses = 22, DATA misses = 19. Winner = DATA
[DUEL] Epoch ended. INSTR misses = 13, DATA misses = 11. Winner = DATA
Heartbeat CPU 0 instructions: 20000007 cycles: 3957837 heartbeat IPC: 5.025 cumulative IPC: 5.053 (Simulation time: 00 hr 00 min 56 sec)
[DUEL] Epoch ended. INSTR misses = 20, DATA misses = 20. Winner = INSTR
[DUEL] Epoch ended. INSTR misses = 22, DATA misses = 19. Winner = DATA
[DUEL] Epoch ended. INSTR misses = 14, DATA misses = 10. Winner = DATA
[DUEL] Epoch ended. INSTR misses = 23, DATA misses = 23. Winner = INSTR
[DUEL] Epoch ended. INSTR misses = 17, DATA misses = 14. Winner = DATA
[DUEL] Epoch ended. INSTR misses = 19, DATA misses = 13. Winner = DATA
[DUEL] Epoch ended. INSTR misses = 15, DATA misses = 16. Winner = INSTR
[DUEL] Epoch ended. INSTR misses = 19, DATA misses = 19. Winner = INSTR
[DUEL] Epoch ended. INSTR misses = 15, DATA misses = 12. Winner = DATA
[DUEL] Epoch ended. INSTR misses = 21, DATA misses = 11. Winner = DATA
[DUEL] Epoch ended. INSTR misses = 19, DATA misses = 19. Winner = INSTR
[DUEL] Epoch ended. INSTR misses = 20, DATA misses = 12. Winner = DATA
[DUEL] Epoch ended. INSTR misses = 11, DATA misses = 18. Winner = INSTR
[DUEL] Epoch ended. INSTR misses = 28, DATA misses = 24. Winner = DATA
[DUEL] Epoch ended. INSTR misses = 37, DATA misses = 38. Winner = INSTR
[DUEL] Epoch ended. INSTR misses = 30, DATA misses = 19. Winner = DATA
[DUEL] Epoch ended. INSTR misses = 19, DATA misses = 20. Winner = INSTR
[DUEL] Epoch ended. INSTR misses = 26, DATA misses = 19. Winner = DATA
[DUEL] Epoch ended. INSTR misses = 32, DATA misses = 30. Winner = DATA
[DUEL] Epoch ended. INSTR misses = 17, DATA misses = 17. Winner = INSTR
Heartbeat CPU 0 instructions: 30000000 cycles: 5933747 heartbeat IPC: 5.061 cumulative IPC: 5.056 (Simulation time: 00 hr 01 min 24 sec)
Warmup finished CPU 0 instructions: 30000000 cycles: 5933748 cumulative IPC: 5.056 (Simulation time: 00 hr 01 min 24 sec)
Warmup complete CPU 0 instructions: 30000000 cycles: 5933748 cumulative IPC: 5.056 (Simulation time: 00 hr 01 min 24 sec)
[DUEL] Epoch ended. INSTR misses = 29, DATA misses = 25. Winner = DATA
[DUEL] Epoch ended. INSTR misses = 39, DATA misses = 37. Winner = DATA
[DUEL] Epoch ended. INSTR misses = 21, DATA misses = 18. Winner = DATA
[DUEL] Epoch ended. INSTR misses = 14, DATA misses = 14. Winner = INSTR
[DUEL] Epoch ended. INSTR misses = 23, DATA misses = 20. Winner = DATA
[DUEL] Epoch ended. INSTR misses = 47, DATA misses = 37. Winner = DATA
[DUEL] Epoch ended. INSTR misses = 16, DATA misses = 21. Winner = INSTR
[DUEL] Epoch ended. INSTR misses = 21, DATA misses = 22. Winner = INSTR
[DUEL] Epoch ended. INSTR misses = 44, DATA misses = 30. Winner = DATA
[DUEL] Epoch ended. INSTR misses = 23, DATA misses = 23. Winner = INSTR
[DUEL] Epoch ended. INSTR misses = 24, DATA misses = 19. Winner = DATA
[DUEL] Epoch ended. INSTR misses = 23, DATA misses = 23. Winner = INSTR
[DUEL] Epoch ended. INSTR misses = 33, DATA misses = 35. Winner = INSTR
[DUEL] Epoch ended. INSTR misses = 17, DATA misses = 11. Winner = DATA
[DUEL] Epoch ended. INSTR misses = 9, DATA misses = 1. Winner = DATA
[DUEL] Epoch ended. INSTR misses = 0, DATA misses = 0. Winner = INSTR
[DUEL] Epoch ended. INSTR misses = 18, DATA misses = 16. Winner = DATA
[DUEL] Epoch ended. INSTR misses = 24, DATA misses = 21. Winner = DATA
[DUEL] Epoch ended. INSTR misses = 39, DATA misses = 38. Winner = DATA
Heartbeat CPU 0 instructions: 40000001 cycles: 9160999 heartbeat IPC: 3.099 cumulative IPC: 3.099 (Simulation time: 00 hr 02 min 01 sec)
[DUEL] Epoch ended. INSTR misses = 25, DATA misses = 21. Winner = DATA
[DUEL] Epoch ended. INSTR misses = 20, DATA misses = 18. Winner = DATA
[DUEL] Epoch ended. INSTR misses = 26, DATA misses = 22. Winner = DATA
[DUEL] Epoch ended. INSTR misses = 45, DATA misses = 26. Winner = DATA
[DUEL] Epoch ended. INSTR misses = 7, DATA misses = 14. Winner = INSTR
[DUEL] Epoch ended. INSTR misses = 29, DATA misses = 24. Winner = DATA
[DUEL] Epoch ended. INSTR misses = 43, DATA misses = 32. Winner = DATA
[DUEL] Epoch ended. INSTR misses = 33, DATA misses = 18. Winner = DATA
[DUEL] Epoch ended. INSTR misses = 11, DATA misses = 12. Winner = INSTR
[DUEL] Epoch ended. INSTR misses = 23, DATA misses = 22. Winner = DATA
[DUEL] Epoch ended. INSTR misses = 46, DATA misses = 28. Winner = DATA
[DUEL] Epoch ended. INSTR misses = 10, DATA misses = 13. Winner = INSTR
[DUEL] Epoch ended. INSTR misses = 29, DATA misses = 26. Winner = DATA
[DUEL] Epoch ended. INSTR misses = 47, DATA misses = 29. Winner = DATA
[DUEL] Epoch ended. INSTR misses = 33, DATA misses = 10. Winner = DATA
[DUEL] Epoch ended. INSTR misses = 17, DATA misses = 16. Winner = DATA
[DUEL] Epoch ended. INSTR misses = 20, DATA misses = 13. Winner = DATA
[DUEL] Epoch ended. INSTR misses = 53, DATA misses = 23. Winner = DATA
[DUEL] Epoch ended. INSTR misses = 10, DATA misses = 16. Winner = INSTR
Heartbeat CPU 0 instructions: 50000001 cycles: 12306164 heartbeat IPC: 3.179 cumulative IPC: 3.139 (Simulation time: 00 hr 02 min 38 sec)
[DUEL] Epoch ended. INSTR misses = 20, DATA misses = 21. Winner = INSTR
[DUEL] Epoch ended. INSTR misses = 44, DATA misses = 24. Winner = DATA
[DUEL] Epoch ended. INSTR misses = 30, DATA misses = 13. Winner = DATA
[DUEL] Epoch ended. INSTR misses = 15, DATA misses = 15. Winner = INSTR
[DUEL] Epoch ended. INSTR misses = 23, DATA misses = 19. Winner = DATA
[DUEL] Epoch ended. INSTR misses = 56, DATA misses = 17. Winner = DATA
[DUEL] Epoch ended. INSTR misses = 17, DATA misses = 16. Winner = DATA
[DUEL] Epoch ended. INSTR misses = 20, DATA misses = 22. Winner = INSTR
[DUEL] Epoch ended. INSTR misses = 39, DATA misses = 20. Winner = DATA
[DUEL] Epoch ended. INSTR misses = 25, DATA misses = 15. Winner = DATA
[DUEL] Epoch ended. INSTR misses = 20, DATA misses = 19. Winner = DATA
[DUEL] Epoch ended. INSTR misses = 23, DATA misses = 20. Winner = DATA
[DUEL] Epoch ended. INSTR misses = 57, DATA misses = 21. Winner = DATA
[DUEL] Epoch ended. INSTR misses = 22, DATA misses = 21. Winner = DATA
[DUEL] Epoch ended. INSTR misses = 21, DATA misses = 22. Winner = INSTR
[DUEL] Epoch ended. INSTR misses = 49, DATA misses = 31. Winner = DATA
[DUEL] Epoch ended. INSTR misses = 30, DATA misses = 21. Winner = DATA
[DUEL] Epoch ended. INSTR misses = 18, DATA misses = 12. Winner = DATA
[DUEL] Epoch ended. INSTR misses = 24, DATA misses = 22. Winner = DATA
[DUEL] Epoch ended. INSTR misses = 52, DATA misses = 26. Winner = DATA
Heartbeat CPU 0 instructions: 60000001 cycles: 15551811 heartbeat IPC: 3.081 cumulative IPC: 3.119 (Simulation time: 00 hr 03 min 15 sec)
[DUEL] Epoch ended. INSTR misses = 17, DATA misses = 19. Winner = INSTR
[DUEL] Epoch ended. INSTR misses = 21, DATA misses = 22. Winner = INSTR
[DUEL] Epoch ended. INSTR misses = 40, DATA misses = 25. Winner = DATA
[DUEL] Epoch ended. INSTR misses = 48, DATA misses = 35. Winner = DATA
[DUEL] Epoch ended. INSTR misses = 18, DATA misses = 24. Winner = INSTR
[DUEL] Epoch ended. INSTR misses = 8, DATA misses = 12. Winner = INSTR
[DUEL] Epoch ended. INSTR misses = 33, DATA misses = 38. Winner = INSTR
[DUEL] Epoch ended. INSTR misses = 33, DATA misses = 22. Winner = DATA
[DUEL] Epoch ended. INSTR misses = 66, DATA misses = 40. Winner = DATA
[DUEL] Epoch ended. INSTR misses = 12, DATA misses = 13. Winner = INSTR
[DUEL] Epoch ended. INSTR misses = 35, DATA misses = 24. Winner = DATA
[DUEL] Epoch ended. INSTR misses = 26, DATA misses = 25. Winner = DATA
[DUEL] Epoch ended. INSTR misses = 17, DATA misses = 22. Winner = INSTR
[DUEL] Epoch ended. INSTR misses = 21, DATA misses = 16. Winner = DATA
[DUEL] Epoch ended. INSTR misses = 20, DATA misses = 19. Winner = DATA
[DUEL] Epoch ended. INSTR misses = 26, DATA misses = 31. Winner = INSTR
[DUEL] Epoch ended. INSTR misses = 24, DATA misses = 17. Winner = DATA
[DUEL] Epoch ended. INSTR misses = 32, DATA misses = 24. Winner = DATA
[DUEL] Epoch ended. INSTR misses = 21, DATA misses = 27. Winner = INSTR
Heartbeat CPU 0 instructions: 70000005 cycles: 19178657 heartbeat IPC: 2.757 cumulative IPC: 3.02 (Simulation time: 00 hr 03 min 54 sec)
[DUEL] Epoch ended. INSTR misses = 31, DATA misses = 21. Winner = DATA
[DUEL] Epoch ended. INSTR misses = 14, DATA misses = 11. Winner = DATA
[DUEL] Epoch ended. INSTR misses = 19, DATA misses = 18. Winner = DATA
[DUEL] Epoch ended. INSTR misses = 29, DATA misses = 27. Winner = DATA
[DUEL] Epoch ended. INSTR misses = 16, DATA misses = 13. Winner = DATA
[DUEL] Epoch ended. INSTR misses = 27, DATA misses = 23. Winner = DATA
[DUEL] Epoch ended. INSTR misses = 21, DATA misses = 41. Winner = INSTR
[DUEL] Epoch ended. INSTR misses = 30, DATA misses = 29. Winner = DATA
[DUEL] Epoch ended. INSTR misses = 18, DATA misses = 13. Winner = DATA
[DUEL] Epoch ended. INSTR misses = 18, DATA misses = 18. Winner = INSTR
[DUEL] Epoch ended. INSTR misses = 29, DATA misses = 30. Winner = INSTR
[DUEL] Epoch ended. INSTR misses = 15, DATA misses = 14. Winner = DATA
[DUEL] Epoch ended. INSTR misses = 27, DATA misses = 23. Winner = DATA
[DUEL] Epoch ended. INSTR misses = 18, DATA misses = 17. Winner = DATA
[DUEL] Epoch ended. INSTR misses = 30, DATA misses = 24. Winner = DATA
[DUEL] Epoch ended. INSTR misses = 35, DATA misses = 38. Winner = INSTR
[DUEL] Epoch ended. INSTR misses = 0, DATA misses = 0. Winner = INSTR
[DUEL] Epoch ended. INSTR misses = 14, DATA misses = 20. Winner = INSTR
[DUEL] Epoch ended. INSTR misses = 46, DATA misses = 46. Winner = INSTR
Heartbeat CPU 0 instructions: 80000007 cycles: 22462337 heartbeat IPC: 3.045 cumulative IPC: 3.025 (Simulation time: 00 hr 04 min 31 sec)
[DUEL] Epoch ended. INSTR misses = 36, DATA misses = 23. Winner = DATA
[DUEL] Epoch ended. INSTR misses = 17, DATA misses = 31. Winner = INSTR
[DUEL] Epoch ended. INSTR misses = 18, DATA misses = 16. Winner = DATA
[DUEL] Epoch ended. INSTR misses = 23, DATA misses = 19. Winner = DATA
[DUEL] Epoch ended. INSTR misses = 24, DATA misses = 27. Winner = INSTR
[DUEL] Epoch ended. INSTR misses = 22, DATA misses = 21. Winner = DATA
[DUEL] Epoch ended. INSTR misses = 19, DATA misses = 21. Winner = INSTR
[DUEL] Epoch ended. INSTR misses = 27, DATA misses = 24. Winner = DATA
[DUEL] Epoch ended. INSTR misses = 21, DATA misses = 16. Winner = DATA
[DUEL] Epoch ended. INSTR misses = 28, DATA misses = 23. Winner = DATA
[DUEL] Epoch ended. INSTR misses = 28, DATA misses = 22. Winner = DATA
[DUEL] Epoch ended. INSTR misses = 27, DATA misses = 23. Winner = DATA
[DUEL] Epoch ended. INSTR misses = 14, DATA misses = 16. Winner = INSTR
[DUEL] Epoch ended. INSTR misses = 22, DATA misses = 18. Winner = DATA
[DUEL] Epoch ended. INSTR misses = 35, DATA misses = 17. Winner = DATA
[DUEL] Epoch ended. INSTR misses = 26, DATA misses = 18. Winner = DATA
[DUEL] Epoch ended. INSTR misses = 16, DATA misses = 13. Winner = DATA
[DUEL] Epoch ended. INSTR misses = 30, DATA misses = 24. Winner = DATA
[DUEL] Epoch ended. INSTR misses = 22, DATA misses = 9. Winner = DATA
Heartbeat CPU 0 instructions: 90000000 cycles: 25562628 heartbeat IPC: 3.226 cumulative IPC: 3.057 (Simulation time: 00 hr 05 min 09 sec)
[DUEL] Epoch ended. INSTR misses = 27, DATA misses = 23. Winner = DATA
[DUEL] Epoch ended. INSTR misses = 22, DATA misses = 22. Winner = INSTR
[DUEL] Epoch ended. INSTR misses = 27, DATA misses = 25. Winner = DATA
[DUEL] Epoch ended. INSTR misses = 16, DATA misses = 16. Winner = INSTR
[DUEL] Epoch ended. INSTR misses = 22, DATA misses = 18. Winner = DATA
[DUEL] Epoch ended. INSTR misses = 40, DATA misses = 29. Winner = DATA
[DUEL] Epoch ended. INSTR misses = 15, DATA misses = 16. Winner = INSTR
[DUEL] Epoch ended. INSTR misses = 18, DATA misses = 18. Winner = INSTR
[DUEL] Epoch ended. INSTR misses = 28, DATA misses = 32. Winner = INSTR
[DUEL] Epoch ended. INSTR misses = 23, DATA misses = 14. Winner = DATA
[DUEL] Epoch ended. INSTR misses = 27, DATA misses = 23. Winner = DATA
[DUEL] Epoch ended. INSTR misses = 33, DATA misses = 36. Winner = INSTR
[DUEL] Epoch ended. INSTR misses = 13, DATA misses = 18. Winner = INSTR
[DUEL] Epoch ended. INSTR misses = 0, DATA misses = 0. Winner = INSTR
[DUEL] Epoch ended. INSTR misses = 0, DATA misses = 0. Winner = INSTR
[DUEL] Epoch ended. INSTR misses = 6, DATA misses = 12. Winner = INSTR
[DUEL] Epoch ended. INSTR misses = 27, DATA misses = 23. Winner = DATA
[DUEL] Epoch ended. INSTR misses = 30, DATA misses = 26. Winner = DATA
[DUEL] Epoch ended. INSTR misses = 21, DATA misses = 20. Winner = DATA
Heartbeat CPU 0 instructions: 100000005 cycles: 28327297 heartbeat IPC: 3.617 cumulative IPC: 3.126 (Simulation time: 00 hr 05 min 43 sec)
[DUEL] Epoch ended. INSTR misses = 16, DATA misses = 18. Winner = INSTR
[DUEL] Epoch ended. INSTR misses = 22, DATA misses = 18. Winner = DATA
*** Reached end of trace: (0, "../traces/secret_traces/compute_fp/compute_fp_100.champsimtrace.xz")
[DUEL] Epoch ended. INSTR misses = 47, DATA misses = 34. Winner = DATA
[DUEL] Epoch ended. INSTR misses = 101, DATA misses = 74. Winner = DATA
[DUEL] Epoch ended. INSTR misses = 21, DATA misses = 22. Winner = INSTR
[DUEL] Epoch ended. INSTR misses = 29, DATA misses = 27. Winner = DATA
[DUEL] Epoch ended. INSTR misses = 21, DATA misses = 24. Winner = INSTR
[DUEL] Epoch ended. INSTR misses = 28, DATA misses = 25. Winner = DATA
[DUEL] Epoch ended. INSTR misses = 23, DATA misses = 25. Winner = INSTR
[DUEL] Epoch ended. INSTR misses = 16, DATA misses = 21. Winner = INSTR
[DUEL] Epoch ended. INSTR misses = 15, DATA misses = 17. Winner = INSTR
[DUEL] Epoch ended. INSTR misses = 22, DATA misses = 19. Winner = DATA
[DUEL] Epoch ended. INSTR misses = 21, DATA misses = 17. Winner = DATA
[DUEL] Epoch ended. INSTR misses = 26, DATA misses = 16. Winner = DATA
[DUEL] Epoch ended. INSTR misses = 21, DATA misses = 19. Winner = DATA
[DUEL] Epoch ended. INSTR misses = 16, DATA misses = 13. Winner = DATA
[DUEL] Epoch ended. INSTR misses = 20, DATA misses = 18. Winner = DATA
[DUEL] Epoch ended. INSTR misses = 18, DATA misses = 19. Winner = INSTR
[DUEL] Epoch ended. INSTR misses = 21, DATA misses = 13. Winner = DATA
Heartbeat CPU 0 instructions: 110000000 cycles: 32657784 heartbeat IPC: 2.309 cumulative IPC: 2.994 (Simulation time: 00 hr 06 min 26 sec)
[DUEL] Epoch ended. INSTR misses = 19, DATA misses = 17. Winner = DATA
[DUEL] Epoch ended. INSTR misses = 17, DATA misses = 19. Winner = INSTR
[DUEL] Epoch ended. INSTR misses = 11, DATA misses = 12. Winner = INSTR
[DUEL] Epoch ended. INSTR misses = 16, DATA misses = 10. Winner = DATA
[DUEL] Epoch ended. INSTR misses = 26, DATA misses = 24. Winner = DATA
[DUEL] Epoch ended. INSTR misses = 11, DATA misses = 11. Winner = INSTR
[DUEL] Epoch ended. INSTR misses = 16, DATA misses = 14. Winner = DATA
[DUEL] Epoch ended. INSTR misses = 26, DATA misses = 24. Winner = DATA
[DUEL] Epoch ended. INSTR misses = 11, DATA misses = 11. Winner = INSTR
[DUEL] Epoch ended. INSTR misses = 19, DATA misses = 13. Winner = DATA
[DUEL] Epoch ended. INSTR misses = 26, DATA misses = 24. Winner = DATA
[DUEL] Epoch ended. INSTR misses = 11, DATA misses = 11. Winner = INSTR
[DUEL] Epoch ended. INSTR misses = 3, DATA misses = 4. Winner = INSTR
[DUEL] Epoch ended. INSTR misses = 0, DATA misses = 0. Winner = INSTR
[DUEL] Epoch ended. INSTR misses = 11, DATA misses = 11. Winner = INSTR
[DUEL] Epoch ended. INSTR misses = 22, DATA misses = 12. Winner = DATA
[DUEL] Epoch ended. INSTR misses = 21, DATA misses = 19. Winner = DATA
[DUEL] Epoch ended. INSTR misses = 13, DATA misses = 8. Winner = DATA
[DUEL] Epoch ended. INSTR misses = 18, DATA misses = 20. Winner = INSTR
Heartbeat CPU 0 instructions: 120000001 cycles: 35021585 heartbeat IPC: 4.23 cumulative IPC: 3.094 (Simulation time: 00 hr 06 min 59 sec)
[DUEL] Epoch ended. INSTR misses = 18, DATA misses = 19. Winner = INSTR
[DUEL] Epoch ended. INSTR misses = 10, DATA misses = 11. Winner = INSTR
[DUEL] Epoch ended. INSTR misses = 20, DATA misses = 19. Winner = DATA
[DUEL] Epoch ended. INSTR misses = 18, DATA misses = 19. Winner = INSTR
[DUEL] Epoch ended. INSTR misses = 14, DATA misses = 10. Winner = DATA
[DUEL] Epoch ended. INSTR misses = 20, DATA misses = 22. Winner = INSTR
[DUEL] Epoch ended. INSTR misses = 18, DATA misses = 19. Winner = INSTR
[DUEL] Epoch ended. INSTR misses = 12, DATA misses = 9. Winner = DATA
[DUEL] Epoch ended. INSTR misses = 15, DATA misses = 17. Winner = INSTR
[DUEL] Epoch ended. INSTR misses = 17, DATA misses = 19. Winner = INSTR
[DUEL] Epoch ended. INSTR misses = 11, DATA misses = 12. Winner = INSTR
[DUEL] Epoch ended. INSTR misses = 20, DATA misses = 11. Winner = DATA
[DUEL] Epoch ended. INSTR misses = 18, DATA misses = 19. Winner = INSTR
[DUEL] Epoch ended. INSTR misses = 16, DATA misses = 12. Winner = DATA
[DUEL] Epoch ended. INSTR misses = 20, DATA misses = 17. Winner = DATA
[DUEL] Epoch ended. INSTR misses = 17, DATA misses = 24. Winner = INSTR
[DUEL] Epoch ended. INSTR misses = 33, DATA misses = 33. Winner = INSTR
[DUEL] Epoch ended. INSTR misses = 28, DATA misses = 15. Winner = DATA
[DUEL] Epoch ended. INSTR misses = 18, DATA misses = 20. Winner = INSTR
[DUEL] Epoch ended. INSTR misses = 23, DATA misses = 19. Winner = DATA
Heartbeat CPU 0 instructions: 130000010 cycles: 37672911 heartbeat IPC: 3.772 cumulative IPC: 3.151 (Simulation time: 00 hr 07 min 34 sec)
Simulation finished CPU 0 instructions: 100000010 cycles: 31739164 cumulative IPC: 3.151 (Simulation time: 00 hr 07 min 34 sec)
Simulation complete CPU 0 instructions: 100000010 cycles: 31739164 cumulative IPC: 3.151 (Simulation time: 00 hr 07 min 34 sec)

ChampSim completed all CPUs

=== Simulation ===
CPU 0 runs ../traces/secret_traces/compute_fp/compute_fp_100.champsimtrace.xz
Region of Interest Statistics

CPU 0 cumulative IPC: 3.151 instructions: 100000010 cycles: 31739164
CPU 0 Branch Prediction Accuracy: 98.99% MPKI: 1.267 Average ROB Occupancy at Mispredict: 106.5
Branch type MPKI
BRANCH_DIRECT_JUMP: 0.0126
BRANCH_INDIRECT: 0.628
BRANCH_CONDITIONAL: 0.585
BRANCH_DIRECT_CALL: 0.0242
BRANCH_INDIRECT_CALL: 0.00318
BRANCH_RETURN: 0.0136

LLC TOTAL        ACCESS:    2772372 HIT:    2275635 MISS:     496737
LLC LOAD         ACCESS:     305093 HIT:     174690 MISS:     130403
LLC RFO          ACCESS:     205607 HIT:     163582 MISS:      42025
LLC PREFETCH     ACCESS:    1987946 HIT:    1711153 MISS:     276793
LLC WRITE        ACCESS:     259547 HIT:     220871 MISS:      38676
LLC TRANSLATION  ACCESS:      14179 HIT:       5339 MISS:       8840
LLC PREFETCH REQUESTED:          0 ISSUED:          0 USEFUL:          0 USELESS:          0
LLC AVERAGE MISS LATENCY: 160.2 cycles
cpu0_DTLB TOTAL        ACCESS:   19884766 HIT:   19625119 MISS:     259647
cpu0_DTLB LOAD         ACCESS:   19884766 HIT:   19625119 MISS:     259647
cpu0_DTLB RFO          ACCESS:          0 HIT:          0 MISS:          0
cpu0_DTLB PREFETCH     ACCESS:          0 HIT:          0 MISS:          0
cpu0_DTLB WRITE        ACCESS:          0 HIT:          0 MISS:          0
cpu0_DTLB TRANSLATION  ACCESS:          0 HIT:          0 MISS:          0
cpu0_DTLB PREFETCH REQUESTED:          0 ISSUED:          0 USEFUL:          0 USELESS:          0
cpu0_DTLB AVERAGE MISS LATENCY: 11.47 cycles
cpu0_ITLB TOTAL        ACCESS:     237646 HIT:     235913 MISS:       1733
cpu0_ITLB LOAD         ACCESS:     237646 HIT:     235913 MISS:       1733
cpu0_ITLB RFO          ACCESS:          0 HIT:          0 MISS:          0
cpu0_ITLB PREFETCH     ACCESS:          0 HIT:          0 MISS:          0
cpu0_ITLB WRITE        ACCESS:          0 HIT:          0 MISS:          0
cpu0_ITLB TRANSLATION  ACCESS:          0 HIT:          0 MISS:          0
cpu0_ITLB PREFETCH REQUESTED:          0 ISSUED:          0 USEFUL:          0 USELESS:          0
cpu0_ITLB AVERAGE MISS LATENCY: 67.77 cycles
cpu0_L1D TOTAL        ACCESS:   40642508 HIT:   35549650 MISS:    5092858
cpu0_L1D LOAD         ACCESS:   18487985 HIT:   16649332 MISS:    1838653
cpu0_L1D RFO          ACCESS:          0 HIT:          0 MISS:          0
cpu0_L1D PREFETCH     ACCESS:   18971444 HIT:   16294246 MISS:    2677198
cpu0_L1D WRITE        ACCESS:    3154940 HIT:    2600672 MISS:     554268
cpu0_L1D TRANSLATION  ACCESS:      28139 HIT:       5400 MISS:      22739
cpu0_L1D PREFETCH REQUESTED:  103641741 ISSUED:   18971415 USEFUL:    1628036 USELESS:      25857
cpu0_L1D AVERAGE MISS LATENCY: 18.13 cycles
cpu0_L1I TOTAL        ACCESS:     349629 HIT:     305903 MISS:      43726
cpu0_L1I LOAD         ACCESS:     133818 HIT:     120969 MISS:      12849
cpu0_L1I RFO          ACCESS:          0 HIT:          0 MISS:          0
cpu0_L1I PREFETCH     ACCESS:     215811 HIT:     184934 MISS:      30877
cpu0_L1I WRITE        ACCESS:          0 HIT:          0 MISS:          0
cpu0_L1I TRANSLATION  ACCESS:          0 HIT:          0 MISS:          0
cpu0_L1I PREFETCH REQUESTED:     343548 ISSUED:     215811 USEFUL:      17738 USELESS:      10473
cpu0_L1I AVERAGE MISS LATENCY: 108.5 cycles
cpu0_L2C TOTAL        ACCESS:    7438489 HIT:    4123805 MISS:    3314684
cpu0_L2C LOAD         ACCESS:     820459 HIT:     469149 MISS:     351310
cpu0_L2C RFO          ACCESS:     257433 HIT:      51760 MISS:     205673
cpu0_L2C PREFETCH     ACCESS:    6045432 HIT:    3301967 MISS:    2743465
cpu0_L2C WRITE        ACCESS:     292500 HIT:     292443 MISS:         57
cpu0_L2C TRANSLATION  ACCESS:      22665 HIT:       8486 MISS:      14179
cpu0_L2C PREFETCH REQUESTED:    3459953 ISSUED:    3406848 USEFUL:     841563 USELESS:     324560
cpu0_L2C AVERAGE MISS LATENCY: 38.98 cycles
cpu0_STLB TOTAL        ACCESS:     117648 HIT:      89793 MISS:      27855
cpu0_STLB LOAD         ACCESS:     117648 HIT:      89793 MISS:      27855
cpu0_STLB RFO          ACCESS:          0 HIT:          0 MISS:          0
cpu0_STLB PREFETCH     ACCESS:          0 HIT:          0 MISS:          0
cpu0_STLB WRITE        ACCESS:          0 HIT:          0 MISS:          0
cpu0_STLB TRANSLATION  ACCESS:          0 HIT:          0 MISS:          0
cpu0_STLB PREFETCH REQUESTED:          0 ISSUED:          0 USEFUL:          0 USELESS:          0
cpu0_STLB AVERAGE MISS LATENCY: 108.7 cycles

DRAM Statistics

Channel 0 RQ ROW_BUFFER_HIT:     125556
  ROW_BUFFER_MISS:     104741
 AVG DBUS CONGESTED CYCLE: 3.857
WQ ROW_BUFFER_HIT: Channel 0 
  ROW_BUFFER_MISS:       5449
  FULL:      19940

Channel 1 RQ ROW_BUFFER_HIT:     125500
  ROW_BUFFER_MISS:     102242
 AVG DBUS CONGESTED CYCLE: 3.852
WQ ROW_BUFFER_HIT: Channel 1 
  ROW_BUFFER_MISS:       5535
  FULL:      19375
BERTI TO_L1: 110614005 TO_L2: 32356699 TO_L2_BC_MSHR: 754967
BERTI AVG_LAT: 50.5262 NUM_TRACK_LATENCY: 3179595 NUM_CANT_TRACK_LATENCY: 1
BERTI CROSS_PAGE 31833173 NO_CROSS_PAGE: 111137531
BERTI FOUND_BERTI: 17057941 NO_FOUND_BERTI: 7419991
BERTI AVERAGE_ISSUED: 3.56227
CPU 0 L1I Entangling prefetcher final stats
IP accesses: 6d 1b40 2410 / 155629
IP misses: 448a 112280 696 / 34660
IP hits: 0 0 0 / 0
IP late: 2171 85c40 16 / 6587
IP wrong: 5aef 16bbc0 31 / 10414
miss rate: 0.22271
coverage: 0
coverage_late: 0.190047
accuracy: 0
accuracy_late: 0.387448
discarded: 0
evicts entangled j table: 0
evicts entangled k table: 1770
max bb size: 65
formats: 467 0 1517 854 438 861 0 
hist_lookups: 1481 1501 1074 966 848 738 630 469 334 261 193 162 133 64 27 0 9 3988 
hist_lookups_evict: 0.0698867 %
hist_lookups_shortlat: 30.9676 %
bb_found_hist: 0 26125 9383 5381 3013 1979 2465 132 160 166 22 33 12 54 20 5 17 0 35 0 0 0 0 0 0 0 0 0 0 0 0 0 0 0 0 0 0 0 0 0 0 0 0 0 0 0 0 0 0 0 0 0 0 0 0 0 0 0 0 0 0 0 0 0 
bb_found_summary: 104155 49002 2.12553
entangled_found_hist: 0 14116 13062 13804 3123 1413 183 0 
entangled_found_summary: 102307 45701 2.23862
bb_ent_found_hist: 0 35698 15572 7968 5022 5256 830 415 697 375 72 56 0 224 69 27 0 0 173 0 0 0 0 0 0 0 0 0 0 0 0 0 0 0 0 0 0 0 0 0 0 0 0 0 0 0 0 0 0 0 0 0 0 0 0 0 0 0 0 0 0 0 0 0 
bb_ent_found_summary: 162683 72454 2.24533
