WARNING: physical memory size is smaller than virtual memory size.

*** ChampSim Multicore Out-of-Order Simulator ***
Warmup Instructions: 30000000
Simulation Instructions: 100000000
Number of CPUs: 1
Page size: 4096

BTB:
Basic BTB sets: 1024 ways: 8
Indirect:
history lengths: 0 0 10 16 27 44 60 96 109 219 449 487 714 1313 2146 3881 
ITTAGE tables: 64768 bytes;Region table: 240 bytes;IUM: 384 bytes;Total Storage= 65392 bytes;
RAS:
RAS size: 64
[LLC] INSTR Demand IPV: 1 2 2 1 4 Prefetch IPV: 1 2 1 1 4
[LLC] DATA  Demand IPV: 1 1 1 2 4 Prefetch IPV: 1 1 2 2 4
Berti Prefetcher
CPU 0 Entangling prefetcher
Off-chip DRAM Size: 8 GiB Channels: 2 Width: 64-bit Data Race: 6400 MT/s
[DUEL] Epoch ended. INSTR misses = 374, DATA misses = 377. Winner = INSTR
[DUEL] Epoch ended. INSTR misses = 486, DATA misses = 490. Winner = INSTR
[DUEL] Epoch ended. INSTR misses = 539, DATA misses = 533. Winner = DATA
[DUEL] Epoch ended. INSTR misses = 521, DATA misses = 524. Winner = INSTR
[DUEL] Epoch ended. INSTR misses = 478, DATA misses = 477. Winner = DATA
[DUEL] Epoch ended. INSTR misses = 562, DATA misses = 562. Winner = INSTR
[DUEL] Epoch ended. INSTR misses = 543, DATA misses = 541. Winner = DATA
[DUEL] Epoch ended. INSTR misses = 463, DATA misses = 464. Winner = INSTR
[DUEL] Epoch ended. INSTR misses = 527, DATA misses = 527. Winner = INSTR
[DUEL] Epoch ended. INSTR misses = 560, DATA misses = 558. Winner = DATA
[DUEL] Epoch ended. INSTR misses = 496, DATA misses = 495. Winner = DATA
[DUEL] Epoch ended. INSTR misses = 512, DATA misses = 511. Winner = DATA
[DUEL] Epoch ended. INSTR misses = 559, DATA misses = 559. Winner = INSTR
[DUEL] Epoch ended. INSTR misses = 512, DATA misses = 512. Winner = INSTR
[DUEL] Epoch ended. INSTR misses = 495, DATA misses = 496. Winner = INSTR
[DUEL] Epoch ended. INSTR misses = 511, DATA misses = 511. Winner = INSTR
[DUEL] Epoch ended. INSTR misses = 561, DATA misses = 560. Winner = DATA
[DUEL] Epoch ended. INSTR misses = 494, DATA misses = 494. Winner = INSTR
[DUEL] Epoch ended. INSTR misses = 560, DATA misses = 560. Winner = INSTR
Heartbeat CPU 0 instructions: 10000001 cycles: 3332887 heartbeat IPC: 3 cumulative IPC: 3 (Simulation time: 00 hr 00 min 42 sec)
[DUEL] Epoch ended. INSTR misses = 575, DATA misses = 576. Winner = INSTR
[DUEL] Epoch ended. INSTR misses = 512, DATA misses = 511. Winner = DATA
[DUEL] Epoch ended. INSTR misses = 544, DATA misses = 544. Winner = INSTR
[DUEL] Epoch ended. INSTR misses = 576, DATA misses = 575. Winner = DATA
[DUEL] Epoch ended. INSTR misses = 512, DATA misses = 512. Winner = INSTR
[DUEL] Epoch ended. INSTR misses = 512, DATA misses = 511. Winner = DATA
[DUEL] Epoch ended. INSTR misses = 576, DATA misses = 576. Winner = INSTR
[DUEL] Epoch ended. INSTR misses = 560, DATA misses = 560. Winner = INSTR
[DUEL] Epoch ended. INSTR misses = 496, DATA misses = 496. Winner = INSTR
[DUEL] Epoch ended. INSTR misses = 543, DATA misses = 544. Winner = INSTR
[DUEL] Epoch ended. INSTR misses = 561, DATA misses = 560. Winner = DATA
[DUEL] Epoch ended. INSTR misses = 480, DATA misses = 480. Winner = INSTR
[DUEL] Epoch ended. INSTR misses = 496, DATA misses = 496. Winner = INSTR
[DUEL] Epoch ended. INSTR misses = 560, DATA misses = 560. Winner = INSTR
[DUEL] Epoch ended. INSTR misses = 512, DATA misses = 512. Winner = INSTR
[DUEL] Epoch ended. INSTR misses = 495, DATA misses = 496. Winner = INSTR
[DUEL] Epoch ended. INSTR misses = 560, DATA misses = 560. Winner = INSTR
[DUEL] Epoch ended. INSTR misses = 528, DATA misses = 528. Winner = INSTR
[DUEL] Epoch ended. INSTR misses = 480, DATA misses = 480. Winner = INSTR
[DUEL] Epoch ended. INSTR misses = 560, DATA misses = 560. Winner = INSTR
Heartbeat CPU 0 instructions: 20000001 cycles: 6666221 heartbeat IPC: 3 cumulative IPC: 3 (Simulation time: 00 hr 01 min 23 sec)
[DUEL] Epoch ended. INSTR misses = 528, DATA misses = 528. Winner = INSTR
[DUEL] Epoch ended. INSTR misses = 465, DATA misses = 464. Winner = DATA
[DUEL] Epoch ended. INSTR misses = 544, DATA misses = 543. Winner = DATA
[DUEL] Epoch ended. INSTR misses = 576, DATA misses = 576. Winner = INSTR
[DUEL] Epoch ended. INSTR misses = 528, DATA misses = 528. Winner = INSTR
[DUEL] Epoch ended. INSTR misses = 528, DATA misses = 528. Winner = INSTR
[DUEL] Epoch ended. INSTR misses = 576, DATA misses = 576. Winner = INSTR
[DUEL] Epoch ended. INSTR misses = 544, DATA misses = 544. Winner = INSTR
[DUEL] Epoch ended. INSTR misses = 480, DATA misses = 480. Winner = INSTR
[DUEL] Epoch ended. INSTR misses = 576, DATA misses = 576. Winner = INSTR
[DUEL] Epoch ended. INSTR misses = 576, DATA misses = 576. Winner = INSTR
[DUEL] Epoch ended. INSTR misses = 496, DATA misses = 496. Winner = INSTR
[DUEL] Epoch ended. INSTR misses = 561, DATA misses = 562. Winner = INSTR
[DUEL] Epoch ended. INSTR misses = 560, DATA misses = 563. Winner = INSTR
[DUEL] Epoch ended. INSTR misses = 497, DATA misses = 496. Winner = DATA
[DUEL] Epoch ended. INSTR misses = 512, DATA misses = 512. Winner = INSTR
[DUEL] Epoch ended. INSTR misses = 528, DATA misses = 528. Winner = INSTR
[DUEL] Epoch ended. INSTR misses = 528, DATA misses = 528. Winner = INSTR
[DUEL] Epoch ended. INSTR misses = 480, DATA misses = 480. Winner = INSTR
Heartbeat CPU 0 instructions: 30000005 cycles: 9999555 heartbeat IPC: 3 cumulative IPC: 3 (Simulation time: 00 hr 02 min 04 sec)
Warmup finished CPU 0 instructions: 30000005 cycles: 9999556 cumulative IPC: 3 (Simulation time: 00 hr 02 min 04 sec)
Warmup complete CPU 0 instructions: 30000005 cycles: 9999556 cumulative IPC: 3 (Simulation time: 00 hr 02 min 04 sec)
[DUEL] Epoch ended. INSTR misses = 560, DATA misses = 560. Winner = INSTR
[DUEL] Epoch ended. INSTR misses = 544, DATA misses = 544. Winner = INSTR
[DUEL] Epoch ended. INSTR misses = 480, DATA misses = 480. Winner = INSTR
[DUEL] Epoch ended. INSTR misses = 544, DATA misses = 544. Winner = INSTR
[DUEL] Epoch ended. INSTR misses = 560, DATA misses = 560. Winner = INSTR
[DUEL] Epoch ended. INSTR misses = 464, DATA misses = 464. Winner = INSTR
[DUEL] Epoch ended. INSTR misses = 512, DATA misses = 512. Winner = INSTR
[DUEL] Epoch ended. INSTR misses = 547, DATA misses = 544. Winner = DATA
[DUEL] Epoch ended. INSTR misses = 545, DATA misses = 544. Winner = DATA
[DUEL] Epoch ended. INSTR misses = 432, DATA misses = 432. Winner = INSTR
[DUEL] Epoch ended. INSTR misses = 432, DATA misses = 432. Winner = INSTR
[DUEL] Epoch ended. INSTR misses = 430, DATA misses = 416. Winner = DATA
*** Reached end of trace: (0, "../traces/public_traces/compute_int/compute_int_45.champsimtrace.xz")
[DUEL] Epoch ended. INSTR misses = 302, DATA misses = 320. Winner = INSTR
[DUEL] Epoch ended. INSTR misses = 488, DATA misses = 489. Winner = INSTR
[DUEL] Epoch ended. INSTR misses = 456, DATA misses = 460. Winner = INSTR
[DUEL] Epoch ended. INSTR misses = 546, DATA misses = 548. Winner = INSTR
[DUEL] Epoch ended. INSTR misses = 523, DATA misses = 521. Winner = DATA
[DUEL] Epoch ended. INSTR misses = 476, DATA misses = 480. Winner = INSTR
[DUEL] Epoch ended. INSTR misses = 530, DATA misses = 520. Winner = DATA
[DUEL] Epoch ended. INSTR misses = 558, DATA misses = 560. Winner = INSTR
Heartbeat CPU 0 instructions: 40000007 cycles: 42845487 heartbeat IPC: 0.3045 cumulative IPC: 0.3045 (Simulation time: 00 hr 06 min 15 sec)
[DUEL] Epoch ended. INSTR misses = 494, DATA misses = 495. Winner = INSTR
[DUEL] Epoch ended. INSTR misses = 512, DATA misses = 509. Winner = DATA
[DUEL] Epoch ended. INSTR misses = 528, DATA misses = 524. Winner = DATA
[DUEL] Epoch ended. INSTR misses = 528, DATA misses = 526. Winner = DATA
[DUEL] Epoch ended. INSTR misses = 479, DATA misses = 479. Winner = INSTR
[DUEL] Epoch ended. INSTR misses = 559, DATA misses = 559. Winner = INSTR
[DUEL] Epoch ended. INSTR misses = 542, DATA misses = 544. Winner = INSTR
[DUEL] Epoch ended. INSTR misses = 478, DATA misses = 479. Winner = INSTR
[DUEL] Epoch ended. INSTR misses = 530, DATA misses = 527. Winner = DATA
[DUEL] Epoch ended. INSTR misses = 572, DATA misses = 572. Winner = INSTR
[DUEL] Epoch ended. INSTR misses = 496, DATA misses = 496. Winner = INSTR
[DUEL] Epoch ended. INSTR misses = 527, DATA misses = 528. Winner = INSTR
[DUEL] Epoch ended. INSTR misses = 575, DATA misses = 574. Winner = DATA
[DUEL] Epoch ended. INSTR misses = 544, DATA misses = 544. Winner = INSTR
[DUEL] Epoch ended. INSTR misses = 512, DATA misses = 511. Winner = DATA
[DUEL] Epoch ended. INSTR misses = 576, DATA misses = 575. Winner = DATA
[DUEL] Epoch ended. INSTR misses = 560, DATA misses = 558. Winner = DATA
[DUEL] Epoch ended. INSTR misses = 496, DATA misses = 496. Winner = INSTR
[DUEL] Epoch ended. INSTR misses = 544, DATA misses = 544. Winner = INSTR
Heartbeat CPU 0 instructions: 50000003 cycles: 76159107 heartbeat IPC: 0.3002 cumulative IPC: 0.3023 (Simulation time: 00 hr 10 min 30 sec)
[DUEL] Epoch ended. INSTR misses = 576, DATA misses = 576. Winner = INSTR
[DUEL] Epoch ended. INSTR misses = 494, DATA misses = 496. Winner = INSTR
[DUEL] Epoch ended. INSTR misses = 513, DATA misses = 512. Winner = DATA
[DUEL] Epoch ended. INSTR misses = 560, DATA misses = 560. Winner = INSTR
[DUEL] Epoch ended. INSTR misses = 512, DATA misses = 512. Winner = INSTR
[DUEL] Epoch ended. INSTR misses = 496, DATA misses = 496. Winner = INSTR
[DUEL] Epoch ended. INSTR misses = 560, DATA misses = 560. Winner = INSTR
[DUEL] Epoch ended. INSTR misses = 510, DATA misses = 512. Winner = INSTR
[DUEL] Epoch ended. INSTR misses = 480, DATA misses = 480. Winner = INSTR
[DUEL] Epoch ended. INSTR misses = 544, DATA misses = 544. Winner = INSTR
[DUEL] Epoch ended. INSTR misses = 560, DATA misses = 560. Winner = INSTR
[DUEL] Epoch ended. INSTR misses = 480, DATA misses = 480. Winner = INSTR
[DUEL] Epoch ended. INSTR misses = 528, DATA misses = 528. Winner = INSTR
[DUEL] Epoch ended. INSTR misses = 530, DATA misses = 528. Winner = DATA
[DUEL] Epoch ended. INSTR misses = 528, DATA misses = 527. Winner = DATA
[DUEL] Epoch ended. INSTR misses = 496, DATA misses = 495. Winner = DATA
[DUEL] Epoch ended. INSTR misses = 576, DATA misses = 576. Winner = INSTR
[DUEL] Epoch ended. INSTR misses = 560, DATA misses = 560. Winner = INSTR
[DUEL] Epoch ended. INSTR misses = 496, DATA misses = 496. Winner = INSTR
[DUEL] Epoch ended. INSTR misses = 576, DATA misses = 576. Winner = INSTR
Heartbeat CPU 0 instructions: 60000001 cycles: 109277851 heartbeat IPC: 0.3019 cumulative IPC: 0.3022 (Simulation time: 00 hr 14 min 43 sec)
[DUEL] Epoch ended. INSTR misses = 576, DATA misses = 576. Winner = INSTR
[DUEL] Epoch ended. INSTR misses = 496, DATA misses = 496. Winner = INSTR
[DUEL] Epoch ended. INSTR misses = 560, DATA misses = 560. Winner = INSTR
[DUEL] Epoch ended. INSTR misses = 544, DATA misses = 544. Winner = INSTR
[DUEL] Epoch ended. INSTR misses = 528, DATA misses = 528. Winner = INSTR
[DUEL] Epoch ended. INSTR misses = 528, DATA misses = 528. Winner = INSTR
[DUEL] Epoch ended. INSTR misses = 547, DATA misses = 545. Winner = DATA
[DUEL] Epoch ended. INSTR misses = 526, DATA misses = 527. Winner = INSTR
[DUEL] Epoch ended. INSTR misses = 480, DATA misses = 480. Winner = INSTR
[DUEL] Epoch ended. INSTR misses = 560, DATA misses = 560. Winner = INSTR
[DUEL] Epoch ended. INSTR misses = 544, DATA misses = 544. Winner = INSTR
[DUEL] Epoch ended. INSTR misses = 464, DATA misses = 464. Winner = INSTR
[DUEL] Epoch ended. INSTR misses = 528, DATA misses = 528. Winner = INSTR
[DUEL] Epoch ended. INSTR misses = 560, DATA misses = 560. Winner = INSTR
[DUEL] Epoch ended. INSTR misses = 496, DATA misses = 496. Winner = INSTR
[DUEL] Epoch ended. INSTR misses = 512, DATA misses = 512. Winner = INSTR
[DUEL] Epoch ended. INSTR misses = 560, DATA misses = 560. Winner = INSTR
[DUEL] Epoch ended. INSTR misses = 512, DATA misses = 512. Winner = INSTR
[DUEL] Epoch ended. INSTR misses = 482, DATA misses = 480. Winner = DATA
Heartbeat CPU 0 instructions: 70000007 cycles: 142307262 heartbeat IPC: 0.3028 cumulative IPC: 0.3023 (Simulation time: 00 hr 18 min 56 sec)
[DUEL] Epoch ended. INSTR misses = 545, DATA misses = 544. Winner = DATA
[DUEL] Epoch ended. INSTR misses = 434, DATA misses = 432. Winner = DATA
[DUEL] Epoch ended. INSTR misses = 496, DATA misses = 496. Winner = INSTR
[DUEL] Epoch ended. INSTR misses = 448, DATA misses = 448. Winner = INSTR
*** Reached end of trace: (0, "../traces/public_traces/compute_int/compute_int_45.champsimtrace.xz")
[DUEL] Epoch ended. INSTR misses = 336, DATA misses = 336. Winner = INSTR
[DUEL] Epoch ended. INSTR misses = 380, DATA misses = 382. Winner = INSTR
[DUEL] Epoch ended. INSTR misses = 548, DATA misses = 556. Winner = INSTR
[DUEL] Epoch ended. INSTR misses = 453, DATA misses = 451. Winner = DATA
[DUEL] Epoch ended. INSTR misses = 517, DATA misses = 518. Winner = INSTR
[DUEL] Epoch ended. INSTR misses = 555, DATA misses = 559. Winner = INSTR
[DUEL] Epoch ended. INSTR misses = 482, DATA misses = 477. Winner = DATA
[DUEL] Epoch ended. INSTR misses = 494, DATA misses = 491. Winner = DATA
[DUEL] Epoch ended. INSTR misses = 558, DATA misses = 560. Winner = INSTR
[DUEL] Epoch ended. INSTR misses = 528, DATA misses = 526. Winner = DATA
[DUEL] Epoch ended. INSTR misses = 480, DATA misses = 475. Winner = DATA
[DUEL] Epoch ended. INSTR misses = 560, DATA misses = 557. Winner = DATA
[DUEL] Epoch ended. INSTR misses = 544, DATA misses = 544. Winner = INSTR
[DUEL] Epoch ended. INSTR misses = 478, DATA misses = 478. Winner = INSTR
[DUEL] Epoch ended. INSTR misses = 510, DATA misses = 512. Winner = INSTR
[DUEL] Epoch ended. INSTR misses = 558, DATA misses = 560. Winner = INSTR
Heartbeat CPU 0 instructions: 80000002 cycles: 174593954 heartbeat IPC: 0.3097 cumulative IPC: 0.3038 (Simulation time: 00 hr 23 min 04 sec)
[DUEL] Epoch ended. INSTR misses = 482, DATA misses = 478. Winner = DATA
[DUEL] Epoch ended. INSTR misses = 525, DATA misses = 524. Winner = DATA
[DUEL] Epoch ended. INSTR misses = 575, DATA misses = 576. Winner = INSTR
[DUEL] Epoch ended. INSTR misses = 544, DATA misses = 544. Winner = INSTR
[DUEL] Epoch ended. INSTR misses = 510, DATA misses = 510. Winner = INSTR
[DUEL] Epoch ended. INSTR misses = 576, DATA misses = 576. Winner = INSTR
[DUEL] Epoch ended. INSTR misses = 544, DATA misses = 544. Winner = INSTR
[DUEL] Epoch ended. INSTR misses = 496, DATA misses = 494. Winner = DATA
[DUEL] Epoch ended. INSTR misses = 560, DATA misses = 558. Winner = DATA
[DUEL] Epoch ended. INSTR misses = 576, DATA misses = 576. Winner = INSTR
[DUEL] Epoch ended. INSTR misses = 512, DATA misses = 512. Winner = INSTR
[DUEL] Epoch ended. INSTR misses = 544, DATA misses = 544. Winner = INSTR
[DUEL] Epoch ended. INSTR misses = 559, DATA misses = 560. Winner = INSTR
[DUEL] Epoch ended. INSTR misses = 512, DATA misses = 512. Winner = INSTR
[DUEL] Epoch ended. INSTR misses = 464, DATA misses = 464. Winner = INSTR
[DUEL] Epoch ended. INSTR misses = 560, DATA misses = 560. Winner = INSTR
[DUEL] Epoch ended. INSTR misses = 544, DATA misses = 544. Winner = INSTR
[DUEL] Epoch ended. INSTR misses = 480, DATA misses = 480. Winner = INSTR
[DUEL] Epoch ended. INSTR misses = 542, DATA misses = 544. Winner = INSTR
Heartbeat CPU 0 instructions: 90000000 cycles: 207471992 heartbeat IPC: 0.3042 cumulative IPC: 0.3038 (Simulation time: 00 hr 27 min 16 sec)
[DUEL] Epoch ended. INSTR misses = 560, DATA misses = 560. Winner = INSTR
[DUEL] Epoch ended. INSTR misses = 480, DATA misses = 480. Winner = INSTR
[DUEL] Epoch ended. INSTR misses = 528, DATA misses = 528. Winner = INSTR
[DUEL] Epoch ended. INSTR misses = 528, DATA misses = 528. Winner = INSTR
[DUEL] Epoch ended. INSTR misses = 512, DATA misses = 512. Winner = INSTR
[DUEL] Epoch ended. INSTR misses = 496, DATA misses = 496. Winner = INSTR
[DUEL] Epoch ended. INSTR misses = 549, DATA misses = 546. Winner = DATA
[DUEL] Epoch ended. INSTR misses = 558, DATA misses = 557. Winner = DATA
[DUEL] Epoch ended. INSTR misses = 496, DATA misses = 496. Winner = INSTR
[DUEL] Epoch ended. INSTR misses = 576, DATA misses = 576. Winner = INSTR
[DUEL] Epoch ended. INSTR misses = 576, DATA misses = 576. Winner = INSTR
[DUEL] Epoch ended. INSTR misses = 480, DATA misses = 480. Winner = INSTR
[DUEL] Epoch ended. INSTR misses = 544, DATA misses = 544. Winner = INSTR
[DUEL] Epoch ended. INSTR misses = 576, DATA misses = 576. Winner = INSTR
[DUEL] Epoch ended. INSTR misses = 528, DATA misses = 528. Winner = INSTR
[DUEL] Epoch ended. INSTR misses = 528, DATA misses = 528. Winner = INSTR
[DUEL] Epoch ended. INSTR misses = 576, DATA misses = 576. Winner = INSTR
[DUEL] Epoch ended. INSTR misses = 544, DATA misses = 544. Winner = INSTR
[DUEL] Epoch ended. INSTR misses = 480, DATA misses = 480. Winner = INSTR
[DUEL] Epoch ended. INSTR misses = 529, DATA misses = 528. Winner = DATA
Heartbeat CPU 0 instructions: 100000006 cycles: 240412070 heartbeat IPC: 0.3036 cumulative IPC: 0.3038 (Simulation time: 00 hr 31 min 29 sec)
[DUEL] Epoch ended. INSTR misses = 560, DATA misses = 560. Winner = INSTR
[DUEL] Epoch ended. INSTR misses = 480, DATA misses = 480. Winner = INSTR
[DUEL] Epoch ended. INSTR misses = 528, DATA misses = 528. Winner = INSTR
[DUEL] Epoch ended. INSTR misses = 560, DATA misses = 560. Winner = INSTR
[DUEL] Epoch ended. INSTR misses = 496, DATA misses = 496. Winner = INSTR
[DUEL] Epoch ended. INSTR misses = 512, DATA misses = 512. Winner = INSTR
[DUEL] Epoch ended. INSTR misses = 560, DATA misses = 560. Winner = INSTR
[DUEL] Epoch ended. INSTR misses = 496, DATA misses = 496. Winner = INSTR
[DUEL] Epoch ended. INSTR misses = 480, DATA misses = 480. Winner = INSTR
[DUEL] Epoch ended. INSTR misses = 560, DATA misses = 560. Winner = INSTR
[DUEL] Epoch ended. INSTR misses = 529, DATA misses = 528. Winner = DATA
[DUEL] Epoch ended. INSTR misses = 497, DATA misses = 496. Winner = DATA
[DUEL] Epoch ended. INSTR misses = 514, DATA misses = 512. Winner = DATA
[DUEL] Epoch ended. INSTR misses = 400, DATA misses = 400. Winner = INSTR
[DUEL] Epoch ended. INSTR misses = 480, DATA misses = 480. Winner = INSTR
*** Reached end of trace: (0, "../traces/public_traces/compute_int/compute_int_45.champsimtrace.xz")
[DUEL] Epoch ended. INSTR misses = 480, DATA misses = 480. Winner = INSTR
[DUEL] Epoch ended. INSTR misses = 238, DATA misses = 244. Winner = INSTR
[DUEL] Epoch ended. INSTR misses = 514, DATA misses = 522. Winner = INSTR
[DUEL] Epoch ended. INSTR misses = 507, DATA misses = 498. Winner = DATA
Heartbeat CPU 0 instructions: 110000007 cycles: 273079907 heartbeat IPC: 0.3061 cumulative IPC: 0.3041 (Simulation time: 00 hr 35 min 39 sec)
[DUEL] Epoch ended. INSTR misses = 497, DATA misses = 503. Winner = INSTR
[DUEL] Epoch ended. INSTR misses = 490, DATA misses = 491. Winner = INSTR
[DUEL] Epoch ended. INSTR misses = 561, DATA misses = 558. Winner = DATA
[DUEL] Epoch ended. INSTR misses = 528, DATA misses = 522. Winner = DATA
[DUEL] Epoch ended. INSTR misses = 477, DATA misses = 480. Winner = INSTR
[DUEL] Epoch ended. INSTR misses = 527, DATA misses = 526. Winner = DATA
[DUEL] Epoch ended. INSTR misses = 560, DATA misses = 556. Winner = DATA
[DUEL] Epoch ended. INSTR misses = 480, DATA misses = 477. Winner = DATA
[DUEL] Epoch ended. INSTR misses = 528, DATA misses = 527. Winner = DATA
[DUEL] Epoch ended. INSTR misses = 558, DATA misses = 558. Winner = INSTR
[DUEL] Epoch ended. INSTR misses = 495, DATA misses = 496. Winner = INSTR
[DUEL] Epoch ended. INSTR misses = 510, DATA misses = 512. Winner = INSTR
[DUEL] Epoch ended. INSTR misses = 529, DATA misses = 526. Winner = DATA
[DUEL] Epoch ended. INSTR misses = 529, DATA misses = 529. Winner = INSTR
[DUEL] Epoch ended. INSTR misses = 492, DATA misses = 492. Winner = INSTR
[DUEL] Epoch ended. INSTR misses = 576, DATA misses = 576. Winner = INSTR
[DUEL] Epoch ended. INSTR misses = 574, DATA misses = 576. Winner = INSTR
[DUEL] Epoch ended. INSTR misses = 496, DATA misses = 494. Winner = DATA
[DUEL] Epoch ended. INSTR misses = 560, DATA misses = 560. Winner = INSTR
[DUEL] Epoch ended. INSTR misses = 576, DATA misses = 574. Winner = DATA
Heartbeat CPU 0 instructions: 120000009 cycles: 305529649 heartbeat IPC: 0.3082 cumulative IPC: 0.3045 (Simulation time: 00 hr 39 min 47 sec)
[DUEL] Epoch ended. INSTR misses = 512, DATA misses = 511. Winner = DATA
[DUEL] Epoch ended. INSTR misses = 512, DATA misses = 511. Winner = DATA
[DUEL] Epoch ended. INSTR misses = 576, DATA misses = 576. Winner = INSTR
[DUEL] Epoch ended. INSTR misses = 544, DATA misses = 544. Winner = INSTR
[DUEL] Epoch ended. INSTR misses = 511, DATA misses = 512. Winner = INSTR
[DUEL] Epoch ended. INSTR misses = 544, DATA misses = 544. Winner = INSTR
[DUEL] Epoch ended. INSTR misses = 544, DATA misses = 544. Winner = INSTR
[DUEL] Epoch ended. INSTR misses = 480, DATA misses = 480. Winner = INSTR
[DUEL] Epoch ended. INSTR misses = 544, DATA misses = 544. Winner = INSTR
[DUEL] Epoch ended. INSTR misses = 528, DATA misses = 528. Winner = INSTR
[DUEL] Epoch ended. INSTR misses = 496, DATA misses = 496. Winner = INSTR
[DUEL] Epoch ended. INSTR misses = 510, DATA misses = 512. Winner = INSTR
[DUEL] Epoch ended. INSTR misses = 560, DATA misses = 560. Winner = INSTR
[DUEL] Epoch ended. INSTR misses = 512, DATA misses = 512. Winner = INSTR
[DUEL] Epoch ended. INSTR misses = 496, DATA misses = 496. Winner = INSTR
[DUEL] Epoch ended. INSTR misses = 560, DATA misses = 560. Winner = INSTR
[DUEL] Epoch ended. INSTR misses = 528, DATA misses = 528. Winner = INSTR
[DUEL] Epoch ended. INSTR misses = 450, DATA misses = 448. Winner = DATA
[DUEL] Epoch ended. INSTR misses = 560, DATA misses = 558. Winner = DATA
Heartbeat CPU 0 instructions: 130000005 cycles: 338441988 heartbeat IPC: 0.3038 cumulative IPC: 0.3045 (Simulation time: 00 hr 43 min 59 sec)
Simulation finished CPU 0 instructions: 100000000 cycles: 328442433 cumulative IPC: 0.3045 (Simulation time: 00 hr 43 min 59 sec)
Simulation complete CPU 0 instructions: 100000000 cycles: 328442433 cumulative IPC: 0.3045 (Simulation time: 00 hr 43 min 59 sec)

ChampSim completed all CPUs

=== Simulation ===
CPU 0 runs ../traces/public_traces/compute_int/compute_int_45.champsimtrace.xz
Region of Interest Statistics

CPU 0 cumulative IPC: 0.3045 instructions: 100000000 cycles: 328442433
CPU 0 Branch Prediction Accuracy: 100% MPKI: 0.00027 Average ROB Occupancy at Mispredict: 186.1
Branch type MPKI
BRANCH_DIRECT_JUMP: 0
BRANCH_INDIRECT: 3e-05
BRANCH_CONDITIONAL: 0.00024
BRANCH_DIRECT_CALL: 0
BRANCH_INDIRECT_CALL: 0
BRANCH_RETURN: 0

LLC TOTAL        ACCESS:   24996913 HIT:     323987 MISS:   24672926
LLC LOAD         ACCESS:    5778482 HIT:          0 MISS:    5778482
LLC RFO          ACCESS:    8331214 HIT:     119885 MISS:    8211329
LLC PREFETCH     ACCESS:    2554165 HIT:          0 MISS:    2554165
LLC WRITE        ACCESS:    8331481 HIT:     204090 MISS:    8127391
LLC TRANSLATION  ACCESS:       1571 HIT:         12 MISS:       1559
LLC PREFETCH REQUESTED:          0 ISSUED:          0 USEFUL:          0 USELESS:          0
LLC AVERAGE MISS LATENCY: 199.3 cycles
cpu0_DTLB TOTAL        ACCESS:   25434905 HIT:   23097609 MISS:    2337296
cpu0_DTLB LOAD         ACCESS:   25434905 HIT:   23097609 MISS:    2337296
cpu0_DTLB RFO          ACCESS:          0 HIT:          0 MISS:          0
cpu0_DTLB PREFETCH     ACCESS:          0 HIT:          0 MISS:          0
cpu0_DTLB WRITE        ACCESS:          0 HIT:          0 MISS:          0
cpu0_DTLB TRANSLATION  ACCESS:          0 HIT:          0 MISS:          0
cpu0_DTLB PREFETCH REQUESTED:          0 ISSUED:          0 USEFUL:          0 USELESS:          0
cpu0_DTLB AVERAGE MISS LATENCY: 9.149 cycles
cpu0_ITLB TOTAL        ACCESS:       5738 HIT:       5738 MISS:          0
cpu0_ITLB LOAD         ACCESS:       5738 HIT:       5738 MISS:          0
cpu0_ITLB RFO          ACCESS:          0 HIT:          0 MISS:          0
cpu0_ITLB PREFETCH     ACCESS:          0 HIT:          0 MISS:          0
cpu0_ITLB WRITE        ACCESS:          0 HIT:          0 MISS:          0
cpu0_ITLB TRANSLATION  ACCESS:          0 HIT:          0 MISS:          0
cpu0_ITLB PREFETCH REQUESTED:          0 ISSUED:          0 USEFUL:          0 USELESS:          0
cpu0_ITLB AVERAGE MISS LATENCY: -nan cycles
cpu0_L1D TOTAL        ACCESS:   43790293 HIT:    2302092 MISS:   41488201
cpu0_L1D LOAD         ACCESS:    8639829 HIT:     136235 MISS:    8503594
cpu0_L1D RFO          ACCESS:          0 HIT:          0 MISS:          0
cpu0_L1D PREFETCH     ACCESS:    1561547 HIT:    1282475 MISS:     279072
cpu0_L1D WRITE        ACCESS:   33327698 HIT:     623752 MISS:   32703946
cpu0_L1D TRANSLATION  ACCESS:     261219 HIT:     259630 MISS:       1589
cpu0_L1D PREFETCH REQUESTED: 1171878050 ISSUED:    1561547 USEFUL:       8256 USELESS:        242
cpu0_L1D AVERAGE MISS LATENCY: 123.3 cycles
cpu0_L1I TOTAL        ACCESS:       8161 HIT:       8161 MISS:          0
cpu0_L1I LOAD         ACCESS:       4298 HIT:       4298 MISS:          0
cpu0_L1I RFO          ACCESS:          0 HIT:          0 MISS:          0
cpu0_L1I PREFETCH     ACCESS:       3863 HIT:       3863 MISS:          0
cpu0_L1I WRITE        ACCESS:          0 HIT:          0 MISS:          0
cpu0_L1I TRANSLATION  ACCESS:          0 HIT:          0 MISS:          0
cpu0_L1I PREFETCH REQUESTED:       4436 ISSUED:       3863 USEFUL:          0 USELESS:          0
cpu0_L1I AVERAGE MISS LATENCY: -nan cycles
cpu0_L2C TOTAL        ACCESS:   33695798 HIT:    8983561 MISS:   24712237
cpu0_L2C LOAD         ACCESS:    8323604 HIT:     268958 MISS:    8054646
cpu0_L2C RFO          ACCESS:    8331249 HIT:         30 MISS:    8331219
cpu0_L2C PREFETCH     ACCESS:    8707792 HIT:     382991 MISS:    8324801
cpu0_L2C WRITE        ACCESS:    8331574 HIT:    8331574 MISS:          0
cpu0_L2C TRANSLATION  ACCESS:       1579 HIT:          8 MISS:       1571
cpu0_L2C PREFETCH REQUESTED:    8515684 ISSUED:    8515683 USEFUL:    2503926 USELESS:       3069
cpu0_L2C AVERAGE MISS LATENCY: 206.8 cycles
cpu0_STLB TOTAL        ACCESS:     260636 HIT:          0 MISS:     260636
cpu0_STLB LOAD         ACCESS:     260636 HIT:          0 MISS:     260636
cpu0_STLB RFO          ACCESS:          0 HIT:          0 MISS:          0
cpu0_STLB PREFETCH     ACCESS:          0 HIT:          0 MISS:          0
cpu0_STLB WRITE        ACCESS:          0 HIT:          0 MISS:          0
cpu0_STLB TRANSLATION  ACCESS:          0 HIT:          0 MISS:          0
cpu0_STLB PREFETCH REQUESTED:          0 ISSUED:          0 USEFUL:          0 USELESS:          0
cpu0_STLB AVERAGE MISS LATENCY: 109.4 cycles

DRAM Statistics

Channel 0 RQ ROW_BUFFER_HIT:    4683400
  ROW_BUFFER_MISS:    3590052
 AVG DBUS CONGESTED CYCLE: 3.97
WQ ROW_BUFFER_HIT: Channel 0 
  ROW_BUFFER_MISS:    1223060
  FULL:    2881388

Channel 1 RQ ROW_BUFFER_HIT:    4679855
  ROW_BUFFER_MISS:    3592219
 AVG DBUS CONGESTED CYCLE: 3.97
WQ ROW_BUFFER_HIT: Channel 1 
  ROW_BUFFER_MISS:    1227188
  FULL:    2877150
BERTI TO_L1: 4185275 TO_L2: 1186994995 TO_L2_BC_MSHR: 483930939
BERTI AVG_LAT: 318.535 NUM_TRACK_LATENCY: 10788051 NUM_CANT_TRACK_LATENCY: 0
BERTI CROSS_PAGE 122925029 NO_CROSS_PAGE: 1068255241
BERTI FOUND_BERTI: 164240323 NO_FOUND_BERTI: 2253763
BERTI AVERAGE_ISSUED: 2.35497
CPU 0 L1I Entangling prefetcher final stats
IP accesses: b02 2c080 173 / 4298
IP misses: 0 0 0 / 0
IP hits: 0 0 0 / 0
IP late: 0 0 0 / 0
IP wrong: 0 0 0 / 0
miss rate: 0
coverage: -nan
coverage_late: -nan
accuracy: -nan
accuracy_late: -nan
discarded: 0
evicts entangled j table: 0
evicts entangled k table: 0
max bb size: 9
formats: 0 0 0 0 0 0 0 
hist_lookups: 0 0 0 0 0 0 0 0 0 0 0 0 0 0 0 0 0 83 
hist_lookups_evict: 0 %
hist_lookups_shortlat: 100 %
bb_found_hist: 0 729 314 124 34 36 6 0 0 6 0 0 0 0 0 0 0 0 0 0 0 0 0 0 0 0 0 0 0 0 0 0 0 0 0 0 0 0 0 0 0 0 0 0 0 0 0 0 0 0 0 0 0 0 0 0 0 0 0 0 0 0 0 0 
bb_found_summary: 2135 1249 1.70937
entangled_found_hist: 0 180 101 220 0 0 0 0 
entangled_found_summary: 1042 501 2.07985
bb_ent_found_hist: 0 359 152 134 11 12 6 0 0 6 0 0 0 0 0 0 0 0 0 0 0 0 0 0 0 0 0 0 0 0 0 0 0 0 0 0 0 0 0 0 0 0 0 0 0 0 0 0 0 0 0 0 0 0 0 0 0 0 0 0 0 0 0 0 
bb_ent_found_summary: 1259 680 1.85148
