WARNING: physical memory size is smaller than virtual memory size.

*** ChampSim Multicore Out-of-Order Simulator ***
Warmup Instructions: 30000000
Simulation Instructions: 100000000
Number of CPUs: 1
Page size: 4096

BTB:
Basic BTB sets: 1024 ways: 8
Indirect:
history lengths: 0 0 10 16 27 44 60 96 109 219 449 487 714 1313 2146 3881 
ITTAGE tables: 64768 bytes;Region table: 240 bytes;IUM: 384 bytes;Total Storage= 65392 bytes;
RAS:
RAS size: 64
[LLC] INSTR Demand IPV: 1 2 2 1 4 Prefetch IPV: 1 2 1 1 4
[LLC] DATA  Demand IPV: 1 1 1 2 4 Prefetch IPV: 1 1 2 2 4
Berti Prefetcher
CPU 0 Entangling prefetcher
Off-chip DRAM Size: 8 GiB Channels: 2 Width: 64-bit Data Race: 6400 MT/s
[DUEL] Epoch ended. INSTR misses = 61, DATA misses = 36. Winner = DATA
[DUEL] Epoch ended. INSTR misses = 27, DATA misses = 54. Winner = INSTR
[DUEL] Epoch ended. INSTR misses = 47, DATA misses = 35. Winner = DATA
[DUEL] Epoch ended. INSTR misses = 17, DATA misses = 16. Winner = DATA
[DUEL] Epoch ended. INSTR misses = 48, DATA misses = 49. Winner = INSTR
[DUEL] Epoch ended. INSTR misses = 11, DATA misses = 22. Winner = INSTR
[DUEL] Epoch ended. INSTR misses = 27, DATA misses = 40. Winner = INSTR
[DUEL] Epoch ended. INSTR misses = 13, DATA misses = 31. Winner = INSTR
[DUEL] Epoch ended. INSTR misses = 49, DATA misses = 44. Winner = DATA
[DUEL] Epoch ended. INSTR misses = 37, DATA misses = 59. Winner = INSTR
[DUEL] Epoch ended. INSTR misses = 34, DATA misses = 33. Winner = DATA
[DUEL] Epoch ended. INSTR misses = 41, DATA misses = 37. Winner = DATA
[DUEL] Epoch ended. INSTR misses = 48, DATA misses = 25. Winner = DATA
[DUEL] Epoch ended. INSTR misses = 41, DATA misses = 60. Winner = INSTR
[DUEL] Epoch ended. INSTR misses = 47, DATA misses = 28. Winner = DATA
[DUEL] Epoch ended. INSTR misses = 45, DATA misses = 46. Winner = INSTR
[DUEL] Epoch ended. INSTR misses = 29, DATA misses = 29. Winner = INSTR
[DUEL] Epoch ended. INSTR misses = 42, DATA misses = 34. Winner = DATA
[DUEL] Epoch ended. INSTR misses = 44, DATA misses = 43. Winner = DATA
Heartbeat CPU 0 instructions: 10000007 cycles: 1688884 heartbeat IPC: 5.921 cumulative IPC: 5.921 (Simulation time: 00 hr 00 min 28 sec)
[DUEL] Epoch ended. INSTR misses = 26, DATA misses = 34. Winner = INSTR
[DUEL] Epoch ended. INSTR misses = 39, DATA misses = 45. Winner = INSTR
[DUEL] Epoch ended. INSTR misses = 41, DATA misses = 31. Winner = DATA
[DUEL] Epoch ended. INSTR misses = 87, DATA misses = 76. Winner = DATA
[DUEL] Epoch ended. INSTR misses = 51, DATA misses = 35. Winner = DATA
[DUEL] Epoch ended. INSTR misses = 45, DATA misses = 36. Winner = DATA
[DUEL] Epoch ended. INSTR misses = 37, DATA misses = 37. Winner = INSTR
[DUEL] Epoch ended. INSTR misses = 26, DATA misses = 57. Winner = INSTR
[DUEL] Epoch ended. INSTR misses = 30, DATA misses = 36. Winner = INSTR
[DUEL] Epoch ended. INSTR misses = 64, DATA misses = 82. Winner = INSTR
[DUEL] Epoch ended. INSTR misses = 46, DATA misses = 32. Winner = DATA
[DUEL] Epoch ended. INSTR misses = 41, DATA misses = 33. Winner = DATA
[DUEL] Epoch ended. INSTR misses = 28, DATA misses = 33. Winner = INSTR
[DUEL] Epoch ended. INSTR misses = 57, DATA misses = 18. Winner = DATA
[DUEL] Epoch ended. INSTR misses = 49, DATA misses = 46. Winner = DATA
[DUEL] Epoch ended. INSTR misses = 34, DATA misses = 50. Winner = INSTR
[DUEL] Epoch ended. INSTR misses = 57, DATA misses = 33. Winner = DATA
[DUEL] Epoch ended. INSTR misses = 52, DATA misses = 61. Winner = INSTR
[DUEL] Epoch ended. INSTR misses = 39, DATA misses = 31. Winner = DATA
[DUEL] Epoch ended. INSTR misses = 24, DATA misses = 17. Winner = DATA
Heartbeat CPU 0 instructions: 20000007 cycles: 3374843 heartbeat IPC: 5.931 cumulative IPC: 5.926 (Simulation time: 00 hr 00 min 56 sec)
[DUEL] Epoch ended. INSTR misses = 39, DATA misses = 45. Winner = INSTR
[DUEL] Epoch ended. INSTR misses = 24, DATA misses = 23. Winner = DATA
[DUEL] Epoch ended. INSTR misses = 53, DATA misses = 41. Winner = DATA
[DUEL] Epoch ended. INSTR misses = 63, DATA misses = 51. Winner = DATA
[DUEL] Epoch ended. INSTR misses = 49, DATA misses = 40. Winner = DATA
[DUEL] Epoch ended. INSTR misses = 46, DATA misses = 46. Winner = INSTR
[DUEL] Epoch ended. INSTR misses = 40, DATA misses = 37. Winner = DATA
[DUEL] Epoch ended. INSTR misses = 21, DATA misses = 66. Winner = INSTR
[DUEL] Epoch ended. INSTR misses = 39, DATA misses = 35. Winner = DATA
[DUEL] Epoch ended. INSTR misses = 33, DATA misses = 35. Winner = INSTR
[DUEL] Epoch ended. INSTR misses = 20, DATA misses = 29. Winner = INSTR
[DUEL] Epoch ended. INSTR misses = 38, DATA misses = 41. Winner = INSTR
[DUEL] Epoch ended. INSTR misses = 32, DATA misses = 32. Winner = INSTR
[DUEL] Epoch ended. INSTR misses = 28, DATA misses = 35. Winner = INSTR
[DUEL] Epoch ended. INSTR misses = 43, DATA misses = 35. Winner = DATA
[DUEL] Epoch ended. INSTR misses = 58, DATA misses = 36. Winner = DATA
[DUEL] Epoch ended. INSTR misses = 47, DATA misses = 44. Winner = DATA
[DUEL] Epoch ended. INSTR misses = 46, DATA misses = 46. Winner = INSTR
[DUEL] Epoch ended. INSTR misses = 27, DATA misses = 42. Winner = INSTR
Heartbeat CPU 0 instructions: 30000007 cycles: 5064012 heartbeat IPC: 5.92 cumulative IPC: 5.924 (Simulation time: 00 hr 01 min 24 sec)
Warmup finished CPU 0 instructions: 30000007 cycles: 5064013 cumulative IPC: 5.924 (Simulation time: 00 hr 01 min 24 sec)
Warmup complete CPU 0 instructions: 30000007 cycles: 5064013 cumulative IPC: 5.924 (Simulation time: 00 hr 01 min 24 sec)
[DUEL] Epoch ended. INSTR misses = 31, DATA misses = 41. Winner = INSTR
[DUEL] Epoch ended. INSTR misses = 75, DATA misses = 41. Winner = DATA
*** Reached end of trace: (0, "../traces/public_traces/compute_int/compute_int_38.champsimtrace.xz")
[DUEL] Epoch ended. INSTR misses = 38, DATA misses = 34. Winner = DATA
[DUEL] Epoch ended. INSTR misses = 30, DATA misses = 29. Winner = DATA
[DUEL] Epoch ended. INSTR misses = 24, DATA misses = 35. Winner = INSTR
[DUEL] Epoch ended. INSTR misses = 20, DATA misses = 17. Winner = DATA
[DUEL] Epoch ended. INSTR misses = 20, DATA misses = 16. Winner = DATA
[DUEL] Epoch ended. INSTR misses = 29, DATA misses = 35. Winner = INSTR
[DUEL] Epoch ended. INSTR misses = 12, DATA misses = 23. Winner = INSTR
[DUEL] Epoch ended. INSTR misses = 27, DATA misses = 33. Winner = INSTR
[DUEL] Epoch ended. INSTR misses = 18, DATA misses = 13. Winner = DATA
[DUEL] Epoch ended. INSTR misses = 51, DATA misses = 53. Winner = INSTR
[DUEL] Epoch ended. INSTR misses = 22, DATA misses = 37. Winner = INSTR
[DUEL] Epoch ended. INSTR misses = 25, DATA misses = 27. Winner = INSTR
[DUEL] Epoch ended. INSTR misses = 34, DATA misses = 25. Winner = DATA
[DUEL] Epoch ended. INSTR misses = 44, DATA misses = 41. Winner = DATA
[DUEL] Epoch ended. INSTR misses = 22, DATA misses = 30. Winner = INSTR
[DUEL] Epoch ended. INSTR misses = 53, DATA misses = 33. Winner = DATA
[DUEL] Epoch ended. INSTR misses = 33, DATA misses = 35. Winner = INSTR
[DUEL] Epoch ended. INSTR misses = 29, DATA misses = 18. Winner = DATA
Heartbeat CPU 0 instructions: 40000001 cycles: 13708165 heartbeat IPC: 1.157 cumulative IPC: 1.157 (Simulation time: 00 hr 02 min 32 sec)
[DUEL] Epoch ended. INSTR misses = 37, DATA misses = 33. Winner = DATA
[DUEL] Epoch ended. INSTR misses = 42, DATA misses = 38. Winner = DATA
[DUEL] Epoch ended. INSTR misses = 28, DATA misses = 38. Winner = INSTR
[DUEL] Epoch ended. INSTR misses = 31, DATA misses = 23. Winner = DATA
[DUEL] Epoch ended. INSTR misses = 59, DATA misses = 42. Winner = DATA
[DUEL] Epoch ended. INSTR misses = 70, DATA misses = 61. Winner = DATA
[DUEL] Epoch ended. INSTR misses = 51, DATA misses = 29. Winner = DATA
[DUEL] Epoch ended. INSTR misses = 42, DATA misses = 31. Winner = DATA
[DUEL] Epoch ended. INSTR misses = 27, DATA misses = 37. Winner = INSTR
[DUEL] Epoch ended. INSTR misses = 25, DATA misses = 52. Winner = INSTR
[DUEL] Epoch ended. INSTR misses = 38, DATA misses = 58. Winner = INSTR
[DUEL] Epoch ended. INSTR misses = 56, DATA misses = 61. Winner = INSTR
[DUEL] Epoch ended. INSTR misses = 55, DATA misses = 33. Winner = DATA
[DUEL] Epoch ended. INSTR misses = 29, DATA misses = 21. Winner = DATA
[DUEL] Epoch ended. INSTR misses = 41, DATA misses = 38. Winner = DATA
[DUEL] Epoch ended. INSTR misses = 53, DATA misses = 18. Winner = DATA
[DUEL] Epoch ended. INSTR misses = 41, DATA misses = 41. Winner = INSTR
[DUEL] Epoch ended. INSTR misses = 49, DATA misses = 55. Winner = INSTR
[DUEL] Epoch ended. INSTR misses = 36, DATA misses = 33. Winner = DATA
Heartbeat CPU 0 instructions: 50000002 cycles: 22835602 heartbeat IPC: 1.096 cumulative IPC: 1.125 (Simulation time: 00 hr 03 min 43 sec)
[DUEL] Epoch ended. INSTR misses = 52, DATA misses = 51. Winner = DATA
[DUEL] Epoch ended. INSTR misses = 26, DATA misses = 22. Winner = DATA
[DUEL] Epoch ended. INSTR misses = 28, DATA misses = 23. Winner = DATA
[DUEL] Epoch ended. INSTR misses = 33, DATA misses = 39. Winner = INSTR
[DUEL] Epoch ended. INSTR misses = 47, DATA misses = 37. Winner = DATA
[DUEL] Epoch ended. INSTR misses = 51, DATA misses = 45. Winner = DATA
[DUEL] Epoch ended. INSTR misses = 53, DATA misses = 46. Winner = DATA
[DUEL] Epoch ended. INSTR misses = 42, DATA misses = 26. Winner = DATA
[DUEL] Epoch ended. INSTR misses = 32, DATA misses = 50. Winner = INSTR
[DUEL] Epoch ended. INSTR misses = 38, DATA misses = 52. Winner = INSTR
[DUEL] Epoch ended. INSTR misses = 25, DATA misses = 34. Winner = INSTR
[DUEL] Epoch ended. INSTR misses = 42, DATA misses = 48. Winner = INSTR
[DUEL] Epoch ended. INSTR misses = 23, DATA misses = 25. Winner = INSTR
[DUEL] Epoch ended. INSTR misses = 28, DATA misses = 31. Winner = INSTR
[DUEL] Epoch ended. INSTR misses = 32, DATA misses = 48. Winner = INSTR
[DUEL] Epoch ended. INSTR misses = 35, DATA misses = 31. Winner = DATA
[DUEL] Epoch ended. INSTR misses = 30, DATA misses = 35. Winner = INSTR
[DUEL] Epoch ended. INSTR misses = 49, DATA misses = 32. Winner = DATA
[DUEL] Epoch ended. INSTR misses = 47, DATA misses = 43. Winner = DATA
[DUEL] Epoch ended. INSTR misses = 55, DATA misses = 47. Winner = DATA
Heartbeat CPU 0 instructions: 60000007 cycles: 31682804 heartbeat IPC: 1.13 cumulative IPC: 1.127 (Simulation time: 00 hr 04 min 52 sec)
[DUEL] Epoch ended. INSTR misses = 44, DATA misses = 50. Winner = INSTR
[DUEL] Epoch ended. INSTR misses = 32, DATA misses = 35. Winner = INSTR
[DUEL] Epoch ended. INSTR misses = 31, DATA misses = 32. Winner = INSTR
[DUEL] Epoch ended. INSTR misses = 71, DATA misses = 41. Winner = DATA
*** Reached end of trace: (0, "../traces/public_traces/compute_int/compute_int_38.champsimtrace.xz")
[DUEL] Epoch ended. INSTR misses = 44, DATA misses = 30. Winner = DATA
[DUEL] Epoch ended. INSTR misses = 19, DATA misses = 37. Winner = INSTR
[DUEL] Epoch ended. INSTR misses = 20, DATA misses = 19. Winner = DATA
[DUEL] Epoch ended. INSTR misses = 20, DATA misses = 15. Winner = DATA
[DUEL] Epoch ended. INSTR misses = 25, DATA misses = 19. Winner = DATA
[DUEL] Epoch ended. INSTR misses = 22, DATA misses = 34. Winner = INSTR
[DUEL] Epoch ended. INSTR misses = 24, DATA misses = 35. Winner = INSTR
[DUEL] Epoch ended. INSTR misses = 20, DATA misses = 25. Winner = INSTR
[DUEL] Epoch ended. INSTR misses = 24, DATA misses = 22. Winner = DATA
[DUEL] Epoch ended. INSTR misses = 47, DATA misses = 53. Winner = INSTR
[DUEL] Epoch ended. INSTR misses = 21, DATA misses = 21. Winner = INSTR
[DUEL] Epoch ended. INSTR misses = 30, DATA misses = 31. Winner = INSTR
[DUEL] Epoch ended. INSTR misses = 46, DATA misses = 29. Winner = DATA
[DUEL] Epoch ended. INSTR misses = 29, DATA misses = 32. Winner = INSTR
[DUEL] Epoch ended. INSTR misses = 25, DATA misses = 32. Winner = INSTR
Heartbeat CPU 0 instructions: 70000001 cycles: 40290215 heartbeat IPC: 1.162 cumulative IPC: 1.136 (Simulation time: 00 hr 06 min 00 sec)
[DUEL] Epoch ended. INSTR misses = 53, DATA misses = 41. Winner = DATA
[DUEL] Epoch ended. INSTR misses = 37, DATA misses = 39. Winner = INSTR
[DUEL] Epoch ended. INSTR misses = 13, DATA misses = 14. Winner = INSTR
[DUEL] Epoch ended. INSTR misses = 57, DATA misses = 30. Winner = DATA
[DUEL] Epoch ended. INSTR misses = 27, DATA misses = 47. Winner = INSTR
[DUEL] Epoch ended. INSTR misses = 28, DATA misses = 33. Winner = INSTR
[DUEL] Epoch ended. INSTR misses = 28, DATA misses = 16. Winner = DATA
[DUEL] Epoch ended. INSTR misses = 76, DATA misses = 47. Winner = DATA
[DUEL] Epoch ended. INSTR misses = 70, DATA misses = 63. Winner = DATA
[DUEL] Epoch ended. INSTR misses = 37, DATA misses = 17. Winner = DATA
[DUEL] Epoch ended. INSTR misses = 50, DATA misses = 55. Winner = INSTR
[DUEL] Epoch ended. INSTR misses = 23, DATA misses = 44. Winner = INSTR
[DUEL] Epoch ended. INSTR misses = 21, DATA misses = 38. Winner = INSTR
[DUEL] Epoch ended. INSTR misses = 64, DATA misses = 55. Winner = DATA
[DUEL] Epoch ended. INSTR misses = 28, DATA misses = 53. Winner = INSTR
[DUEL] Epoch ended. INSTR misses = 68, DATA misses = 33. Winner = DATA
[DUEL] Epoch ended. INSTR misses = 14, DATA misses = 25. Winner = INSTR
[DUEL] Epoch ended. INSTR misses = 46, DATA misses = 29. Winner = DATA
[DUEL] Epoch ended. INSTR misses = 63, DATA misses = 34. Winner = DATA
[DUEL] Epoch ended. INSTR misses = 23, DATA misses = 33. Winner = INSTR
Heartbeat CPU 0 instructions: 80000006 cycles: 49198944 heartbeat IPC: 1.122 cumulative IPC: 1.133 (Simulation time: 00 hr 07 min 10 sec)
[DUEL] Epoch ended. INSTR misses = 60, DATA misses = 53. Winner = DATA
[DUEL] Epoch ended. INSTR misses = 45, DATA misses = 41. Winner = DATA
[DUEL] Epoch ended. INSTR misses = 44, DATA misses = 41. Winner = DATA
[DUEL] Epoch ended. INSTR misses = 21, DATA misses = 23. Winner = INSTR
[DUEL] Epoch ended. INSTR misses = 35, DATA misses = 42. Winner = INSTR
[DUEL] Epoch ended. INSTR misses = 25, DATA misses = 12. Winner = DATA
[DUEL] Epoch ended. INSTR misses = 52, DATA misses = 52. Winner = INSTR
[DUEL] Epoch ended. INSTR misses = 48, DATA misses = 43. Winner = DATA
[DUEL] Epoch ended. INSTR misses = 57, DATA misses = 39. Winner = DATA
[DUEL] Epoch ended. INSTR misses = 36, DATA misses = 40. Winner = INSTR
[DUEL] Epoch ended. INSTR misses = 39, DATA misses = 39. Winner = INSTR
[DUEL] Epoch ended. INSTR misses = 26, DATA misses = 61. Winner = INSTR
[DUEL] Epoch ended. INSTR misses = 33, DATA misses = 21. Winner = DATA
[DUEL] Epoch ended. INSTR misses = 41, DATA misses = 54. Winner = INSTR
[DUEL] Epoch ended. INSTR misses = 18, DATA misses = 29. Winner = INSTR
[DUEL] Epoch ended. INSTR misses = 36, DATA misses = 40. Winner = INSTR
[DUEL] Epoch ended. INSTR misses = 34, DATA misses = 34. Winner = INSTR
[DUEL] Epoch ended. INSTR misses = 23, DATA misses = 30. Winner = INSTR
[DUEL] Epoch ended. INSTR misses = 33, DATA misses = 31. Winner = DATA
Heartbeat CPU 0 instructions: 90000000 cycles: 57816828 heartbeat IPC: 1.16 cumulative IPC: 1.137 (Simulation time: 00 hr 08 min 17 sec)
[DUEL] Epoch ended. INSTR misses = 57, DATA misses = 32. Winner = DATA
[DUEL] Epoch ended. INSTR misses = 38, DATA misses = 59. Winner = INSTR
[DUEL] Epoch ended. INSTR misses = 67, DATA misses = 40. Winner = DATA
[DUEL] Epoch ended. INSTR misses = 30, DATA misses = 36. Winner = INSTR
[DUEL] Epoch ended. INSTR misses = 37, DATA misses = 42. Winner = INSTR
[DUEL] Epoch ended. INSTR misses = 50, DATA misses = 32. Winner = DATA
[DUEL] Epoch ended. INSTR misses = 48, DATA misses = 39. Winner = DATA
*** Reached end of trace: (0, "../traces/public_traces/compute_int/compute_int_38.champsimtrace.xz")
[DUEL] Epoch ended. INSTR misses = 42, DATA misses = 30. Winner = DATA
[DUEL] Epoch ended. INSTR misses = 19, DATA misses = 37. Winner = INSTR
[DUEL] Epoch ended. INSTR misses = 30, DATA misses = 20. Winner = DATA
[DUEL] Epoch ended. INSTR misses = 11, DATA misses = 12. Winner = INSTR
[DUEL] Epoch ended. INSTR misses = 39, DATA misses = 38. Winner = DATA
[DUEL] Epoch ended. INSTR misses = 6, DATA misses = 13. Winner = INSTR
[DUEL] Epoch ended. INSTR misses = 25, DATA misses = 37. Winner = INSTR
[DUEL] Epoch ended. INSTR misses = 15, DATA misses = 22. Winner = INSTR
[DUEL] Epoch ended. INSTR misses = 43, DATA misses = 34. Winner = DATA
[DUEL] Epoch ended. INSTR misses = 32, DATA misses = 48. Winner = INSTR
[DUEL] Epoch ended. INSTR misses = 27, DATA misses = 23. Winner = DATA
[DUEL] Epoch ended. INSTR misses = 31, DATA misses = 30. Winner = DATA
[DUEL] Epoch ended. INSTR misses = 37, DATA misses = 22. Winner = DATA
Heartbeat CPU 0 instructions: 100000000 cycles: 66427294 heartbeat IPC: 1.161 cumulative IPC: 1.141 (Simulation time: 00 hr 09 min 25 sec)
[DUEL] Epoch ended. INSTR misses = 40, DATA misses = 47. Winner = INSTR
[DUEL] Epoch ended. INSTR misses = 40, DATA misses = 27. Winner = DATA
[DUEL] Epoch ended. INSTR misses = 42, DATA misses = 38. Winner = DATA
[DUEL] Epoch ended. INSTR misses = 28, DATA misses = 31. Winner = INSTR
[DUEL] Epoch ended. INSTR misses = 37, DATA misses = 26. Winner = DATA
[DUEL] Epoch ended. INSTR misses = 38, DATA misses = 39. Winner = INSTR
[DUEL] Epoch ended. INSTR misses = 25, DATA misses = 27. Winner = INSTR
[DUEL] Epoch ended. INSTR misses = 40, DATA misses = 37. Winner = DATA
[DUEL] Epoch ended. INSTR misses = 34, DATA misses = 21. Winner = DATA
[DUEL] Epoch ended. INSTR misses = 83, DATA misses = 72. Winner = DATA
[DUEL] Epoch ended. INSTR misses = 48, DATA misses = 30. Winner = DATA
[DUEL] Epoch ended. INSTR misses = 45, DATA misses = 36. Winner = DATA
[DUEL] Epoch ended. INSTR misses = 33, DATA misses = 35. Winner = INSTR
[DUEL] Epoch ended. INSTR misses = 23, DATA misses = 51. Winner = INSTR
[DUEL] Epoch ended. INSTR misses = 26, DATA misses = 37. Winner = INSTR
[DUEL] Epoch ended. INSTR misses = 59, DATA misses = 78. Winner = INSTR
[DUEL] Epoch ended. INSTR misses = 51, DATA misses = 34. Winner = DATA
[DUEL] Epoch ended. INSTR misses = 39, DATA misses = 29. Winner = DATA
[DUEL] Epoch ended. INSTR misses = 26, DATA misses = 26. Winner = INSTR
Heartbeat CPU 0 instructions: 110000007 cycles: 75247579 heartbeat IPC: 1.134 cumulative IPC: 1.14 (Simulation time: 00 hr 10 min 34 sec)
[DUEL] Epoch ended. INSTR misses = 59, DATA misses = 21. Winner = DATA
[DUEL] Epoch ended. INSTR misses = 48, DATA misses = 40. Winner = DATA
[DUEL] Epoch ended. INSTR misses = 33, DATA misses = 49. Winner = INSTR
[DUEL] Epoch ended. INSTR misses = 52, DATA misses = 30. Winner = DATA
[DUEL] Epoch ended. INSTR misses = 45, DATA misses = 61. Winner = INSTR
[DUEL] Epoch ended. INSTR misses = 36, DATA misses = 29. Winner = DATA
[DUEL] Epoch ended. INSTR misses = 23, DATA misses = 17. Winner = DATA
[DUEL] Epoch ended. INSTR misses = 34, DATA misses = 44. Winner = INSTR
[DUEL] Epoch ended. INSTR misses = 25, DATA misses = 23. Winner = DATA
[DUEL] Epoch ended. INSTR misses = 49, DATA misses = 39. Winner = DATA
[DUEL] Epoch ended. INSTR misses = 54, DATA misses = 49. Winner = DATA
[DUEL] Epoch ended. INSTR misses = 42, DATA misses = 38. Winner = DATA
[DUEL] Epoch ended. INSTR misses = 44, DATA misses = 46. Winner = INSTR
[DUEL] Epoch ended. INSTR misses = 40, DATA misses = 36. Winner = DATA
[DUEL] Epoch ended. INSTR misses = 22, DATA misses = 60. Winner = INSTR
[DUEL] Epoch ended. INSTR misses = 39, DATA misses = 36. Winner = DATA
[DUEL] Epoch ended. INSTR misses = 31, DATA misses = 36. Winner = INSTR
[DUEL] Epoch ended. INSTR misses = 18, DATA misses = 29. Winner = INSTR
[DUEL] Epoch ended. INSTR misses = 37, DATA misses = 40. Winner = INSTR
[DUEL] Epoch ended. INSTR misses = 31, DATA misses = 28. Winner = DATA
Heartbeat CPU 0 instructions: 120000003 cycles: 83911993 heartbeat IPC: 1.154 cumulative IPC: 1.141 (Simulation time: 00 hr 11 min 42 sec)
[DUEL] Epoch ended. INSTR misses = 25, DATA misses = 35. Winner = INSTR
[DUEL] Epoch ended. INSTR misses = 40, DATA misses = 35. Winner = DATA
[DUEL] Epoch ended. INSTR misses = 60, DATA misses = 35. Winner = DATA
[DUEL] Epoch ended. INSTR misses = 58, DATA misses = 56. Winner = DATA
[DUEL] Epoch ended. INSTR misses = 43, DATA misses = 42. Winner = DATA
[DUEL] Epoch ended. INSTR misses = 27, DATA misses = 36. Winner = INSTR
[DUEL] Epoch ended. INSTR misses = 30, DATA misses = 39. Winner = INSTR
[DUEL] Epoch ended. INSTR misses = 74, DATA misses = 40. Winner = DATA
*** Reached end of trace: (0, "../traces/public_traces/compute_int/compute_int_38.champsimtrace.xz")
[DUEL] Epoch ended. INSTR misses = 40, DATA misses = 32. Winner = DATA
[DUEL] Epoch ended. INSTR misses = 29, DATA misses = 29. Winner = INSTR
[DUEL] Epoch ended. INSTR misses = 25, DATA misses = 35. Winner = INSTR
[DUEL] Epoch ended. INSTR misses = 22, DATA misses = 18. Winner = DATA
[DUEL] Epoch ended. INSTR misses = 20, DATA misses = 13. Winner = DATA
[DUEL] Epoch ended. INSTR misses = 30, DATA misses = 38. Winner = INSTR
[DUEL] Epoch ended. INSTR misses = 12, DATA misses = 23. Winner = INSTR
[DUEL] Epoch ended. INSTR misses = 28, DATA misses = 33. Winner = INSTR
[DUEL] Epoch ended. INSTR misses = 19, DATA misses = 13. Winner = DATA
[DUEL] Epoch ended. INSTR misses = 53, DATA misses = 50. Winner = DATA
[DUEL] Epoch ended. INSTR misses = 23, DATA misses = 35. Winner = INSTR
Heartbeat CPU 0 instructions: 130000011 cycles: 92567926 heartbeat IPC: 1.155 cumulative IPC: 1.143 (Simulation time: 00 hr 12 min 51 sec)
Simulation finished CPU 0 instructions: 100000004 cycles: 87503914 cumulative IPC: 1.143 (Simulation time: 00 hr 12 min 51 sec)
Simulation complete CPU 0 instructions: 100000004 cycles: 87503914 cumulative IPC: 1.143 (Simulation time: 00 hr 12 min 51 sec)

ChampSim completed all CPUs

=== Simulation ===
CPU 0 runs ../traces/public_traces/compute_int/compute_int_38.champsimtrace.xz
Region of Interest Statistics

CPU 0 cumulative IPC: 1.143 instructions: 100000004 cycles: 87503914
CPU 0 Branch Prediction Accuracy: 98.39% MPKI: 3.239 Average ROB Occupancy at Mispredict: 90.89
Branch type MPKI
BRANCH_DIRECT_JUMP: 0
BRANCH_INDIRECT: 0.194
BRANCH_CONDITIONAL: 3.03
BRANCH_DIRECT_CALL: 0
BRANCH_INDIRECT_CALL: 0.0179
BRANCH_RETURN: 4e-05

LLC TOTAL        ACCESS:    2608068 HIT:     682176 MISS:    1925892
LLC LOAD         ACCESS:     848636 HIT:     205198 MISS:     643438
LLC RFO          ACCESS:      93413 HIT:      33131 MISS:      60282
LLC PREFETCH     ACCESS:     720401 HIT:     134473 MISS:     585928
LLC WRITE        ACCESS:     574751 HIT:     289841 MISS:     284910
LLC TRANSLATION  ACCESS:     370867 HIT:      19533 MISS:     351334
LLC PREFETCH REQUESTED:          0 ISSUED:          0 USEFUL:          0 USELESS:          0
LLC AVERAGE MISS LATENCY: 173.7 cycles
cpu0_DTLB TOTAL        ACCESS:   20121374 HIT:   18500259 MISS:    1621115
cpu0_DTLB LOAD         ACCESS:   20121374 HIT:   18500259 MISS:    1621115
cpu0_DTLB RFO          ACCESS:          0 HIT:          0 MISS:          0
cpu0_DTLB PREFETCH     ACCESS:          0 HIT:          0 MISS:          0
cpu0_DTLB WRITE        ACCESS:          0 HIT:          0 MISS:          0
cpu0_DTLB TRANSLATION  ACCESS:          0 HIT:          0 MISS:          0
cpu0_DTLB PREFETCH REQUESTED:          0 ISSUED:          0 USEFUL:          0 USELESS:          0
cpu0_DTLB AVERAGE MISS LATENCY: 54.79 cycles
cpu0_ITLB TOTAL        ACCESS:   16832469 HIT:   16832454 MISS:         15
cpu0_ITLB LOAD         ACCESS:   16832469 HIT:   16832454 MISS:         15
cpu0_ITLB RFO          ACCESS:          0 HIT:          0 MISS:          0
cpu0_ITLB PREFETCH     ACCESS:          0 HIT:          0 MISS:          0
cpu0_ITLB WRITE        ACCESS:          0 HIT:          0 MISS:          0
cpu0_ITLB TRANSLATION  ACCESS:          0 HIT:          0 MISS:          0
cpu0_ITLB PREFETCH REQUESTED:          0 ISSUED:          0 USEFUL:          0 USELESS:          0
cpu0_ITLB AVERAGE MISS LATENCY: 563.7 cycles
cpu0_L1D TOTAL        ACCESS:   31038567 HIT:   26951712 MISS:    4086855
cpu0_L1D LOAD         ACCESS:   18044738 HIT:   15177751 MISS:    2866987
cpu0_L1D RFO          ACCESS:          0 HIT:          0 MISS:          0
cpu0_L1D PREFETCH     ACCESS:       2071 HIT:       1072 MISS:        999
cpu0_L1D WRITE        ACCESS:   12423568 HIT:   11683848 MISS:     739720
cpu0_L1D TRANSLATION  ACCESS:     568190 HIT:      89041 MISS:     479149
cpu0_L1D PREFETCH REQUESTED:       2071 ISSUED:       2071 USEFUL:        325 USELESS:         37
cpu0_L1D AVERAGE MISS LATENCY: 64.47 cycles
cpu0_L1I TOTAL        ACCESS:   24597392 HIT:   24425455 MISS:     171937
cpu0_L1I LOAD         ACCESS:    8785265 HIT:    8735063 MISS:      50202
cpu0_L1I RFO          ACCESS:          0 HIT:          0 MISS:          0
cpu0_L1I PREFETCH     ACCESS:   15812127 HIT:   15690392 MISS:     121735
cpu0_L1I WRITE        ACCESS:          0 HIT:          0 MISS:          0
cpu0_L1I TRANSLATION  ACCESS:          0 HIT:          0 MISS:          0
cpu0_L1I PREFETCH REQUESTED:   39274984 ISSUED:   15812110 USEFUL:      60308 USELESS:      51835
cpu0_L1I AVERAGE MISS LATENCY: 14.88 cycles
cpu0_L2C TOTAL        ACCESS:    5503983 HIT:    3221917 MISS:    2282066
cpu0_L2C LOAD         ACCESS:    1761376 HIT:     870167 MISS:     891209
cpu0_L2C RFO          ACCESS:     271109 HIT:     170489 MISS:     100620
cpu0_L2C PREFETCH     ACCESS:    1987739 HIT:    1068899 MISS:     918840
cpu0_L2C WRITE        ACCESS:    1005637 HIT:    1005111 MISS:        526
cpu0_L2C TRANSLATION  ACCESS:     478122 HIT:     107251 MISS:     370871
cpu0_L2C PREFETCH REQUESTED:    1874600 ISSUED:    1874595 USEFUL:     209260 USELESS:     508575
cpu0_L2C AVERAGE MISS LATENCY: 163.9 cycles
cpu0_STLB TOTAL        ACCESS:    1158472 HIT:     751449 MISS:     407023
cpu0_STLB LOAD         ACCESS:    1158472 HIT:     751449 MISS:     407023
cpu0_STLB RFO          ACCESS:          0 HIT:          0 MISS:          0
cpu0_STLB PREFETCH     ACCESS:          0 HIT:          0 MISS:          0
cpu0_STLB WRITE        ACCESS:          0 HIT:          0 MISS:          0
cpu0_STLB TRANSLATION  ACCESS:          0 HIT:          0 MISS:          0
cpu0_STLB PREFETCH REQUESTED:          0 ISSUED:          0 USEFUL:          0 USELESS:          0
cpu0_STLB AVERAGE MISS LATENCY: 213.3 cycles

DRAM Statistics

Channel 0 RQ ROW_BUFFER_HIT:     139206
  ROW_BUFFER_MISS:     685645
 AVG DBUS CONGESTED CYCLE: 3.871
WQ ROW_BUFFER_HIT: Channel 0 
  ROW_BUFFER_MISS:      41381
  FULL:     135315

Channel 1 RQ ROW_BUFFER_HIT:     136122
  ROW_BUFFER_MISS:     679896
 AVG DBUS CONGESTED CYCLE: 3.87
WQ ROW_BUFFER_HIT: Channel 1 
  ROW_BUFFER_MISS:      41295
  FULL:     135007
BERTI TO_L1: 1870 TO_L2: 888 TO_L2_BC_MSHR: 0
BERTI AVG_LAT: 82.2233 NUM_TRACK_LATENCY: 2268014 NUM_CANT_TRACK_LATENCY: 0
BERTI CROSS_PAGE 352 NO_CROSS_PAGE: 2406
BERTI FOUND_BERTI: 2625289 NO_FOUND_BERTI: 21170399
BERTI AVERAGE_ISSUED: 5.42914
CPU 0 L1I Entangling prefetcher final stats
IP accesses: 1384 4e100 271748 / 8792283
IP misses: 824 20900 5922 / 57220
IP hits: 0 0 0 / 0
IP late: 824 20900 5202 / 23238
IP wrong: 2924 a4900 6243 / 46180
miss rate: 0.00650798
coverage: 0
coverage_late: 0.406117
accuracy: 0
accuracy_late: 0.334755
discarded: 0
evicts entangled j table: 0
evicts entangled k table: 1546
max bb size: 9
formats: 14 0 4267 690 225 296 0 
hist_lookups: 1288 3967 3296 1960 1905 3084 1321 1110 1361 875 411 701 152 107 37 0 3 4674 
hist_lookups_evict: 0.0114278 %
hist_lookups_shortlat: 17.8044 %
bb_found_hist: 0 2477719 1459977 771556 392778 211997 54796 28842 6949 9353 0 0 0 0 0 0 0 0 0 0 0 0 0 0 0 0 0 0 0 0 0 0 0 0 0 0 0 0 0 0 0 0 0 0 0 0 0 0 0 0 0 0 0 0 0 0 0 0 0 0 0 0 0 0 
bb_found_summary: 11013877 5413967 2.03435
entangled_found_hist: 0 1214824 1522781 2167437 61893 13745 650 0 
entangled_found_summary: 11082894 4981330 2.22489
bb_ent_found_hist: 0 3537335 2280808 1097989 386434 573420 129061 96929 0 12875 0 0 0 0 0 0 0 0 0 0 0 0 0 0 0 0 0 0 0 0 0 0 0 0 0 0 0 0 0 0 0 0 0 0 0 0 0 0 0 0 0 0 0 0 0 0 0 0 0 0 0 0 0 0 
bb_ent_found_summary: 17374498 8114851 2.14108
