WARNING: physical memory size is smaller than virtual memory size.

*** ChampSim Multicore Out-of-Order Simulator ***
Warmup Instructions: 30000000
Simulation Instructions: 100000000
Number of CPUs: 1
Page size: 4096

BTB:
Basic BTB sets: 1024 ways: 8
Indirect:
history lengths: 0 0 10 16 27 44 60 96 109 219 449 487 714 1313 2146 3881 
ITTAGE tables: 64768 bytes;Region table: 240 bytes;IUM: 384 bytes;Total Storage= 65392 bytes;
RAS:
RAS size: 64
[LLC] INSTR Demand IPV: 1 2 2 1 4 Prefetch IPV: 1 2 1 1 4
[LLC] DATA  Demand IPV: 1 1 1 2 4 Prefetch IPV: 1 1 2 2 4
Berti Prefetcher
CPU 0 Entangling prefetcher
Off-chip DRAM Size: 8 GiB Channels: 2 Width: 64-bit Data Race: 6400 MT/s
[DUEL] Epoch ended. INSTR misses = 247, DATA misses = 240. Winner = DATA
[DUEL] Epoch ended. INSTR misses = 260, DATA misses = 257. Winner = DATA
[DUEL] Epoch ended. INSTR misses = 176, DATA misses = 183. Winner = INSTR
[DUEL] Epoch ended. INSTR misses = 282, DATA misses = 277. Winner = DATA
[DUEL] Epoch ended. INSTR misses = 235, DATA misses = 257. Winner = INSTR
[DUEL] Epoch ended. INSTR misses = 118, DATA misses = 109. Winner = DATA
[DUEL] Epoch ended. INSTR misses = 16, DATA misses = 16. Winner = INSTR
[DUEL] Epoch ended. INSTR misses = 4, DATA misses = 6. Winner = INSTR
[DUEL] Epoch ended. INSTR misses = 73, DATA misses = 74. Winner = INSTR
[DUEL] Epoch ended. INSTR misses = 50, DATA misses = 38. Winner = DATA
[DUEL] Epoch ended. INSTR misses = 41, DATA misses = 45. Winner = INSTR
[DUEL] Epoch ended. INSTR misses = 116, DATA misses = 118. Winner = INSTR
[DUEL] Epoch ended. INSTR misses = 201, DATA misses = 208. Winner = INSTR
[DUEL] Epoch ended. INSTR misses = 245, DATA misses = 256. Winner = INSTR
[DUEL] Epoch ended. INSTR misses = 146, DATA misses = 133. Winner = DATA
[DUEL] Epoch ended. INSTR misses = 24, DATA misses = 23. Winner = DATA
[DUEL] Epoch ended. INSTR misses = 35, DATA misses = 41. Winner = INSTR
[DUEL] Epoch ended. INSTR misses = 62, DATA misses = 90. Winner = INSTR
[DUEL] Epoch ended. INSTR misses = 67, DATA misses = 74. Winner = INSTR
Heartbeat CPU 0 instructions: 10000001 cycles: 2093778 heartbeat IPC: 4.776 cumulative IPC: 4.776 (Simulation time: 00 hr 00 min 31 sec)
[DUEL] Epoch ended. INSTR misses = 146, DATA misses = 144. Winner = DATA
[DUEL] Epoch ended. INSTR misses = 30, DATA misses = 31. Winner = INSTR
[DUEL] Epoch ended. INSTR misses = 1, DATA misses = 0. Winner = DATA
[DUEL] Epoch ended. INSTR misses = 27, DATA misses = 28. Winner = INSTR
[DUEL] Epoch ended. INSTR misses = 72, DATA misses = 81. Winner = INSTR
[DUEL] Epoch ended. INSTR misses = 26, DATA misses = 28. Winner = INSTR
[DUEL] Epoch ended. INSTR misses = 47, DATA misses = 51. Winner = INSTR
[DUEL] Epoch ended. INSTR misses = 222, DATA misses = 217. Winner = DATA
[DUEL] Epoch ended. INSTR misses = 211, DATA misses = 213. Winner = INSTR
[DUEL] Epoch ended. INSTR misses = 221, DATA misses = 204. Winner = DATA
[DUEL] Epoch ended. INSTR misses = 223, DATA misses = 231. Winner = INSTR
[DUEL] Epoch ended. INSTR misses = 256, DATA misses = 259. Winner = INSTR
[DUEL] Epoch ended. INSTR misses = 239, DATA misses = 221. Winner = DATA
[DUEL] Epoch ended. INSTR misses = 247, DATA misses = 225. Winner = DATA
[DUEL] Epoch ended. INSTR misses = 209, DATA misses = 198. Winner = DATA
[DUEL] Epoch ended. INSTR misses = 12, DATA misses = 19. Winner = INSTR
[DUEL] Epoch ended. INSTR misses = 17, DATA misses = 16. Winner = DATA
[DUEL] Epoch ended. INSTR misses = 15, DATA misses = 23. Winner = INSTR
[DUEL] Epoch ended. INSTR misses = 88, DATA misses = 93. Winner = INSTR
[DUEL] Epoch ended. INSTR misses = 53, DATA misses = 47. Winner = DATA
Heartbeat CPU 0 instructions: 20000000 cycles: 4204826 heartbeat IPC: 4.737 cumulative IPC: 4.756 (Simulation time: 00 hr 01 min 01 sec)
[DUEL] Epoch ended. INSTR misses = 81, DATA misses = 94. Winner = INSTR
[DUEL] Epoch ended. INSTR misses = 226, DATA misses = 207. Winner = DATA
[DUEL] Epoch ended. INSTR misses = 225, DATA misses = 223. Winner = DATA
[DUEL] Epoch ended. INSTR misses = 42, DATA misses = 44. Winner = INSTR
[DUEL] Epoch ended. INSTR misses = 22, DATA misses = 19. Winner = DATA
[DUEL] Epoch ended. INSTR misses = 29, DATA misses = 32. Winner = INSTR
[DUEL] Epoch ended. INSTR misses = 73, DATA misses = 74. Winner = INSTR
[DUEL] Epoch ended. INSTR misses = 32, DATA misses = 26. Winner = DATA
[DUEL] Epoch ended. INSTR misses = 55, DATA misses = 56. Winner = INSTR
[DUEL] Epoch ended. INSTR misses = 177, DATA misses = 182. Winner = INSTR
[DUEL] Epoch ended. INSTR misses = 35, DATA misses = 27. Winner = DATA
[DUEL] Epoch ended. INSTR misses = 17, DATA misses = 21. Winner = INSTR
[DUEL] Epoch ended. INSTR misses = 32, DATA misses = 36. Winner = INSTR
[DUEL] Epoch ended. INSTR misses = 87, DATA misses = 86. Winner = DATA
[DUEL] Epoch ended. INSTR misses = 213, DATA misses = 217. Winner = INSTR
[DUEL] Epoch ended. INSTR misses = 16, DATA misses = 18. Winner = INSTR
[DUEL] Epoch ended. INSTR misses = 20, DATA misses = 16. Winner = DATA
[DUEL] Epoch ended. INSTR misses = 29, DATA misses = 28. Winner = DATA
[DUEL] Epoch ended. INSTR misses = 78, DATA misses = 78. Winner = INSTR
Heartbeat CPU 0 instructions: 30000004 cycles: 6312485 heartbeat IPC: 4.745 cumulative IPC: 4.752 (Simulation time: 00 hr 01 min 29 sec)
Warmup finished CPU 0 instructions: 30000004 cycles: 6312486 cumulative IPC: 4.752 (Simulation time: 00 hr 01 min 29 sec)
Warmup complete CPU 0 instructions: 30000004 cycles: 6312486 cumulative IPC: 4.752 (Simulation time: 00 hr 01 min 29 sec)
[DUEL] Epoch ended. INSTR misses = 243, DATA misses = 242. Winner = DATA
*** Reached end of trace: (0, "../traces/public_traces/compute_int/compute_int_34.champsimtrace.xz")
[DUEL] Epoch ended. INSTR misses = 137, DATA misses = 135. Winner = DATA
[DUEL] Epoch ended. INSTR misses = 282, DATA misses = 274. Winner = DATA
[DUEL] Epoch ended. INSTR misses = 312, DATA misses = 305. Winner = DATA
[DUEL] Epoch ended. INSTR misses = 358, DATA misses = 361. Winner = INSTR
[DUEL] Epoch ended. INSTR misses = 415, DATA misses = 413. Winner = DATA
[DUEL] Epoch ended. INSTR misses = 329, DATA misses = 337. Winner = INSTR
[DUEL] Epoch ended. INSTR misses = 23, DATA misses = 31. Winner = INSTR
[DUEL] Epoch ended. INSTR misses = 4, DATA misses = 6. Winner = INSTR
[DUEL] Epoch ended. INSTR misses = 24, DATA misses = 16. Winner = DATA
[DUEL] Epoch ended. INSTR misses = 81, DATA misses = 72. Winner = DATA
[DUEL] Epoch ended. INSTR misses = 49, DATA misses = 54. Winner = INSTR
[DUEL] Epoch ended. INSTR misses = 44, DATA misses = 34. Winner = DATA
[DUEL] Epoch ended. INSTR misses = 293, DATA misses = 295. Winner = INSTR
[DUEL] Epoch ended. INSTR misses = 312, DATA misses = 301. Winner = DATA
[DUEL] Epoch ended. INSTR misses = 347, DATA misses = 349. Winner = INSTR
[DUEL] Epoch ended. INSTR misses = 31, DATA misses = 44. Winner = INSTR
[DUEL] Epoch ended. INSTR misses = 17, DATA misses = 7. Winner = DATA
[DUEL] Epoch ended. INSTR misses = 38, DATA misses = 45. Winner = INSTR
[DUEL] Epoch ended. INSTR misses = 110, DATA misses = 114. Winner = INSTR
Heartbeat CPU 0 instructions: 40000007 cycles: 17830846 heartbeat IPC: 0.8682 cumulative IPC: 0.8682 (Simulation time: 00 hr 03 min 02 sec)
[DUEL] Epoch ended. INSTR misses = 237, DATA misses = 238. Winner = INSTR
[DUEL] Epoch ended. INSTR misses = 63, DATA misses = 67. Winner = INSTR
[DUEL] Epoch ended. INSTR misses = 1, DATA misses = 0. Winner = DATA
[DUEL] Epoch ended. INSTR misses = 27, DATA misses = 28. Winner = INSTR
[DUEL] Epoch ended. INSTR misses = 91, DATA misses = 91. Winner = INSTR
[DUEL] Epoch ended. INSTR misses = 13, DATA misses = 9. Winner = DATA
[DUEL] Epoch ended. INSTR misses = 44, DATA misses = 41. Winner = DATA
[DUEL] Epoch ended. INSTR misses = 146, DATA misses = 142. Winner = DATA
[DUEL] Epoch ended. INSTR misses = 408, DATA misses = 407. Winner = DATA
[DUEL] Epoch ended. INSTR misses = 277, DATA misses = 266. Winner = DATA
[DUEL] Epoch ended. INSTR misses = 326, DATA misses = 324. Winner = DATA
[DUEL] Epoch ended. INSTR misses = 393, DATA misses = 378. Winner = DATA
[DUEL] Epoch ended. INSTR misses = 383, DATA misses = 391. Winner = INSTR
[DUEL] Epoch ended. INSTR misses = 346, DATA misses = 335. Winner = DATA
[DUEL] Epoch ended. INSTR misses = 354, DATA misses = 334. Winner = DATA
[DUEL] Epoch ended. INSTR misses = 99, DATA misses = 117. Winner = INSTR
[DUEL] Epoch ended. INSTR misses = 15, DATA misses = 16. Winner = INSTR
[DUEL] Epoch ended. INSTR misses = 0, DATA misses = 0. Winner = INSTR
[DUEL] Epoch ended. INSTR misses = 89, DATA misses = 101. Winner = INSTR
Heartbeat CPU 0 instructions: 50000001 cycles: 29550432 heartbeat IPC: 0.8533 cumulative IPC: 0.8607 (Simulation time: 00 hr 04 min 34 sec)
[DUEL] Epoch ended. INSTR misses = 58, DATA misses = 52. Winner = DATA
[DUEL] Epoch ended. INSTR misses = 54, DATA misses = 54. Winner = INSTR
[DUEL] Epoch ended. INSTR misses = 195, DATA misses = 189. Winner = DATA
[DUEL] Epoch ended. INSTR misses = 326, DATA misses = 320. Winner = DATA
[DUEL] Epoch ended. INSTR misses = 209, DATA misses = 205. Winner = DATA
[DUEL] Epoch ended. INSTR misses = 21, DATA misses = 20. Winner = DATA
[DUEL] Epoch ended. INSTR misses = 23, DATA misses = 33. Winner = INSTR
[DUEL] Epoch ended. INSTR misses = 32, DATA misses = 26. Winner = DATA
[DUEL] Epoch ended. INSTR misses = 89, DATA misses = 85. Winner = DATA
[DUEL] Epoch ended. INSTR misses = 44, DATA misses = 38. Winner = DATA
[DUEL] Epoch ended. INSTR misses = 139, DATA misses = 128. Winner = DATA
[DUEL] Epoch ended. INSTR misses = 150, DATA misses = 159. Winner = INSTR
[DUEL] Epoch ended. INSTR misses = 28, DATA misses = 30. Winner = INSTR
[DUEL] Epoch ended. INSTR misses = 28, DATA misses = 36. Winner = INSTR
[DUEL] Epoch ended. INSTR misses = 92, DATA misses = 91. Winner = DATA
[DUEL] Epoch ended. INSTR misses = 180, DATA misses = 175. Winner = DATA
[DUEL] Epoch ended. INSTR misses = 152, DATA misses = 155. Winner = INSTR
[DUEL] Epoch ended. INSTR misses = 26, DATA misses = 24. Winner = DATA
[DUEL] Epoch ended. INSTR misses = 18, DATA misses = 12. Winner = DATA
[DUEL] Epoch ended. INSTR misses = 96, DATA misses = 102. Winner = INSTR
Heartbeat CPU 0 instructions: 60000010 cycles: 37821558 heartbeat IPC: 1.209 cumulative IPC: 0.9521 (Simulation time: 00 hr 05 min 37 sec)
[DUEL] Epoch ended. INSTR misses = 170, DATA misses = 166. Winner = DATA
*** Reached end of trace: (0, "../traces/public_traces/compute_int/compute_int_34.champsimtrace.xz")
[DUEL] Epoch ended. INSTR misses = 151, DATA misses = 152. Winner = INSTR
[DUEL] Epoch ended. INSTR misses = 280, DATA misses = 274. Winner = DATA
[DUEL] Epoch ended. INSTR misses = 356, DATA misses = 314. Winner = DATA
[DUEL] Epoch ended. INSTR misses = 274, DATA misses = 255. Winner = DATA
[DUEL] Epoch ended. INSTR misses = 432, DATA misses = 430. Winner = DATA
[DUEL] Epoch ended. INSTR misses = 415, DATA misses = 400. Winner = DATA
[DUEL] Epoch ended. INSTR misses = 137, DATA misses = 141. Winner = INSTR
[DUEL] Epoch ended. INSTR misses = 15, DATA misses = 16. Winner = INSTR
[DUEL] Epoch ended. INSTR misses = 4, DATA misses = 6. Winner = INSTR
[DUEL] Epoch ended. INSTR misses = 90, DATA misses = 77. Winner = DATA
[DUEL] Epoch ended. INSTR misses = 58, DATA misses = 52. Winner = DATA
[DUEL] Epoch ended. INSTR misses = 41, DATA misses = 30. Winner = DATA
[DUEL] Epoch ended. INSTR misses = 161, DATA misses = 154. Winner = DATA
[DUEL] Epoch ended. INSTR misses = 311, DATA misses = 299. Winner = DATA
[DUEL] Epoch ended. INSTR misses = 395, DATA misses = 370. Winner = DATA
[DUEL] Epoch ended. INSTR misses = 158, DATA misses = 158. Winner = INSTR
[DUEL] Epoch ended. INSTR misses = 31, DATA misses = 33. Winner = INSTR
[DUEL] Epoch ended. INSTR misses = 36, DATA misses = 32. Winner = DATA
Heartbeat CPU 0 instructions: 70000004 cycles: 49901986 heartbeat IPC: 0.8278 cumulative IPC: 0.9177 (Simulation time: 00 hr 07 min 14 sec)
[DUEL] Epoch ended. INSTR misses = 92, DATA misses = 100. Winner = INSTR
[DUEL] Epoch ended. INSTR misses = 118, DATA misses = 116. Winner = DATA
[DUEL] Epoch ended. INSTR misses = 187, DATA misses = 178. Winner = DATA
[DUEL] Epoch ended. INSTR misses = 27, DATA misses = 30. Winner = INSTR
[DUEL] Epoch ended. INSTR misses = 1, DATA misses = 0. Winner = DATA
[DUEL] Epoch ended. INSTR misses = 28, DATA misses = 28. Winner = INSTR
[DUEL] Epoch ended. INSTR misses = 96, DATA misses = 92. Winner = DATA
[DUEL] Epoch ended. INSTR misses = 52, DATA misses = 38. Winner = DATA
[DUEL] Epoch ended. INSTR misses = 29, DATA misses = 40. Winner = INSTR
[DUEL] Epoch ended. INSTR misses = 344, DATA misses = 318. Winner = DATA
[DUEL] Epoch ended. INSTR misses = 340, DATA misses = 330. Winner = DATA
[DUEL] Epoch ended. INSTR misses = 325, DATA misses = 318. Winner = DATA
[DUEL] Epoch ended. INSTR misses = 352, DATA misses = 335. Winner = DATA
[DUEL] Epoch ended. INSTR misses = 420, DATA misses = 397. Winner = DATA
[DUEL] Epoch ended. INSTR misses = 354, DATA misses = 344. Winner = DATA
[DUEL] Epoch ended. INSTR misses = 344, DATA misses = 325. Winner = DATA
[DUEL] Epoch ended. INSTR misses = 273, DATA misses = 271. Winner = DATA
[DUEL] Epoch ended. INSTR misses = 12, DATA misses = 19. Winner = INSTR
[DUEL] Epoch ended. INSTR misses = 14, DATA misses = 16. Winner = INSTR
[DUEL] Epoch ended. INSTR misses = 16, DATA misses = 24. Winner = INSTR
Heartbeat CPU 0 instructions: 80000002 cycles: 61448229 heartbeat IPC: 0.8661 cumulative IPC: 0.9069 (Simulation time: 00 hr 08 min 45 sec)
[DUEL] Epoch ended. INSTR misses = 100, DATA misses = 106. Winner = INSTR
[DUEL] Epoch ended. INSTR misses = 71, DATA misses = 71. Winner = INSTR
[DUEL] Epoch ended. INSTR misses = 85, DATA misses = 96. Winner = INSTR
[DUEL] Epoch ended. INSTR misses = 290, DATA misses = 281. Winner = DATA
[DUEL] Epoch ended. INSTR misses = 369, DATA misses = 354. Winner = DATA
[DUEL] Epoch ended. INSTR misses = 17, DATA misses = 20. Winner = INSTR
[DUEL] Epoch ended. INSTR misses = 23, DATA misses = 21. Winner = DATA
[DUEL] Epoch ended. INSTR misses = 27, DATA misses = 31. Winner = INSTR
[DUEL] Epoch ended. INSTR misses = 101, DATA misses = 95. Winner = DATA
[DUEL] Epoch ended. INSTR misses = 21, DATA misses = 15. Winner = DATA
[DUEL] Epoch ended. INSTR misses = 60, DATA misses = 56. Winner = DATA
[DUEL] Epoch ended. INSTR misses = 247, DATA misses = 253. Winner = INSTR
[DUEL] Epoch ended. INSTR misses = 30, DATA misses = 26. Winner = DATA
[DUEL] Epoch ended. INSTR misses = 24, DATA misses = 26. Winner = INSTR
[DUEL] Epoch ended. INSTR misses = 66, DATA misses = 73. Winner = INSTR
[DUEL] Epoch ended. INSTR misses = 85, DATA misses = 81. Winner = DATA
[DUEL] Epoch ended. INSTR misses = 289, DATA misses = 283. Winner = DATA
[DUEL] Epoch ended. INSTR misses = 12, DATA misses = 15. Winner = INSTR
[DUEL] Epoch ended. INSTR misses = 24, DATA misses = 16. Winner = DATA
Heartbeat CPU 0 instructions: 90000010 cycles: 69705122 heartbeat IPC: 1.211 cumulative IPC: 0.9465 (Simulation time: 00 hr 09 min 49 sec)
[DUEL] Epoch ended. INSTR misses = 27, DATA misses = 28. Winner = INSTR
[DUEL] Epoch ended. INSTR misses = 111, DATA misses = 105. Winner = DATA
[DUEL] Epoch ended. INSTR misses = 287, DATA misses = 282. Winner = DATA
*** Reached end of trace: (0, "../traces/public_traces/compute_int/compute_int_34.champsimtrace.xz")
[DUEL] Epoch ended. INSTR misses = 156, DATA misses = 143. Winner = DATA
[DUEL] Epoch ended. INSTR misses = 311, DATA misses = 284. Winner = DATA
[DUEL] Epoch ended. INSTR misses = 313, DATA misses = 292. Winner = DATA
[DUEL] Epoch ended. INSTR misses = 396, DATA misses = 366. Winner = DATA
[DUEL] Epoch ended. INSTR misses = 432, DATA misses = 413. Winner = DATA
[DUEL] Epoch ended. INSTR misses = 324, DATA misses = 314. Winner = DATA
[DUEL] Epoch ended. INSTR misses = 28, DATA misses = 31. Winner = INSTR
[DUEL] Epoch ended. INSTR misses = 5, DATA misses = 8. Winner = INSTR
[DUEL] Epoch ended. INSTR misses = 20, DATA misses = 15. Winner = DATA
[DUEL] Epoch ended. INSTR misses = 87, DATA misses = 74. Winner = DATA
[DUEL] Epoch ended. INSTR misses = 50, DATA misses = 55. Winner = INSTR
[DUEL] Epoch ended. INSTR misses = 57, DATA misses = 42. Winner = DATA
[DUEL] Epoch ended. INSTR misses = 305, DATA misses = 301. Winner = DATA
[DUEL] Epoch ended. INSTR misses = 335, DATA misses = 315. Winner = DATA
[DUEL] Epoch ended. INSTR misses = 342, DATA misses = 326. Winner = DATA
[DUEL] Epoch ended. INSTR misses = 26, DATA misses = 44. Winner = INSTR
[DUEL] Epoch ended. INSTR misses = 17, DATA misses = 9. Winner = DATA
Heartbeat CPU 0 instructions: 100000007 cycles: 81818018 heartbeat IPC: 0.8256 cumulative IPC: 0.9271 (Simulation time: 00 hr 11 min 26 sec)
[DUEL] Epoch ended. INSTR misses = 65, DATA misses = 75. Winner = INSTR
[DUEL] Epoch ended. INSTR misses = 89, DATA misses = 86. Winner = DATA
[DUEL] Epoch ended. INSTR misses = 265, DATA misses = 260. Winner = DATA
[DUEL] Epoch ended. INSTR misses = 40, DATA misses = 42. Winner = INSTR
[DUEL] Epoch ended. INSTR misses = 1, DATA misses = 0. Winner = DATA
[DUEL] Epoch ended. INSTR misses = 28, DATA misses = 28. Winner = INSTR
[DUEL] Epoch ended. INSTR misses = 96, DATA misses = 92. Winner = DATA
[DUEL] Epoch ended. INSTR misses = 13, DATA misses = 8. Winner = DATA
[DUEL] Epoch ended. INSTR misses = 44, DATA misses = 36. Winner = DATA
[DUEL] Epoch ended. INSTR misses = 177, DATA misses = 163. Winner = DATA
[DUEL] Epoch ended. INSTR misses = 411, DATA misses = 405. Winner = DATA
[DUEL] Epoch ended. INSTR misses = 280, DATA misses = 260. Winner = DATA
[DUEL] Epoch ended. INSTR misses = 330, DATA misses = 326. Winner = DATA
[DUEL] Epoch ended. INSTR misses = 418, DATA misses = 394. Winner = DATA
[DUEL] Epoch ended. INSTR misses = 385, DATA misses = 377. Winner = DATA
[DUEL] Epoch ended. INSTR misses = 350, DATA misses = 337. Winner = DATA
[DUEL] Epoch ended. INSTR misses = 358, DATA misses = 332. Winner = DATA
[DUEL] Epoch ended. INSTR misses = 72, DATA misses = 100. Winner = INSTR
[DUEL] Epoch ended. INSTR misses = 12, DATA misses = 16. Winner = INSTR
Heartbeat CPU 0 instructions: 110000009 cycles: 93455073 heartbeat IPC: 0.8593 cumulative IPC: 0.918 (Simulation time: 00 hr 12 min 58 sec)
[DUEL] Epoch ended. INSTR misses = 2, DATA misses = 10. Winner = INSTR
[DUEL] Epoch ended. INSTR misses = 87, DATA misses = 92. Winner = INSTR
[DUEL] Epoch ended. INSTR misses = 53, DATA misses = 52. Winner = DATA
[DUEL] Epoch ended. INSTR misses = 54, DATA misses = 53. Winner = DATA
[DUEL] Epoch ended. INSTR misses = 209, DATA misses = 209. Winner = INSTR
[DUEL] Epoch ended. INSTR misses = 330, DATA misses = 322. Winner = DATA
[DUEL] Epoch ended. INSTR misses = 181, DATA misses = 183. Winner = INSTR
[DUEL] Epoch ended. INSTR misses = 20, DATA misses = 20. Winner = INSTR
[DUEL] Epoch ended. INSTR misses = 24, DATA misses = 33. Winner = INSTR
[DUEL] Epoch ended. INSTR misses = 38, DATA misses = 39. Winner = INSTR
[DUEL] Epoch ended. INSTR misses = 94, DATA misses = 84. Winner = DATA
[DUEL] Epoch ended. INSTR misses = 30, DATA misses = 32. Winner = INSTR
[DUEL] Epoch ended. INSTR misses = 150, DATA misses = 143. Winner = DATA
[DUEL] Epoch ended. INSTR misses = 143, DATA misses = 157. Winner = INSTR
[DUEL] Epoch ended. INSTR misses = 22, DATA misses = 15. Winner = DATA
[DUEL] Epoch ended. INSTR misses = 30, DATA misses = 36. Winner = INSTR
[DUEL] Epoch ended. INSTR misses = 90, DATA misses = 89. Winner = DATA
[DUEL] Epoch ended. INSTR misses = 186, DATA misses = 178. Winner = DATA
[DUEL] Epoch ended. INSTR misses = 151, DATA misses = 155. Winner = INSTR
[DUEL] Epoch ended. INSTR misses = 16, DATA misses = 16. Winner = INSTR
Heartbeat CPU 0 instructions: 120000008 cycles: 101860150 heartbeat IPC: 1.19 cumulative IPC: 0.9419 (Simulation time: 00 hr 14 min 02 sec)
[DUEL] Epoch ended. INSTR misses = 18, DATA misses = 12. Winner = DATA
[DUEL] Epoch ended. INSTR misses = 98, DATA misses = 104. Winner = INSTR
[DUEL] Epoch ended. INSTR misses = 200, DATA misses = 196. Winner = DATA
*** Reached end of trace: (0, "../traces/public_traces/compute_int/compute_int_34.champsimtrace.xz")
[DUEL] Epoch ended. INSTR misses = 138, DATA misses = 133. Winner = DATA
[DUEL] Epoch ended. INSTR misses = 281, DATA misses = 265. Winner = DATA
[DUEL] Epoch ended. INSTR misses = 362, DATA misses = 332. Winner = DATA
[DUEL] Epoch ended. INSTR misses = 302, DATA misses = 269. Winner = DATA
[DUEL] Epoch ended. INSTR misses = 417, DATA misses = 417. Winner = INSTR
[DUEL] Epoch ended. INSTR misses = 429, DATA misses = 413. Winner = DATA
[DUEL] Epoch ended. INSTR misses = 103, DATA misses = 110. Winner = INSTR
[DUEL] Epoch ended. INSTR misses = 15, DATA misses = 16. Winner = INSTR
[DUEL] Epoch ended. INSTR misses = 23, DATA misses = 21. Winner = DATA
[DUEL] Epoch ended. INSTR misses = 65, DATA misses = 65. Winner = INSTR
[DUEL] Epoch ended. INSTR misses = 58, DATA misses = 47. Winner = DATA
[DUEL] Epoch ended. INSTR misses = 40, DATA misses = 33. Winner = DATA
[DUEL] Epoch ended. INSTR misses = 169, DATA misses = 154. Winner = DATA
[DUEL] Epoch ended. INSTR misses = 323, DATA misses = 307. Winner = DATA
[DUEL] Epoch ended. INSTR misses = 403, DATA misses = 381. Winner = DATA
[DUEL] Epoch ended. INSTR misses = 152, DATA misses = 145. Winner = DATA
Heartbeat CPU 0 instructions: 130000010 cycles: 114085604 heartbeat IPC: 0.818 cumulative IPC: 0.9279 (Simulation time: 00 hr 15 min 40 sec)
Simulation finished CPU 0 instructions: 100000006 cycles: 107773119 cumulative IPC: 0.9279 (Simulation time: 00 hr 15 min 40 sec)
Simulation complete CPU 0 instructions: 100000006 cycles: 107773119 cumulative IPC: 0.9279 (Simulation time: 00 hr 15 min 40 sec)

ChampSim completed all CPUs

=== Simulation ===
CPU 0 runs ../traces/public_traces/compute_int/compute_int_34.champsimtrace.xz
Region of Interest Statistics

CPU 0 cumulative IPC: 0.9279 instructions: 100000006 cycles: 107773119
CPU 0 Branch Prediction Accuracy: 97.48% MPKI: 3.2 Average ROB Occupancy at Mispredict: 81.53
Branch type MPKI
BRANCH_DIRECT_JUMP: 0
BRANCH_INDIRECT: 2.6
BRANCH_CONDITIONAL: 0.602
BRANCH_DIRECT_CALL: 0
BRANCH_INDIRECT_CALL: 0
BRANCH_RETURN: 0

LLC TOTAL        ACCESS:    9401399 HIT:    2341616 MISS:    7059783
LLC LOAD         ACCESS:    2563806 HIT:     909740 MISS:    1654066
LLC RFO          ACCESS:     524216 HIT:      31596 MISS:     492620
LLC PREFETCH     ACCESS:    5627968 HIT:    1295502 MISS:    4332466
LLC WRITE        ACCESS:     676605 HIT:     103580 MISS:     573025
LLC TRANSLATION  ACCESS:       8804 HIT:       1198 MISS:       7606
LLC PREFETCH REQUESTED:          0 ISSUED:          0 USEFUL:          0 USELESS:          0
LLC AVERAGE MISS LATENCY: 370.3 cycles
cpu0_DTLB TOTAL        ACCESS:   26331048 HIT:   25963783 MISS:     367265
cpu0_DTLB LOAD         ACCESS:   26331048 HIT:   25963783 MISS:     367265
cpu0_DTLB RFO          ACCESS:          0 HIT:          0 MISS:          0
cpu0_DTLB PREFETCH     ACCESS:          0 HIT:          0 MISS:          0
cpu0_DTLB WRITE        ACCESS:          0 HIT:          0 MISS:          0
cpu0_DTLB TRANSLATION  ACCESS:          0 HIT:          0 MISS:          0
cpu0_DTLB PREFETCH REQUESTED:          0 ISSUED:          0 USEFUL:          0 USELESS:          0
cpu0_DTLB AVERAGE MISS LATENCY: 12.44 cycles
cpu0_ITLB TOTAL        ACCESS:      66663 HIT:      66663 MISS:          0
cpu0_ITLB LOAD         ACCESS:      66663 HIT:      66663 MISS:          0
cpu0_ITLB RFO          ACCESS:          0 HIT:          0 MISS:          0
cpu0_ITLB PREFETCH     ACCESS:          0 HIT:          0 MISS:          0
cpu0_ITLB WRITE        ACCESS:          0 HIT:          0 MISS:          0
cpu0_ITLB TRANSLATION  ACCESS:          0 HIT:          0 MISS:          0
cpu0_ITLB PREFETCH REQUESTED:          0 ISSUED:          0 USEFUL:          0 USELESS:          0
cpu0_ITLB AVERAGE MISS LATENCY: -nan cycles
cpu0_L1D TOTAL        ACCESS:   50363425 HIT:   34818431 MISS:   15544994
cpu0_L1D LOAD         ACCESS:   19424178 HIT:   15070335 MISS:    4353843
cpu0_L1D RFO          ACCESS:          0 HIT:          0 MISS:          0
cpu0_L1D PREFETCH     ACCESS:   14358251 HIT:    5160823 MISS:    9197428
cpu0_L1D WRITE        ACCESS:   16528491 HIT:   14560690 MISS:    1967801
cpu0_L1D TRANSLATION  ACCESS:      52505 HIT:      26583 MISS:      25922
cpu0_L1D PREFETCH REQUESTED:  222906252 ISSUED:   14358251 USEFUL:    1722404 USELESS:     168597
cpu0_L1D AVERAGE MISS LATENCY: 69.53 cycles
cpu0_L1I TOTAL        ACCESS:      90719 HIT:      90237 MISS:        482
cpu0_L1I LOAD         ACCESS:      37668 HIT:      37414 MISS:        254
cpu0_L1I RFO          ACCESS:          0 HIT:          0 MISS:          0
cpu0_L1I PREFETCH     ACCESS:      53051 HIT:      52823 MISS:        228
cpu0_L1I WRITE        ACCESS:          0 HIT:          0 MISS:          0
cpu0_L1I TRANSLATION  ACCESS:          0 HIT:          0 MISS:          0
cpu0_L1I PREFETCH REQUESTED:      54241 ISSUED:      53051 USEFUL:        157 USELESS:          0
cpu0_L1I AVERAGE MISS LATENCY: 129.1 cycles
cpu0_L2C TOTAL        ACCESS:   25337953 HIT:   11540614 MISS:   13797339
cpu0_L2C LOAD         ACCESS:    3776851 HIT:     838843 MISS:    2938008
cpu0_L2C RFO          ACCESS:     554302 HIT:      28287 MISS:     526015
cpu0_L2C PREFETCH     ACCESS:   20242279 HIT:    9918658 MISS:   10323621
cpu0_L2C WRITE        ACCESS:     738606 HIT:     737715 MISS:        891
cpu0_L2C TRANSLATION  ACCESS:      25915 HIT:      17111 MISS:       8804
cpu0_L2C PREFETCH REQUESTED:   14481821 ISSUED:   11554025 USEFUL:     983464 USELESS:    2172989
cpu0_L2C AVERAGE MISS LATENCY: 196.6 cycles
cpu0_STLB TOTAL        ACCESS:     182042 HIT:     129790 MISS:      52252
cpu0_STLB LOAD         ACCESS:     182042 HIT:     129790 MISS:      52252
cpu0_STLB RFO          ACCESS:          0 HIT:          0 MISS:          0
cpu0_STLB PREFETCH     ACCESS:          0 HIT:          0 MISS:          0
cpu0_STLB WRITE        ACCESS:          0 HIT:          0 MISS:          0
cpu0_STLB TRANSLATION  ACCESS:          0 HIT:          0 MISS:          0
cpu0_STLB PREFETCH REQUESTED:          0 ISSUED:          0 USEFUL:          0 USELESS:          0
cpu0_STLB AVERAGE MISS LATENCY: 110.2 cycles

DRAM Statistics

Channel 0 RQ ROW_BUFFER_HIT:    2250790
  ROW_BUFFER_MISS:     993785
 AVG DBUS CONGESTED CYCLE: 3.952
WQ ROW_BUFFER_HIT: Channel 0 
  ROW_BUFFER_MISS:      82073
  FULL:     231852

Channel 1 RQ ROW_BUFFER_HIT:    2251333
  ROW_BUFFER_MISS:     990574
 AVG DBUS CONGESTED CYCLE: 3.95
WQ ROW_BUFFER_HIT: Channel 1 
  ROW_BUFFER_MISS:      83846
  FULL:     229778
BERTI TO_L1: 9443977 TO_L2: 228037253 TO_L2_BC_MSHR: 110502728
BERTI AVG_LAT: 160.4 NUM_TRACK_LATENCY: 7282726 NUM_CANT_TRACK_LATENCY: 509
BERTI CROSS_PAGE 57962861 NO_CROSS_PAGE: 179518369
BERTI FOUND_BERTI: 49713035 NO_FOUND_BERTI: 8707571
BERTI AVERAGE_ISSUED: 3.39312
CPU 0 L1I Entangling prefetcher final stats
IP accesses: 90 2400 5914 / 37668
IP misses: 3f12 fc480 12 / 254
IP hits: 0 0 0 / 0
IP late: 87 21c0 3 / 146
IP wrong: 0 0 0 / 0
miss rate: 0.00674313
coverage: 0
coverage_late: 0.574804
accuracy: 0
accuracy_late: 1
discarded: 0
evicts entangled j table: 0
evicts entangled k table: 8
max bb size: 9
formats: 7 0 15 2 3 3 0 
hist_lookups: 4 4 10 3 0 6 5 6 5 3 5 3 0 0 0 0 0 239 
hist_lookups_evict: 0 %
hist_lookups_shortlat: 81.57 %
bb_found_hist: 0 6942 664 990 1390 134 42 6 0 2 0 0 0 0 0 0 0 0 0 0 0 0 0 0 0 0 0 0 0 0 0 0 0 0 0 0 0 0 0 0 0 0 0 0 0 0 0 0 0 0 0 0 0 0 0 0 0 0 0 0 0 0 0 0 
bb_found_summary: 17782 10170 1.74848
entangled_found_hist: 0 6133 2614 1085 117 3 0 0 
entangled_found_summary: 15099 9952 1.51719
bb_ent_found_hist: 0 3921 1069 2390 8 103 3 1115 0 2 0 0 0 0 0 0 0 0 0 0 0 0 0 0 0 0 0 0 0 0 0 0 0 0 0 0 0 0 0 0 0 0 0 0 0 0 0 0 0 0 0 0 0 0 0 0 0 0 0 0 0 0 0 0 
bb_ent_found_summary: 21617 8611 2.5104
