WARNING: physical memory size is smaller than virtual memory size.

*** ChampSim Multicore Out-of-Order Simulator ***
Warmup Instructions: 30000000
Simulation Instructions: 100000000
Number of CPUs: 1
Page size: 4096

BTB:
Basic BTB sets: 1024 ways: 8
Indirect:
history lengths: 0 0 10 16 27 44 60 96 109 219 449 487 714 1313 2146 3881 
ITTAGE tables: 64768 bytes;Region table: 240 bytes;IUM: 384 bytes;Total Storage= 65392 bytes;
RAS:
RAS size: 64
[LLC] INSTR Demand IPV: 1 2 2 1 4 Prefetch IPV: 1 2 1 1 4
[LLC] DATA  Demand IPV: 1 1 1 2 4 Prefetch IPV: 1 1 2 2 4
Berti Prefetcher
CPU 0 Entangling prefetcher
Off-chip DRAM Size: 8 GiB Channels: 2 Width: 64-bit Data Race: 6400 MT/s
[DUEL] Epoch ended. INSTR misses = 28, DATA misses = 22. Winner = DATA
[DUEL] Epoch ended. INSTR misses = 245, DATA misses = 213. Winner = DATA
[DUEL] Epoch ended. INSTR misses = 0, DATA misses = 0. Winner = INSTR
[DUEL] Epoch ended. INSTR misses = 168, DATA misses = 133. Winner = DATA
[DUEL] Epoch ended. INSTR misses = 3, DATA misses = 0. Winner = DATA
[DUEL] Epoch ended. INSTR misses = 131, DATA misses = 91. Winner = DATA
[DUEL] Epoch ended. INSTR misses = 35, DATA misses = 41. Winner = INSTR
[DUEL] Epoch ended. INSTR misses = 45, DATA misses = 33. Winner = DATA
[DUEL] Epoch ended. INSTR misses = 117, DATA misses = 75. Winner = DATA
[DUEL] Epoch ended. INSTR misses = 0, DATA misses = 3. Winner = INSTR
[DUEL] Epoch ended. INSTR misses = 155, DATA misses = 108. Winner = DATA
[DUEL] Epoch ended. INSTR misses = 0, DATA misses = 0. Winner = INSTR
[DUEL] Epoch ended. INSTR misses = 151, DATA misses = 99. Winner = DATA
[DUEL] Epoch ended. INSTR misses = 0, DATA misses = 0. Winner = INSTR
[DUEL] Epoch ended. INSTR misses = 96, DATA misses = 50. Winner = DATA
[DUEL] Epoch ended. INSTR misses = 224, DATA misses = 159. Winner = DATA
[DUEL] Epoch ended. INSTR misses = 0, DATA misses = 0. Winner = INSTR
[DUEL] Epoch ended. INSTR misses = 0, DATA misses = 0. Winner = INSTR
[DUEL] Epoch ended. INSTR misses = 0, DATA misses = 0. Winner = INSTR
Heartbeat CPU 0 instructions: 10000005 cycles: 1765218 heartbeat IPC: 5.665 cumulative IPC: 5.665 (Simulation time: 00 hr 00 min 23 sec)
[DUEL] Epoch ended. INSTR misses = 0, DATA misses = 0. Winner = INSTR
[DUEL] Epoch ended. INSTR misses = 0, DATA misses = 0. Winner = INSTR
[DUEL] Epoch ended. INSTR misses = 0, DATA misses = 0. Winner = INSTR
[DUEL] Epoch ended. INSTR misses = 0, DATA misses = 0. Winner = INSTR
[DUEL] Epoch ended. INSTR misses = 0, DATA misses = 0. Winner = INSTR
[DUEL] Epoch ended. INSTR misses = 5, DATA misses = 1. Winner = DATA
[DUEL] Epoch ended. INSTR misses = 0, DATA misses = 0. Winner = INSTR
[DUEL] Epoch ended. INSTR misses = 16, DATA misses = 16. Winner = INSTR
[DUEL] Epoch ended. INSTR misses = 0, DATA misses = 0. Winner = INSTR
[DUEL] Epoch ended. INSTR misses = 0, DATA misses = 0. Winner = INSTR
[DUEL] Epoch ended. INSTR misses = 0, DATA misses = 0. Winner = INSTR
[DUEL] Epoch ended. INSTR misses = 0, DATA misses = 0. Winner = INSTR
[DUEL] Epoch ended. INSTR misses = 0, DATA misses = 0. Winner = INSTR
[DUEL] Epoch ended. INSTR misses = 0, DATA misses = 0. Winner = INSTR
[DUEL] Epoch ended. INSTR misses = 0, DATA misses = 0. Winner = INSTR
[DUEL] Epoch ended. INSTR misses = 0, DATA misses = 0. Winner = INSTR
[DUEL] Epoch ended. INSTR misses = 0, DATA misses = 0. Winner = INSTR
[DUEL] Epoch ended. INSTR misses = 20, DATA misses = 7. Winner = DATA
[DUEL] Epoch ended. INSTR misses = 140, DATA misses = 99. Winner = DATA
Heartbeat CPU 0 instructions: 20000000 cycles: 3531484 heartbeat IPC: 5.662 cumulative IPC: 5.663 (Simulation time: 00 hr 00 min 43 sec)
[DUEL] Epoch ended. INSTR misses = 1, DATA misses = 0. Winner = DATA
[DUEL] Epoch ended. INSTR misses = 146, DATA misses = 101. Winner = DATA
[DUEL] Epoch ended. INSTR misses = 0, DATA misses = 0. Winner = INSTR
[DUEL] Epoch ended. INSTR misses = 147, DATA misses = 109. Winner = DATA
[DUEL] Epoch ended. INSTR misses = 16, DATA misses = 16. Winner = INSTR
[DUEL] Epoch ended. INSTR misses = 132, DATA misses = 75. Winner = DATA
[DUEL] Epoch ended. INSTR misses = 32, DATA misses = 33. Winner = INSTR
[DUEL] Epoch ended. INSTR misses = 40, DATA misses = 33. Winner = DATA
[DUEL] Epoch ended. INSTR misses = 110, DATA misses = 66. Winner = DATA
[DUEL] Epoch ended. INSTR misses = 5, DATA misses = 3. Winner = DATA
[DUEL] Epoch ended. INSTR misses = 154, DATA misses = 106. Winner = DATA
[DUEL] Epoch ended. INSTR misses = 0, DATA misses = 0. Winner = INSTR
[DUEL] Epoch ended. INSTR misses = 145, DATA misses = 95. Winner = DATA
[DUEL] Epoch ended. INSTR misses = 0, DATA misses = 0. Winner = INSTR
[DUEL] Epoch ended. INSTR misses = 138, DATA misses = 88. Winner = DATA
[DUEL] Epoch ended. INSTR misses = 3, DATA misses = 3. Winner = INSTR
[DUEL] Epoch ended. INSTR misses = 72, DATA misses = 43. Winner = DATA
[DUEL] Epoch ended. INSTR misses = 60, DATA misses = 50. Winner = DATA
[DUEL] Epoch ended. INSTR misses = 20, DATA misses = 15. Winner = DATA
Heartbeat CPU 0 instructions: 30000007 cycles: 5298921 heartbeat IPC: 5.658 cumulative IPC: 5.662 (Simulation time: 00 hr 01 min 06 sec)
Warmup finished CPU 0 instructions: 30000007 cycles: 5298922 cumulative IPC: 5.662 (Simulation time: 00 hr 01 min 06 sec)
Warmup complete CPU 0 instructions: 30000007 cycles: 5298922 cumulative IPC: 5.662 (Simulation time: 00 hr 01 min 06 sec)
[DUEL] Epoch ended. INSTR misses = 134, DATA misses = 103. Winner = DATA
*** Reached end of trace: (0, "../traces/public_traces/compute_int/compute_int_14.champsimtrace.xz")
[DUEL] Epoch ended. INSTR misses = 0, DATA misses = 1. Winner = INSTR
[DUEL] Epoch ended. INSTR misses = 163, DATA misses = 116. Winner = DATA
[DUEL] Epoch ended. INSTR misses = 9, DATA misses = 16. Winner = INSTR
[DUEL] Epoch ended. INSTR misses = 94, DATA misses = 61. Winner = DATA
[DUEL] Epoch ended. INSTR misses = 85, DATA misses = 71. Winner = DATA
[DUEL] Epoch ended. INSTR misses = 20, DATA misses = 18. Winner = DATA
[DUEL] Epoch ended. INSTR misses = 148, DATA misses = 107. Winner = DATA
[DUEL] Epoch ended. INSTR misses = 0, DATA misses = 0. Winner = INSTR
[DUEL] Epoch ended. INSTR misses = 165, DATA misses = 123. Winner = DATA
[DUEL] Epoch ended. INSTR misses = 0, DATA misses = 6. Winner = INSTR
[DUEL] Epoch ended. INSTR misses = 166, DATA misses = 114. Winner = DATA
[DUEL] Epoch ended. INSTR misses = 3, DATA misses = 14. Winner = INSTR
[DUEL] Epoch ended. INSTR misses = 91, DATA misses = 66. Winner = DATA
[DUEL] Epoch ended. INSTR misses = 76, DATA misses = 59. Winner = DATA
[DUEL] Epoch ended. INSTR misses = 28, DATA misses = 16. Winner = DATA
[DUEL] Epoch ended. INSTR misses = 265, DATA misses = 175. Winner = DATA
[DUEL] Epoch ended. INSTR misses = 52, DATA misses = 49. Winner = DATA
[DUEL] Epoch ended. INSTR misses = 0, DATA misses = 0. Winner = INSTR
Heartbeat CPU 0 instructions: 40000004 cycles: 11467863 heartbeat IPC: 1.621 cumulative IPC: 1.621 (Simulation time: 00 hr 02 min 07 sec)
[DUEL] Epoch ended. INSTR misses = 0, DATA misses = 0. Winner = INSTR
[DUEL] Epoch ended. INSTR misses = 0, DATA misses = 0. Winner = INSTR
[DUEL] Epoch ended. INSTR misses = 0, DATA misses = 0. Winner = INSTR
[DUEL] Epoch ended. INSTR misses = 0, DATA misses = 0. Winner = INSTR
[DUEL] Epoch ended. INSTR misses = 0, DATA misses = 0. Winner = INSTR
[DUEL] Epoch ended. INSTR misses = 0, DATA misses = 0. Winner = INSTR
[DUEL] Epoch ended. INSTR misses = 0, DATA misses = 0. Winner = INSTR
[DUEL] Epoch ended. INSTR misses = 4, DATA misses = 1. Winner = DATA
[DUEL] Epoch ended. INSTR misses = 11, DATA misses = 10. Winner = DATA
[DUEL] Epoch ended. INSTR misses = 0, DATA misses = 0. Winner = INSTR
[DUEL] Epoch ended. INSTR misses = 0, DATA misses = 0. Winner = INSTR
[DUEL] Epoch ended. INSTR misses = 0, DATA misses = 0. Winner = INSTR
[DUEL] Epoch ended. INSTR misses = 0, DATA misses = 0. Winner = INSTR
[DUEL] Epoch ended. INSTR misses = 0, DATA misses = 0. Winner = INSTR
[DUEL] Epoch ended. INSTR misses = 0, DATA misses = 0. Winner = INSTR
[DUEL] Epoch ended. INSTR misses = 0, DATA misses = 0. Winner = INSTR
[DUEL] Epoch ended. INSTR misses = 0, DATA misses = 0. Winner = INSTR
[DUEL] Epoch ended. INSTR misses = 0, DATA misses = 0. Winner = INSTR
[DUEL] Epoch ended. INSTR misses = 0, DATA misses = 0. Winner = INSTR
Heartbeat CPU 0 instructions: 50000002 cycles: 13629651 heartbeat IPC: 4.626 cumulative IPC: 2.401 (Simulation time: 00 hr 02 min 34 sec)
[DUEL] Epoch ended. INSTR misses = 166, DATA misses = 128. Winner = DATA
[DUEL] Epoch ended. INSTR misses = 0, DATA misses = 0. Winner = INSTR
[DUEL] Epoch ended. INSTR misses = 160, DATA misses = 118. Winner = DATA
[DUEL] Epoch ended. INSTR misses = 3, DATA misses = 13. Winner = INSTR
[DUEL] Epoch ended. INSTR misses = 88, DATA misses = 66. Winner = DATA
[DUEL] Epoch ended. INSTR misses = 86, DATA misses = 74. Winner = DATA
[DUEL] Epoch ended. INSTR misses = 18, DATA misses = 15. Winner = DATA
[DUEL] Epoch ended. INSTR misses = 145, DATA misses = 110. Winner = DATA
[DUEL] Epoch ended. INSTR misses = 2, DATA misses = 0. Winner = DATA
[DUEL] Epoch ended. INSTR misses = 158, DATA misses = 120. Winner = DATA
[DUEL] Epoch ended. INSTR misses = 0, DATA misses = 0. Winner = INSTR
[DUEL] Epoch ended. INSTR misses = 152, DATA misses = 118. Winner = DATA
[DUEL] Epoch ended. INSTR misses = 0, DATA misses = 0. Winner = INSTR
[DUEL] Epoch ended. INSTR misses = 127, DATA misses = 86. Winner = DATA
[DUEL] Epoch ended. INSTR misses = 30, DATA misses = 35. Winner = INSTR
[DUEL] Epoch ended. INSTR misses = 42, DATA misses = 37. Winner = DATA
[DUEL] Epoch ended. INSTR misses = 114, DATA misses = 81. Winner = DATA
[DUEL] Epoch ended. INSTR misses = 4, DATA misses = 5. Winner = INSTR
[DUEL] Epoch ended. INSTR misses = 148, DATA misses = 112. Winner = DATA
Heartbeat CPU 0 instructions: 60000000 cycles: 19894329 heartbeat IPC: 1.596 cumulative IPC: 2.055 (Simulation time: 00 hr 03 min 36 sec)
[DUEL] Epoch ended. INSTR misses = 0, DATA misses = 0. Winner = INSTR
[DUEL] Epoch ended. INSTR misses = 157, DATA misses = 116. Winner = DATA
*** Reached end of trace: (0, "../traces/public_traces/compute_int/compute_int_14.champsimtrace.xz")
[DUEL] Epoch ended. INSTR misses = 0, DATA misses = 0. Winner = INSTR
[DUEL] Epoch ended. INSTR misses = 82, DATA misses = 65. Winner = DATA
[DUEL] Epoch ended. INSTR misses = 80, DATA misses = 73. Winner = DATA
[DUEL] Epoch ended. INSTR misses = 15, DATA misses = 13. Winner = DATA
[DUEL] Epoch ended. INSTR misses = 141, DATA misses = 115. Winner = DATA
[DUEL] Epoch ended. INSTR misses = 2, DATA misses = 1. Winner = DATA
[DUEL] Epoch ended. INSTR misses = 162, DATA misses = 121. Winner = DATA
[DUEL] Epoch ended. INSTR misses = 0, DATA misses = 11. Winner = INSTR
[DUEL] Epoch ended. INSTR misses = 161, DATA misses = 115. Winner = DATA
[DUEL] Epoch ended. INSTR misses = 5, DATA misses = 14. Winner = INSTR
[DUEL] Epoch ended. INSTR misses = 88, DATA misses = 61. Winner = DATA
[DUEL] Epoch ended. INSTR misses = 75, DATA misses = 67. Winner = DATA
[DUEL] Epoch ended. INSTR misses = 16, DATA misses = 15. Winner = DATA
[DUEL] Epoch ended. INSTR misses = 146, DATA misses = 106. Winner = DATA
[DUEL] Epoch ended. INSTR misses = 0, DATA misses = 1. Winner = INSTR
[DUEL] Epoch ended. INSTR misses = 189, DATA misses = 153. Winner = DATA
[DUEL] Epoch ended. INSTR misses = 114, DATA misses = 89. Winner = DATA
Heartbeat CPU 0 instructions: 70000000 cycles: 26139006 heartbeat IPC: 1.601 cumulative IPC: 1.919 (Simulation time: 00 hr 04 min 38 sec)
[DUEL] Epoch ended. INSTR misses = 0, DATA misses = 0. Winner = INSTR
[DUEL] Epoch ended. INSTR misses = 0, DATA misses = 0. Winner = INSTR
[DUEL] Epoch ended. INSTR misses = 0, DATA misses = 0. Winner = INSTR
[DUEL] Epoch ended. INSTR misses = 0, DATA misses = 0. Winner = INSTR
[DUEL] Epoch ended. INSTR misses = 0, DATA misses = 0. Winner = INSTR
[DUEL] Epoch ended. INSTR misses = 0, DATA misses = 0. Winner = INSTR
[DUEL] Epoch ended. INSTR misses = 0, DATA misses = 0. Winner = INSTR
[DUEL] Epoch ended. INSTR misses = 0, DATA misses = 0. Winner = INSTR
[DUEL] Epoch ended. INSTR misses = 4, DATA misses = 1. Winner = DATA
[DUEL] Epoch ended. INSTR misses = 10, DATA misses = 9. Winner = DATA
[DUEL] Epoch ended. INSTR misses = 0, DATA misses = 0. Winner = INSTR
[DUEL] Epoch ended. INSTR misses = 2, DATA misses = 0. Winner = DATA
[DUEL] Epoch ended. INSTR misses = 0, DATA misses = 0. Winner = INSTR
[DUEL] Epoch ended. INSTR misses = 0, DATA misses = 0. Winner = INSTR
[DUEL] Epoch ended. INSTR misses = 0, DATA misses = 0. Winner = INSTR
[DUEL] Epoch ended. INSTR misses = 0, DATA misses = 0. Winner = INSTR
[DUEL] Epoch ended. INSTR misses = 0, DATA misses = 0. Winner = INSTR
[DUEL] Epoch ended. INSTR misses = 0, DATA misses = 0. Winner = INSTR
[DUEL] Epoch ended. INSTR misses = 0, DATA misses = 0. Winner = INSTR
Heartbeat CPU 0 instructions: 80000001 cycles: 28123692 heartbeat IPC: 5.039 cumulative IPC: 2.191 (Simulation time: 00 hr 05 min 04 sec)
[DUEL] Epoch ended. INSTR misses = 0, DATA misses = 0. Winner = INSTR
[DUEL] Epoch ended. INSTR misses = 162, DATA misses = 116. Winner = DATA
[DUEL] Epoch ended. INSTR misses = 8, DATA misses = 8. Winner = INSTR
[DUEL] Epoch ended. INSTR misses = 90, DATA misses = 61. Winner = DATA
[DUEL] Epoch ended. INSTR misses = 63, DATA misses = 67. Winner = INSTR
[DUEL] Epoch ended. INSTR misses = 22, DATA misses = 17. Winner = DATA
[DUEL] Epoch ended. INSTR misses = 140, DATA misses = 116. Winner = DATA
[DUEL] Epoch ended. INSTR misses = 0, DATA misses = 0. Winner = INSTR
[DUEL] Epoch ended. INSTR misses = 162, DATA misses = 125. Winner = DATA
[DUEL] Epoch ended. INSTR misses = 2, DATA misses = 0. Winner = DATA
[DUEL] Epoch ended. INSTR misses = 163, DATA misses = 118. Winner = DATA
[DUEL] Epoch ended. INSTR misses = 4, DATA misses = 3. Winner = DATA
[DUEL] Epoch ended. INSTR misses = 87, DATA misses = 59. Winner = DATA
[DUEL] Epoch ended. INSTR misses = 64, DATA misses = 57. Winner = DATA
[DUEL] Epoch ended. INSTR misses = 22, DATA misses = 15. Winner = DATA
[DUEL] Epoch ended. INSTR misses = 135, DATA misses = 103. Winner = DATA
[DUEL] Epoch ended. INSTR misses = 0, DATA misses = 0. Winner = INSTR
[DUEL] Epoch ended. INSTR misses = 154, DATA misses = 118. Winner = DATA
[DUEL] Epoch ended. INSTR misses = 0, DATA misses = 0. Winner = INSTR
Heartbeat CPU 0 instructions: 90000000 cycles: 34011514 heartbeat IPC: 1.698 cumulative IPC: 2.09 (Simulation time: 00 hr 06 min 03 sec)
[DUEL] Epoch ended. INSTR misses = 152, DATA misses = 117. Winner = DATA
[DUEL] Epoch ended. INSTR misses = 0, DATA misses = 0. Winner = INSTR
[DUEL] Epoch ended. INSTR misses = 153, DATA misses = 118. Winner = DATA
*** Reached end of trace: (0, "../traces/public_traces/compute_int/compute_int_14.champsimtrace.xz")
[DUEL] Epoch ended. INSTR misses = 4, DATA misses = 3. Winner = DATA
[DUEL] Epoch ended. INSTR misses = 12, DATA misses = 9. Winner = DATA
[DUEL] Epoch ended. INSTR misses = 147, DATA misses = 112. Winner = DATA
[DUEL] Epoch ended. INSTR misses = 0, DATA misses = 10. Winner = INSTR
[DUEL] Epoch ended. INSTR misses = 177, DATA misses = 129. Winner = DATA
[DUEL] Epoch ended. INSTR misses = 2, DATA misses = 9. Winner = INSTR
[DUEL] Epoch ended. INSTR misses = 132, DATA misses = 83. Winner = DATA
[DUEL] Epoch ended. INSTR misses = 29, DATA misses = 45. Winner = INSTR
[DUEL] Epoch ended. INSTR misses = 47, DATA misses = 34. Winner = DATA
[DUEL] Epoch ended. INSTR misses = 103, DATA misses = 93. Winner = DATA
[DUEL] Epoch ended. INSTR misses = 1, DATA misses = 1. Winner = INSTR
[DUEL] Epoch ended. INSTR misses = 149, DATA misses = 123. Winner = DATA
[DUEL] Epoch ended. INSTR misses = 0, DATA misses = 7. Winner = INSTR
[DUEL] Epoch ended. INSTR misses = 152, DATA misses = 118. Winner = DATA
[DUEL] Epoch ended. INSTR misses = 0, DATA misses = 0. Winner = INSTR
[DUEL] Epoch ended. INSTR misses = 129, DATA misses = 75. Winner = DATA
Heartbeat CPU 0 instructions: 100000002 cycles: 40262498 heartbeat IPC: 1.6 cumulative IPC: 2.002 (Simulation time: 00 hr 07 min 05 sec)
[DUEL] Epoch ended. INSTR misses = 170, DATA misses = 150. Winner = DATA
[DUEL] Epoch ended. INSTR misses = 0, DATA misses = 0. Winner = INSTR
[DUEL] Epoch ended. INSTR misses = 0, DATA misses = 0. Winner = INSTR
[DUEL] Epoch ended. INSTR misses = 0, DATA misses = 0. Winner = INSTR
[DUEL] Epoch ended. INSTR misses = 0, DATA misses = 0. Winner = INSTR
[DUEL] Epoch ended. INSTR misses = 0, DATA misses = 0. Winner = INSTR
[DUEL] Epoch ended. INSTR misses = 0, DATA misses = 0. Winner = INSTR
[DUEL] Epoch ended. INSTR misses = 0, DATA misses = 0. Winner = INSTR
[DUEL] Epoch ended. INSTR misses = 0, DATA misses = 0. Winner = INSTR
[DUEL] Epoch ended. INSTR misses = 4, DATA misses = 1. Winner = DATA
[DUEL] Epoch ended. INSTR misses = 9, DATA misses = 8. Winner = DATA
[DUEL] Epoch ended. INSTR misses = 1, DATA misses = 0. Winner = DATA
[DUEL] Epoch ended. INSTR misses = 1, DATA misses = 0. Winner = DATA
[DUEL] Epoch ended. INSTR misses = 0, DATA misses = 0. Winner = INSTR
[DUEL] Epoch ended. INSTR misses = 0, DATA misses = 0. Winner = INSTR
[DUEL] Epoch ended. INSTR misses = 0, DATA misses = 0. Winner = INSTR
[DUEL] Epoch ended. INSTR misses = 0, DATA misses = 0. Winner = INSTR
[DUEL] Epoch ended. INSTR misses = 0, DATA misses = 0. Winner = INSTR
[DUEL] Epoch ended. INSTR misses = 0, DATA misses = 0. Winner = INSTR
Heartbeat CPU 0 instructions: 110000001 cycles: 42642074 heartbeat IPC: 4.202 cumulative IPC: 2.142 (Simulation time: 00 hr 07 min 35 sec)
[DUEL] Epoch ended. INSTR misses = 0, DATA misses = 0. Winner = INSTR
[DUEL] Epoch ended. INSTR misses = 0, DATA misses = 0. Winner = INSTR
[DUEL] Epoch ended. INSTR misses = 100, DATA misses = 70. Winner = DATA
[DUEL] Epoch ended. INSTR misses = 67, DATA misses = 59. Winner = DATA
[DUEL] Epoch ended. INSTR misses = 16, DATA misses = 15. Winner = DATA
[DUEL] Epoch ended. INSTR misses = 133, DATA misses = 113. Winner = DATA
[DUEL] Epoch ended. INSTR misses = 0, DATA misses = 0. Winner = INSTR
[DUEL] Epoch ended. INSTR misses = 160, DATA misses = 128. Winner = DATA
[DUEL] Epoch ended. INSTR misses = 0, DATA misses = 0. Winner = INSTR
[DUEL] Epoch ended. INSTR misses = 165, DATA misses = 127. Winner = DATA
[DUEL] Epoch ended. INSTR misses = 2, DATA misses = 0. Winner = DATA
[DUEL] Epoch ended. INSTR misses = 129, DATA misses = 83. Winner = DATA
[DUEL] Epoch ended. INSTR misses = 28, DATA misses = 35. Winner = INSTR
[DUEL] Epoch ended. INSTR misses = 51, DATA misses = 35. Winner = DATA
[DUEL] Epoch ended. INSTR misses = 99, DATA misses = 80. Winner = DATA
[DUEL] Epoch ended. INSTR misses = 3, DATA misses = 5. Winner = INSTR
[DUEL] Epoch ended. INSTR misses = 144, DATA misses = 110. Winner = DATA
[DUEL] Epoch ended. INSTR misses = 0, DATA misses = 0. Winner = INSTR
[DUEL] Epoch ended. INSTR misses = 153, DATA misses = 118. Winner = DATA
Heartbeat CPU 0 instructions: 120000002 cycles: 48446138 heartbeat IPC: 1.723 cumulative IPC: 2.086 (Simulation time: 00 hr 08 min 33 sec)
[DUEL] Epoch ended. INSTR misses = 0, DATA misses = 0. Winner = INSTR
[DUEL] Epoch ended. INSTR misses = 143, DATA misses = 111. Winner = DATA
[DUEL] Epoch ended. INSTR misses = 4, DATA misses = 5. Winner = INSTR
[DUEL] Epoch ended. INSTR misses = 89, DATA misses = 61. Winner = DATA
[DUEL] Epoch ended. INSTR misses = 61, DATA misses = 61. Winner = INSTR
*** Reached end of trace: (0, "../traces/public_traces/compute_int/compute_int_14.champsimtrace.xz")
[DUEL] Epoch ended. INSTR misses = 0, DATA misses = 2. Winner = INSTR
[DUEL] Epoch ended. INSTR misses = 154, DATA misses = 120. Winner = DATA
[DUEL] Epoch ended. INSTR misses = 9, DATA misses = 3. Winner = DATA
[DUEL] Epoch ended. INSTR misses = 150, DATA misses = 119. Winner = DATA
[DUEL] Epoch ended. INSTR misses = 10, DATA misses = 10. Winner = INSTR
[DUEL] Epoch ended. INSTR misses = 90, DATA misses = 60. Winner = DATA
[DUEL] Epoch ended. INSTR misses = 61, DATA misses = 69. Winner = INSTR
[DUEL] Epoch ended. INSTR misses = 18, DATA misses = 15. Winner = DATA
[DUEL] Epoch ended. INSTR misses = 145, DATA misses = 114. Winner = DATA
[DUEL] Epoch ended. INSTR misses = 0, DATA misses = 0. Winner = INSTR
[DUEL] Epoch ended. INSTR misses = 156, DATA misses = 126. Winner = DATA
[DUEL] Epoch ended. INSTR misses = 0, DATA misses = 0. Winner = INSTR
[DUEL] Epoch ended. INSTR misses = 154, DATA misses = 120. Winner = DATA
[DUEL] Epoch ended. INSTR misses = 0, DATA misses = 1. Winner = INSTR
Heartbeat CPU 0 instructions: 130000009 cycles: 54145215 heartbeat IPC: 1.755 cumulative IPC: 2.047 (Simulation time: 00 hr 09 min 31 sec)
Simulation finished CPU 0 instructions: 100000002 cycles: 48846294 cumulative IPC: 2.047 (Simulation time: 00 hr 09 min 31 sec)
Simulation complete CPU 0 instructions: 100000002 cycles: 48846294 cumulative IPC: 2.047 (Simulation time: 00 hr 09 min 31 sec)

ChampSim completed all CPUs

=== Simulation ===
CPU 0 runs ../traces/public_traces/compute_int/compute_int_14.champsimtrace.xz
Region of Interest Statistics

CPU 0 cumulative IPC: 2.047 instructions: 100000002 cycles: 48846294
CPU 0 Branch Prediction Accuracy: 99.94% MPKI: 0.1794 Average ROB Occupancy at Mispredict: 278.3
Branch type MPKI
BRANCH_DIRECT_JUMP: 0
BRANCH_INDIRECT: 0.117
BRANCH_CONDITIONAL: 0.0625
BRANCH_DIRECT_CALL: 0
BRANCH_INDIRECT_CALL: 7e-05
BRANCH_RETURN: 0.00012

LLC TOTAL        ACCESS:    3898223 HIT:    2049314 MISS:    1848909
LLC LOAD         ACCESS:    1743395 HIT:     963984 MISS:     779411
LLC RFO          ACCESS:      18457 HIT:       6868 MISS:      11589
LLC PREFETCH     ACCESS:    2039399 HIT:    1034572 MISS:    1004827
LLC WRITE        ACCESS:      30474 HIT:      19978 MISS:      10496
LLC TRANSLATION  ACCESS:      66498 HIT:      23912 MISS:      42586
LLC PREFETCH REQUESTED:          0 ISSUED:          0 USEFUL:          0 USELESS:          0
LLC AVERAGE MISS LATENCY: 438.5 cycles
cpu0_DTLB TOTAL        ACCESS:   12622150 HIT:   11715302 MISS:     906848
cpu0_DTLB LOAD         ACCESS:   12622150 HIT:   11715302 MISS:     906848
cpu0_DTLB RFO          ACCESS:          0 HIT:          0 MISS:          0
cpu0_DTLB PREFETCH     ACCESS:          0 HIT:          0 MISS:          0
cpu0_DTLB WRITE        ACCESS:          0 HIT:          0 MISS:          0
cpu0_DTLB TRANSLATION  ACCESS:          0 HIT:          0 MISS:          0
cpu0_DTLB PREFETCH REQUESTED:          0 ISSUED:          0 USEFUL:          0 USELESS:          0
cpu0_DTLB AVERAGE MISS LATENCY: 48.77 cycles
cpu0_ITLB TOTAL        ACCESS:    1586386 HIT:    1586376 MISS:         10
cpu0_ITLB LOAD         ACCESS:    1586386 HIT:    1586376 MISS:         10
cpu0_ITLB RFO          ACCESS:          0 HIT:          0 MISS:          0
cpu0_ITLB PREFETCH     ACCESS:          0 HIT:          0 MISS:          0
cpu0_ITLB WRITE        ACCESS:          0 HIT:          0 MISS:          0
cpu0_ITLB TRANSLATION  ACCESS:          0 HIT:          0 MISS:          0
cpu0_ITLB PREFETCH REQUESTED:          0 ISSUED:          0 USEFUL:          0 USELESS:          0
cpu0_ITLB AVERAGE MISS LATENCY: 327.8 cycles
cpu0_L1D TOTAL        ACCESS:   18954923 HIT:   15515715 MISS:    3439208
cpu0_L1D LOAD         ACCESS:    8999373 HIT:    7052768 MISS:    1946605
cpu0_L1D RFO          ACCESS:          0 HIT:          0 MISS:          0
cpu0_L1D PREFETCH     ACCESS:    6533036 HIT:    5193658 MISS:    1339378
cpu0_L1D WRITE        ACCESS:    2881236 HIT:    2834968 MISS:      46268
cpu0_L1D TRANSLATION  ACCESS:     541278 HIT:     434321 MISS:     106957
cpu0_L1D PREFETCH REQUESTED:   32655342 ISSUED:    6533004 USEFUL:     149469 USELESS:       3068
cpu0_L1D AVERAGE MISS LATENCY: 138.9 cycles
cpu0_L1I TOTAL        ACCESS:    2332267 HIT:    2316543 MISS:      15724
cpu0_L1I LOAD         ACCESS:     878954 HIT:     873692 MISS:       5262
cpu0_L1I RFO          ACCESS:          0 HIT:          0 MISS:          0
cpu0_L1I PREFETCH     ACCESS:    1453313 HIT:    1442851 MISS:      10462
cpu0_L1I WRITE        ACCESS:          0 HIT:          0 MISS:          0
cpu0_L1I TRANSLATION  ACCESS:          0 HIT:          0 MISS:          0
cpu0_L1I PREFETCH REQUESTED:    2564962 ISSUED:    1453346 USEFUL:       8518 USELESS:        855
cpu0_L1I AVERAGE MISS LATENCY: 120.9 cycles
cpu0_L2C TOTAL        ACCESS:    6258182 HIT:    1874722 MISS:    4383460
cpu0_L2C LOAD         ACCESS:    1868374 HIT:     110746 MISS:    1757628
cpu0_L2C RFO          ACCESS:      22113 HIT:       3046 MISS:      19067
cpu0_L2C PREFETCH     ACCESS:    4237700 HIT:    1697479 MISS:    2540221
cpu0_L2C WRITE        ACCESS:      34081 HIT:      34035 MISS:         46
cpu0_L2C TRANSLATION  ACCESS:      95914 HIT:      29416 MISS:      66498
cpu0_L2C PREFETCH REQUESTED:    3214509 ISSUED:    3055035 USEFUL:      92454 USELESS:    1776199
cpu0_L2C AVERAGE MISS LATENCY: 202.6 cycles
cpu0_STLB TOTAL        ACCESS:     545994 HIT:       5356 MISS:     540638
cpu0_STLB LOAD         ACCESS:     545994 HIT:       5356 MISS:     540638
cpu0_STLB RFO          ACCESS:          0 HIT:          0 MISS:          0
cpu0_STLB PREFETCH     ACCESS:          0 HIT:          0 MISS:          0
cpu0_STLB WRITE        ACCESS:          0 HIT:          0 MISS:          0
cpu0_STLB TRANSLATION  ACCESS:          0 HIT:          0 MISS:          0
cpu0_STLB PREFETCH REQUESTED:          0 ISSUED:          0 USEFUL:          0 USELESS:          0
cpu0_STLB AVERAGE MISS LATENCY: 110.1 cycles

DRAM Statistics

Channel 0 RQ ROW_BUFFER_HIT:     623303
  ROW_BUFFER_MISS:     263605
 AVG DBUS CONGESTED CYCLE: 3.928
WQ ROW_BUFFER_HIT: Channel 0 
  ROW_BUFFER_MISS:       2272
  FULL:       6917

Channel 1 RQ ROW_BUFFER_HIT:     669716
  ROW_BUFFER_MISS:     281725
 AVG DBUS CONGESTED CYCLE: 3.946
WQ ROW_BUFFER_HIT: Channel 1 
  ROW_BUFFER_MISS:       1093
  FULL:       7953
BERTI TO_L1: 9165053 TO_L2: 30440933 TO_L2_BC_MSHR: 26645820
BERTI AVG_LAT: 194.652 NUM_TRACK_LATENCY: 2623589 NUM_CANT_TRACK_LATENCY: 18
BERTI CROSS_PAGE 5504564 NO_CROSS_PAGE: 34101422
BERTI FOUND_BERTI: 24737337 NO_FOUND_BERTI: 6734190
BERTI AVERAGE_ISSUED: 4.97678
CPU 0 L1I Entangling prefetcher final stats
IP accesses: 5877 161dc0 32412 / 889931
IP misses: 3a7f e9fc0 475 / 16239
IP hits: 0 0 0 / 0
IP late: 1925 64940 97 / 2755
IP wrong: 127 49c0 75 / 851
miss rate: 0.0182475
coverage: 0
coverage_late: 0.169654
accuracy: 0
accuracy_late: 0.764005
discarded: 0
evicts entangled j table: 0
evicts entangled k table: 235
max bb size: 16
formats: 105 0 172 100 47 77 0 
hist_lookups: 86 89 120 146 139 104 99 88 74 66 68 56 43 28 9 0 15 2628 
hist_lookups_evict: 0.388803 %
hist_lookups_shortlat: 68.1182 %
bb_found_hist: 0 202555 118867 39278 23179 1784 2591 1338 55 0 290 10 97 147 0 97 203 0 0 0 0 0 0 0 0 0 0 0 0 0 0 0 0 0 0 0 0 0 0 0 0 0 0 0 0 0 0 0 0 0 0 0 0 0 0 0 0 0 0 0 0 0 0 0 
bb_found_summary: 695899 390491 1.78212
entangled_found_hist: 0 155274 61888 115769 31985 6847 3900 0 
entangled_found_summary: 811932 375663 2.16134
bb_ent_found_hist: 0 240892 151579 57224 61209 6988 462 6834 260 0 0 20 0 0 0 1697 0 0 0 0 0 0 0 0 0 0 0 0 0 0 0 0 0 0 0 0 0 0 0 0 0 0 0 0 0 0 0 0 0 0 0 0 0 0 0 0 0 0 0 0 0 0 0 0 
bb_ent_found_summary: 1073863 527165 2.03706
