WARNING: physical memory size is smaller than virtual memory size.

*** ChampSim Multicore Out-of-Order Simulator ***
Warmup Instructions: 30000000
Simulation Instructions: 100000000
Number of CPUs: 1
Page size: 4096

BTB:
Basic BTB sets: 1024 ways: 8
Indirect:
history lengths: 0 0 10 16 27 44 60 96 109 219 449 487 714 1313 2146 3881 
ITTAGE tables: 64768 bytes;Region table: 240 bytes;IUM: 384 bytes;Total Storage= 65392 bytes;
RAS:
RAS size: 64
[LLC] INSTR Demand IPV: 1 2 2 1 4 Prefetch IPV: 1 2 1 1 4
[LLC] DATA  Demand IPV: 1 1 1 2 4 Prefetch IPV: 1 1 2 2 4
Berti Prefetcher
CPU 0 Entangling prefetcher
Off-chip DRAM Size: 8 GiB Channels: 2 Width: 64-bit Data Race: 6400 MT/s
[DUEL] Epoch ended. INSTR misses = 59, DATA misses = 75. Winner = INSTR
[DUEL] Epoch ended. INSTR misses = 38, DATA misses = 59. Winner = INSTR
[DUEL] Epoch ended. INSTR misses = 39, DATA misses = 62. Winner = INSTR
[DUEL] Epoch ended. INSTR misses = 80, DATA misses = 89. Winner = INSTR
[DUEL] Epoch ended. INSTR misses = 65, DATA misses = 67. Winner = INSTR
[DUEL] Epoch ended. INSTR misses = 40, DATA misses = 58. Winner = INSTR
[DUEL] Epoch ended. INSTR misses = 41, DATA misses = 68. Winner = INSTR
[DUEL] Epoch ended. INSTR misses = 81, DATA misses = 64. Winner = DATA
[DUEL] Epoch ended. INSTR misses = 80, DATA misses = 86. Winner = INSTR
[DUEL] Epoch ended. INSTR misses = 92, DATA misses = 108. Winner = INSTR
[DUEL] Epoch ended. INSTR misses = 88, DATA misses = 82. Winner = DATA
[DUEL] Epoch ended. INSTR misses = 27, DATA misses = 53. Winner = INSTR
[DUEL] Epoch ended. INSTR misses = 81, DATA misses = 84. Winner = INSTR
[DUEL] Epoch ended. INSTR misses = 83, DATA misses = 93. Winner = INSTR
[DUEL] Epoch ended. INSTR misses = 58, DATA misses = 79. Winner = INSTR
[DUEL] Epoch ended. INSTR misses = 75, DATA misses = 83. Winner = INSTR
[DUEL] Epoch ended. INSTR misses = 116, DATA misses = 125. Winner = INSTR
[DUEL] Epoch ended. INSTR misses = 45, DATA misses = 60. Winner = INSTR
[DUEL] Epoch ended. INSTR misses = 144, DATA misses = 140. Winner = DATA
Heartbeat CPU 0 instructions: 10000001 cycles: 1666927 heartbeat IPC: 5.999 cumulative IPC: 5.999 (Simulation time: 00 hr 00 min 25 sec)
[DUEL] Epoch ended. INSTR misses = 140, DATA misses = 128. Winner = DATA
[DUEL] Epoch ended. INSTR misses = 44, DATA misses = 56. Winner = INSTR
[DUEL] Epoch ended. INSTR misses = 68, DATA misses = 80. Winner = INSTR
[DUEL] Epoch ended. INSTR misses = 72, DATA misses = 72. Winner = INSTR
[DUEL] Epoch ended. INSTR misses = 100, DATA misses = 101. Winner = INSTR
[DUEL] Epoch ended. INSTR misses = 94, DATA misses = 100. Winner = INSTR
[DUEL] Epoch ended. INSTR misses = 112, DATA misses = 108. Winner = DATA
[DUEL] Epoch ended. INSTR misses = 113, DATA misses = 114. Winner = INSTR
[DUEL] Epoch ended. INSTR misses = 93, DATA misses = 87. Winner = DATA
[DUEL] Epoch ended. INSTR misses = 80, DATA misses = 69. Winner = DATA
[DUEL] Epoch ended. INSTR misses = 102, DATA misses = 92. Winner = DATA
[DUEL] Epoch ended. INSTR misses = 91, DATA misses = 75. Winner = DATA
[DUEL] Epoch ended. INSTR misses = 63, DATA misses = 54. Winner = DATA
[DUEL] Epoch ended. INSTR misses = 91, DATA misses = 69. Winner = DATA
[DUEL] Epoch ended. INSTR misses = 62, DATA misses = 42. Winner = DATA
[DUEL] Epoch ended. INSTR misses = 119, DATA misses = 83. Winner = DATA
[DUEL] Epoch ended. INSTR misses = 91, DATA misses = 92. Winner = INSTR
[DUEL] Epoch ended. INSTR misses = 96, DATA misses = 80. Winner = DATA
[DUEL] Epoch ended. INSTR misses = 71, DATA misses = 54. Winner = DATA
[DUEL] Epoch ended. INSTR misses = 152, DATA misses = 123. Winner = DATA
Heartbeat CPU 0 instructions: 20000002 cycles: 3333596 heartbeat IPC: 6 cumulative IPC: 6 (Simulation time: 00 hr 00 min 50 sec)
[DUEL] Epoch ended. INSTR misses = 120, DATA misses = 120. Winner = INSTR
[DUEL] Epoch ended. INSTR misses = 126, DATA misses = 104. Winner = DATA
[DUEL] Epoch ended. INSTR misses = 109, DATA misses = 74. Winner = DATA
[DUEL] Epoch ended. INSTR misses = 108, DATA misses = 90. Winner = DATA
[DUEL] Epoch ended. INSTR misses = 167, DATA misses = 148. Winner = DATA
[DUEL] Epoch ended. INSTR misses = 63, DATA misses = 99. Winner = INSTR
[DUEL] Epoch ended. INSTR misses = 85, DATA misses = 111. Winner = INSTR
[DUEL] Epoch ended. INSTR misses = 78, DATA misses = 66. Winner = DATA
[DUEL] Epoch ended. INSTR misses = 83, DATA misses = 75. Winner = DATA
[DUEL] Epoch ended. INSTR misses = 123, DATA misses = 102. Winner = DATA
[DUEL] Epoch ended. INSTR misses = 85, DATA misses = 93. Winner = INSTR
[DUEL] Epoch ended. INSTR misses = 81, DATA misses = 69. Winner = DATA
[DUEL] Epoch ended. INSTR misses = 165, DATA misses = 184. Winner = INSTR
[DUEL] Epoch ended. INSTR misses = 75, DATA misses = 74. Winner = DATA
[DUEL] Epoch ended. INSTR misses = 148, DATA misses = 145. Winner = DATA
[DUEL] Epoch ended. INSTR misses = 83, DATA misses = 99. Winner = INSTR
[DUEL] Epoch ended. INSTR misses = 121, DATA misses = 110. Winner = DATA
[DUEL] Epoch ended. INSTR misses = 94, DATA misses = 65. Winner = DATA
[DUEL] Epoch ended. INSTR misses = 114, DATA misses = 115. Winner = INSTR
Heartbeat CPU 0 instructions: 30000006 cycles: 5000343 heartbeat IPC: 6 cumulative IPC: 6 (Simulation time: 00 hr 01 min 16 sec)
Warmup finished CPU 0 instructions: 30000006 cycles: 5000344 cumulative IPC: 6 (Simulation time: 00 hr 01 min 16 sec)
Warmup complete CPU 0 instructions: 30000006 cycles: 5000344 cumulative IPC: 6 (Simulation time: 00 hr 01 min 16 sec)
[DUEL] Epoch ended. INSTR misses = 119, DATA misses = 122. Winner = INSTR
[DUEL] Epoch ended. INSTR misses = 131, DATA misses = 130. Winner = DATA
[DUEL] Epoch ended. INSTR misses = 122, DATA misses = 164. Winner = INSTR
*** Reached end of trace: (0, "../traces/public_traces/compute_int/compute_int_23.champsimtrace.xz")
[DUEL] Epoch ended. INSTR misses = 36, DATA misses = 63. Winner = INSTR
[DUEL] Epoch ended. INSTR misses = 35, DATA misses = 44. Winner = INSTR
[DUEL] Epoch ended. INSTR misses = 31, DATA misses = 61. Winner = INSTR
[DUEL] Epoch ended. INSTR misses = 56, DATA misses = 70. Winner = INSTR
[DUEL] Epoch ended. INSTR misses = 57, DATA misses = 55. Winner = DATA
[DUEL] Epoch ended. INSTR misses = 41, DATA misses = 56. Winner = INSTR
[DUEL] Epoch ended. INSTR misses = 46, DATA misses = 67. Winner = INSTR
[DUEL] Epoch ended. INSTR misses = 61, DATA misses = 54. Winner = DATA
[DUEL] Epoch ended. INSTR misses = 72, DATA misses = 74. Winner = INSTR
[DUEL] Epoch ended. INSTR misses = 79, DATA misses = 99. Winner = INSTR
[DUEL] Epoch ended. INSTR misses = 81, DATA misses = 72. Winner = DATA
[DUEL] Epoch ended. INSTR misses = 30, DATA misses = 61. Winner = INSTR
[DUEL] Epoch ended. INSTR misses = 73, DATA misses = 84. Winner = INSTR
[DUEL] Epoch ended. INSTR misses = 89, DATA misses = 91. Winner = INSTR
[DUEL] Epoch ended. INSTR misses = 46, DATA misses = 74. Winner = INSTR
[DUEL] Epoch ended. INSTR misses = 80, DATA misses = 77. Winner = DATA
[DUEL] Epoch ended. INSTR misses = 110, DATA misses = 122. Winner = INSTR
Heartbeat CPU 0 instructions: 40000009 cycles: 19624469 heartbeat IPC: 0.6838 cumulative IPC: 0.6838 (Simulation time: 00 hr 02 min 40 sec)
[DUEL] Epoch ended. INSTR misses = 47, DATA misses = 74. Winner = INSTR
[DUEL] Epoch ended. INSTR misses = 141, DATA misses = 144. Winner = INSTR
[DUEL] Epoch ended. INSTR misses = 140, DATA misses = 124. Winner = DATA
[DUEL] Epoch ended. INSTR misses = 44, DATA misses = 64. Winner = INSTR
[DUEL] Epoch ended. INSTR misses = 68, DATA misses = 91. Winner = INSTR
[DUEL] Epoch ended. INSTR misses = 72, DATA misses = 64. Winner = DATA
[DUEL] Epoch ended. INSTR misses = 72, DATA misses = 88. Winner = INSTR
[DUEL] Epoch ended. INSTR misses = 119, DATA misses = 122. Winner = INSTR
[DUEL] Epoch ended. INSTR misses = 114, DATA misses = 116. Winner = INSTR
[DUEL] Epoch ended. INSTR misses = 106, DATA misses = 111. Winner = INSTR
[DUEL] Epoch ended. INSTR misses = 84, DATA misses = 95. Winner = INSTR
[DUEL] Epoch ended. INSTR misses = 79, DATA misses = 76. Winner = DATA
[DUEL] Epoch ended. INSTR misses = 88, DATA misses = 83. Winner = DATA
[DUEL] Epoch ended. INSTR misses = 103, DATA misses = 76. Winner = DATA
[DUEL] Epoch ended. INSTR misses = 68, DATA misses = 53. Winner = DATA
[DUEL] Epoch ended. INSTR misses = 91, DATA misses = 74. Winner = DATA
[DUEL] Epoch ended. INSTR misses = 67, DATA misses = 43. Winner = DATA
[DUEL] Epoch ended. INSTR misses = 125, DATA misses = 67. Winner = DATA
[DUEL] Epoch ended. INSTR misses = 104, DATA misses = 106. Winner = INSTR
Heartbeat CPU 0 instructions: 50000005 cycles: 34873750 heartbeat IPC: 0.6558 cumulative IPC: 0.6695 (Simulation time: 00 hr 04 min 06 sec)
[DUEL] Epoch ended. INSTR misses = 83, DATA misses = 63. Winner = DATA
[DUEL] Epoch ended. INSTR misses = 75, DATA misses = 62. Winner = DATA
[DUEL] Epoch ended. INSTR misses = 141, DATA misses = 123. Winner = DATA
[DUEL] Epoch ended. INSTR misses = 124, DATA misses = 114. Winner = DATA
[DUEL] Epoch ended. INSTR misses = 119, DATA misses = 109. Winner = DATA
[DUEL] Epoch ended. INSTR misses = 113, DATA misses = 82. Winner = DATA
[DUEL] Epoch ended. INSTR misses = 109, DATA misses = 92. Winner = DATA
[DUEL] Epoch ended. INSTR misses = 178, DATA misses = 142. Winner = DATA
[DUEL] Epoch ended. INSTR misses = 66, DATA misses = 99. Winner = INSTR
[DUEL] Epoch ended. INSTR misses = 89, DATA misses = 100. Winner = INSTR
[DUEL] Epoch ended. INSTR misses = 77, DATA misses = 76. Winner = DATA
[DUEL] Epoch ended. INSTR misses = 101, DATA misses = 86. Winner = DATA
[DUEL] Epoch ended. INSTR misses = 115, DATA misses = 96. Winner = DATA
[DUEL] Epoch ended. INSTR misses = 83, DATA misses = 101. Winner = INSTR
[DUEL] Epoch ended. INSTR misses = 81, DATA misses = 74. Winner = DATA
[DUEL] Epoch ended. INSTR misses = 139, DATA misses = 160. Winner = INSTR
[DUEL] Epoch ended. INSTR misses = 97, DATA misses = 109. Winner = INSTR
[DUEL] Epoch ended. INSTR misses = 128, DATA misses = 148. Winner = INSTR
[DUEL] Epoch ended. INSTR misses = 101, DATA misses = 103. Winner = INSTR
[DUEL] Epoch ended. INSTR misses = 112, DATA misses = 108. Winner = DATA
Heartbeat CPU 0 instructions: 60000006 cycles: 50746202 heartbeat IPC: 0.63 cumulative IPC: 0.6558 (Simulation time: 00 hr 05 min 36 sec)
[DUEL] Epoch ended. INSTR misses = 101, DATA misses = 87. Winner = DATA
[DUEL] Epoch ended. INSTR misses = 120, DATA misses = 114. Winner = DATA
[DUEL] Epoch ended. INSTR misses = 108, DATA misses = 103. Winner = DATA
[DUEL] Epoch ended. INSTR misses = 131, DATA misses = 135. Winner = INSTR
[DUEL] Epoch ended. INSTR misses = 146, DATA misses = 168. Winner = INSTR
*** Reached end of trace: (0, "../traces/public_traces/compute_int/compute_int_23.champsimtrace.xz")
[DUEL] Epoch ended. INSTR misses = 38, DATA misses = 65. Winner = INSTR
[DUEL] Epoch ended. INSTR misses = 37, DATA misses = 47. Winner = INSTR
[DUEL] Epoch ended. INSTR misses = 32, DATA misses = 63. Winner = INSTR
[DUEL] Epoch ended. INSTR misses = 46, DATA misses = 52. Winner = INSTR
[DUEL] Epoch ended. INSTR misses = 53, DATA misses = 69. Winner = INSTR
[DUEL] Epoch ended. INSTR misses = 40, DATA misses = 52. Winner = INSTR
[DUEL] Epoch ended. INSTR misses = 46, DATA misses = 71. Winner = INSTR
[DUEL] Epoch ended. INSTR misses = 64, DATA misses = 51. Winner = DATA
[DUEL] Epoch ended. INSTR misses = 71, DATA misses = 84. Winner = INSTR
[DUEL] Epoch ended. INSTR misses = 71, DATA misses = 103. Winner = INSTR
[DUEL] Epoch ended. INSTR misses = 79, DATA misses = 70. Winner = DATA
[DUEL] Epoch ended. INSTR misses = 41, DATA misses = 59. Winner = INSTR
[DUEL] Epoch ended. INSTR misses = 68, DATA misses = 92. Winner = INSTR
[DUEL] Epoch ended. INSTR misses = 83, DATA misses = 89. Winner = INSTR
Heartbeat CPU 0 instructions: 70000004 cycles: 65156139 heartbeat IPC: 0.694 cumulative IPC: 0.6649 (Simulation time: 00 hr 07 min 00 sec)
[DUEL] Epoch ended. INSTR misses = 54, DATA misses = 74. Winner = INSTR
[DUEL] Epoch ended. INSTR misses = 74, DATA misses = 73. Winner = DATA
[DUEL] Epoch ended. INSTR misses = 96, DATA misses = 104. Winner = INSTR
[DUEL] Epoch ended. INSTR misses = 60, DATA misses = 84. Winner = INSTR
[DUEL] Epoch ended. INSTR misses = 141, DATA misses = 133. Winner = DATA
[DUEL] Epoch ended. INSTR misses = 121, DATA misses = 121. Winner = INSTR
[DUEL] Epoch ended. INSTR misses = 67, DATA misses = 69. Winner = INSTR
[DUEL] Epoch ended. INSTR misses = 77, DATA misses = 98. Winner = INSTR
[DUEL] Epoch ended. INSTR misses = 70, DATA misses = 66. Winner = DATA
[DUEL] Epoch ended. INSTR misses = 68, DATA misses = 75. Winner = INSTR
[DUEL] Epoch ended. INSTR misses = 105, DATA misses = 117. Winner = INSTR
[DUEL] Epoch ended. INSTR misses = 121, DATA misses = 110. Winner = DATA
[DUEL] Epoch ended. INSTR misses = 116, DATA misses = 125. Winner = INSTR
[DUEL] Epoch ended. INSTR misses = 96, DATA misses = 83. Winner = DATA
[DUEL] Epoch ended. INSTR misses = 75, DATA misses = 66. Winner = DATA
[DUEL] Epoch ended. INSTR misses = 95, DATA misses = 88. Winner = DATA
[DUEL] Epoch ended. INSTR misses = 92, DATA misses = 74. Winner = DATA
[DUEL] Epoch ended. INSTR misses = 71, DATA misses = 61. Winner = DATA
[DUEL] Epoch ended. INSTR misses = 89, DATA misses = 85. Winner = DATA
[DUEL] Epoch ended. INSTR misses = 69, DATA misses = 44. Winner = DATA
Heartbeat CPU 0 instructions: 80000001 cycles: 80035066 heartbeat IPC: 0.6721 cumulative IPC: 0.6664 (Simulation time: 00 hr 08 min 24 sec)
[DUEL] Epoch ended. INSTR misses = 106, DATA misses = 57. Winner = DATA
[DUEL] Epoch ended. INSTR misses = 120, DATA misses = 116. Winner = DATA
[DUEL] Epoch ended. INSTR misses = 87, DATA misses = 66. Winner = DATA
[DUEL] Epoch ended. INSTR misses = 84, DATA misses = 55. Winner = DATA
[DUEL] Epoch ended. INSTR misses = 118, DATA misses = 99. Winner = DATA
[DUEL] Epoch ended. INSTR misses = 130, DATA misses = 133. Winner = INSTR
[DUEL] Epoch ended. INSTR misses = 122, DATA misses = 91. Winner = DATA
[DUEL] Epoch ended. INSTR misses = 101, DATA misses = 100. Winner = DATA
[DUEL] Epoch ended. INSTR misses = 112, DATA misses = 78. Winner = DATA
[DUEL] Epoch ended. INSTR misses = 164, DATA misses = 155. Winner = DATA
[DUEL] Epoch ended. INSTR misses = 76, DATA misses = 96. Winner = INSTR
[DUEL] Epoch ended. INSTR misses = 84, DATA misses = 99. Winner = INSTR
[DUEL] Epoch ended. INSTR misses = 77, DATA misses = 79. Winner = INSTR
[DUEL] Epoch ended. INSTR misses = 98, DATA misses = 80. Winner = DATA
[DUEL] Epoch ended. INSTR misses = 107, DATA misses = 91. Winner = DATA
[DUEL] Epoch ended. INSTR misses = 93, DATA misses = 99. Winner = INSTR
[DUEL] Epoch ended. INSTR misses = 80, DATA misses = 87. Winner = INSTR
[DUEL] Epoch ended. INSTR misses = 128, DATA misses = 160. Winner = INSTR
[DUEL] Epoch ended. INSTR misses = 109, DATA misses = 104. Winner = DATA
Heartbeat CPU 0 instructions: 90000003 cycles: 95923886 heartbeat IPC: 0.6294 cumulative IPC: 0.6599 (Simulation time: 00 hr 09 min 54 sec)
[DUEL] Epoch ended. INSTR misses = 117, DATA misses = 137. Winner = INSTR
[DUEL] Epoch ended. INSTR misses = 124, DATA misses = 127. Winner = INSTR
[DUEL] Epoch ended. INSTR misses = 99, DATA misses = 100. Winner = INSTR
[DUEL] Epoch ended. INSTR misses = 117, DATA misses = 96. Winner = DATA
[DUEL] Epoch ended. INSTR misses = 119, DATA misses = 104. Winner = DATA
[DUEL] Epoch ended. INSTR misses = 102, DATA misses = 105. Winner = INSTR
[DUEL] Epoch ended. INSTR misses = 132, DATA misses = 141. Winner = INSTR
[DUEL] Epoch ended. INSTR misses = 134, DATA misses = 170. Winner = INSTR
*** Reached end of trace: (0, "../traces/public_traces/compute_int/compute_int_23.champsimtrace.xz")
[DUEL] Epoch ended. INSTR misses = 43, DATA misses = 72. Winner = INSTR
[DUEL] Epoch ended. INSTR misses = 36, DATA misses = 47. Winner = INSTR
[DUEL] Epoch ended. INSTR misses = 33, DATA misses = 65. Winner = INSTR
[DUEL] Epoch ended. INSTR misses = 49, DATA misses = 59. Winner = INSTR
[DUEL] Epoch ended. INSTR misses = 55, DATA misses = 62. Winner = INSTR
[DUEL] Epoch ended. INSTR misses = 44, DATA misses = 62. Winner = INSTR
[DUEL] Epoch ended. INSTR misses = 52, DATA misses = 71. Winner = INSTR
[DUEL] Epoch ended. INSTR misses = 58, DATA misses = 45. Winner = DATA
[DUEL] Epoch ended. INSTR misses = 82, DATA misses = 84. Winner = INSTR
[DUEL] Epoch ended. INSTR misses = 70, DATA misses = 99. Winner = INSTR
[DUEL] Epoch ended. INSTR misses = 85, DATA misses = 69. Winner = DATA
[DUEL] Epoch ended. INSTR misses = 34, DATA misses = 61. Winner = INSTR
Heartbeat CPU 0 instructions: 100000004 cycles: 110508239 heartbeat IPC: 0.6857 cumulative IPC: 0.6635 (Simulation time: 00 hr 11 min 18 sec)
[DUEL] Epoch ended. INSTR misses = 68, DATA misses = 86. Winner = INSTR
[DUEL] Epoch ended. INSTR misses = 78, DATA misses = 83. Winner = INSTR
[DUEL] Epoch ended. INSTR misses = 56, DATA misses = 79. Winner = INSTR
[DUEL] Epoch ended. INSTR misses = 71, DATA misses = 71. Winner = INSTR
[DUEL] Epoch ended. INSTR misses = 91, DATA misses = 111. Winner = INSTR
[DUEL] Epoch ended. INSTR misses = 56, DATA misses = 70. Winner = INSTR
[DUEL] Epoch ended. INSTR misses = 149, DATA misses = 145. Winner = DATA
[DUEL] Epoch ended. INSTR misses = 106, DATA misses = 120. Winner = INSTR
[DUEL] Epoch ended. INSTR misses = 83, DATA misses = 75. Winner = DATA
[DUEL] Epoch ended. INSTR misses = 63, DATA misses = 97. Winner = INSTR
[DUEL] Epoch ended. INSTR misses = 79, DATA misses = 71. Winner = DATA
[DUEL] Epoch ended. INSTR misses = 62, DATA misses = 66. Winner = INSTR
[DUEL] Epoch ended. INSTR misses = 104, DATA misses = 116. Winner = INSTR
[DUEL] Epoch ended. INSTR misses = 125, DATA misses = 122. Winner = DATA
[DUEL] Epoch ended. INSTR misses = 107, DATA misses = 119. Winner = INSTR
[DUEL] Epoch ended. INSTR misses = 92, DATA misses = 73. Winner = DATA
[DUEL] Epoch ended. INSTR misses = 78, DATA misses = 82. Winner = INSTR
[DUEL] Epoch ended. INSTR misses = 93, DATA misses = 93. Winner = INSTR
[DUEL] Epoch ended. INSTR misses = 94, DATA misses = 83. Winner = DATA
Heartbeat CPU 0 instructions: 110000006 cycles: 125167509 heartbeat IPC: 0.6822 cumulative IPC: 0.6657 (Simulation time: 00 hr 12 min 42 sec)
[DUEL] Epoch ended. INSTR misses = 74, DATA misses = 59. Winner = DATA
[DUEL] Epoch ended. INSTR misses = 103, DATA misses = 75. Winner = DATA
[DUEL] Epoch ended. INSTR misses = 75, DATA misses = 48. Winner = DATA
[DUEL] Epoch ended. INSTR misses = 106, DATA misses = 57. Winner = DATA
[DUEL] Epoch ended. INSTR misses = 112, DATA misses = 104. Winner = DATA
[DUEL] Epoch ended. INSTR misses = 69, DATA misses = 63. Winner = DATA
[DUEL] Epoch ended. INSTR misses = 86, DATA misses = 72. Winner = DATA
[DUEL] Epoch ended. INSTR misses = 114, DATA misses = 95. Winner = DATA
[DUEL] Epoch ended. INSTR misses = 120, DATA misses = 121. Winner = INSTR
[DUEL] Epoch ended. INSTR misses = 146, DATA misses = 116. Winner = DATA
[DUEL] Epoch ended. INSTR misses = 111, DATA misses = 93. Winner = DATA
[DUEL] Epoch ended. INSTR misses = 106, DATA misses = 77. Winner = DATA
[DUEL] Epoch ended. INSTR misses = 166, DATA misses = 145. Winner = DATA
[DUEL] Epoch ended. INSTR misses = 80, DATA misses = 104. Winner = INSTR
[DUEL] Epoch ended. INSTR misses = 77, DATA misses = 94. Winner = INSTR
[DUEL] Epoch ended. INSTR misses = 84, DATA misses = 91. Winner = INSTR
[DUEL] Epoch ended. INSTR misses = 80, DATA misses = 74. Winner = DATA
[DUEL] Epoch ended. INSTR misses = 121, DATA misses = 87. Winner = DATA
[DUEL] Epoch ended. INSTR misses = 90, DATA misses = 115. Winner = INSTR
[DUEL] Epoch ended. INSTR misses = 72, DATA misses = 79. Winner = INSTR
Heartbeat CPU 0 instructions: 120000010 cycles: 140945642 heartbeat IPC: 0.6338 cumulative IPC: 0.662 (Simulation time: 00 hr 14 min 11 sec)
[DUEL] Epoch ended. INSTR misses = 140, DATA misses = 162. Winner = INSTR
[DUEL] Epoch ended. INSTR misses = 108, DATA misses = 110. Winner = INSTR
[DUEL] Epoch ended. INSTR misses = 117, DATA misses = 130. Winner = INSTR
[DUEL] Epoch ended. INSTR misses = 120, DATA misses = 125. Winner = INSTR
[DUEL] Epoch ended. INSTR misses = 101, DATA misses = 105. Winner = INSTR
[DUEL] Epoch ended. INSTR misses = 110, DATA misses = 92. Winner = DATA
[DUEL] Epoch ended. INSTR misses = 112, DATA misses = 106. Winner = DATA
[DUEL] Epoch ended. INSTR misses = 107, DATA misses = 98. Winner = DATA
[DUEL] Epoch ended. INSTR misses = 132, DATA misses = 139. Winner = INSTR
[DUEL] Epoch ended. INSTR misses = 145, DATA misses = 170. Winner = INSTR
*** Reached end of trace: (0, "../traces/public_traces/compute_int/compute_int_23.champsimtrace.xz")
[DUEL] Epoch ended. INSTR misses = 54, DATA misses = 63. Winner = INSTR
[DUEL] Epoch ended. INSTR misses = 39, DATA misses = 51. Winner = INSTR
[DUEL] Epoch ended. INSTR misses = 36, DATA misses = 57. Winner = INSTR
[DUEL] Epoch ended. INSTR misses = 54, DATA misses = 63. Winner = INSTR
[DUEL] Epoch ended. INSTR misses = 49, DATA misses = 60. Winner = INSTR
[DUEL] Epoch ended. INSTR misses = 39, DATA misses = 47. Winner = INSTR
[DUEL] Epoch ended. INSTR misses = 60, DATA misses = 78. Winner = INSTR
[DUEL] Epoch ended. INSTR misses = 62, DATA misses = 46. Winner = DATA
[DUEL] Epoch ended. INSTR misses = 74, DATA misses = 85. Winner = INSTR
Heartbeat CPU 0 instructions: 130000000 cycles: 155628209 heartbeat IPC: 0.6811 cumulative IPC: 0.6639 (Simulation time: 00 hr 15 min 36 sec)
Simulation finished CPU 0 instructions: 100000007 cycles: 150627868 cumulative IPC: 0.6639 (Simulation time: 00 hr 15 min 36 sec)
Simulation complete CPU 0 instructions: 100000007 cycles: 150627868 cumulative IPC: 0.6639 (Simulation time: 00 hr 15 min 36 sec)

ChampSim completed all CPUs

=== Simulation ===
CPU 0 runs ../traces/public_traces/compute_int/compute_int_23.champsimtrace.xz
Region of Interest Statistics

CPU 0 cumulative IPC: 0.6639 instructions: 100000007 cycles: 150627868
CPU 0 Branch Prediction Accuracy: 91.01% MPKI: 13.94 Average ROB Occupancy at Mispredict: 89.93
Branch type MPKI
BRANCH_DIRECT_JUMP: 0
BRANCH_INDIRECT: 12.3
BRANCH_CONDITIONAL: 1.61
BRANCH_DIRECT_CALL: 0
BRANCH_INDIRECT_CALL: 0
BRANCH_RETURN: 0

LLC TOTAL        ACCESS:    5037724 HIT:     628707 MISS:    4409017
LLC LOAD         ACCESS:     419124 HIT:      71658 MISS:     347466
LLC RFO          ACCESS:      80207 HIT:       4947 MISS:      75260
LLC PREFETCH     ACCESS:    3509456 HIT:     245986 MISS:    3263470
LLC WRITE        ACCESS:     981291 HIT:     302041 MISS:     679250
LLC TRANSLATION  ACCESS:      47646 HIT:       4075 MISS:      43571
LLC PREFETCH REQUESTED:          0 ISSUED:          0 USEFUL:          0 USELESS:          0
LLC AVERAGE MISS LATENCY: 358.6 cycles
cpu0_DTLB TOTAL        ACCESS:   27726675 HIT:   26922243 MISS:     804432
cpu0_DTLB LOAD         ACCESS:   27726675 HIT:   26922243 MISS:     804432
cpu0_DTLB RFO          ACCESS:          0 HIT:          0 MISS:          0
cpu0_DTLB PREFETCH     ACCESS:          0 HIT:          0 MISS:          0
cpu0_DTLB WRITE        ACCESS:          0 HIT:          0 MISS:          0
cpu0_DTLB TRANSLATION  ACCESS:          0 HIT:          0 MISS:          0
cpu0_DTLB PREFETCH REQUESTED:          0 ISSUED:          0 USEFUL:          0 USELESS:          0
cpu0_DTLB AVERAGE MISS LATENCY: 29.81 cycles
cpu0_ITLB TOTAL        ACCESS:       8262 HIT:       8262 MISS:          0
cpu0_ITLB LOAD         ACCESS:       8262 HIT:       8262 MISS:          0
cpu0_ITLB RFO          ACCESS:          0 HIT:          0 MISS:          0
cpu0_ITLB PREFETCH     ACCESS:          0 HIT:          0 MISS:          0
cpu0_ITLB WRITE        ACCESS:          0 HIT:          0 MISS:          0
cpu0_ITLB TRANSLATION  ACCESS:          0 HIT:          0 MISS:          0
cpu0_ITLB PREFETCH REQUESTED:          0 ISSUED:          0 USEFUL:          0 USELESS:          0
cpu0_ITLB AVERAGE MISS LATENCY: -nan cycles
cpu0_L1D TOTAL        ACCESS:   43925659 HIT:   31573400 MISS:   12352259
cpu0_L1D LOAD         ACCESS:   16795177 HIT:   14543041 MISS:    2252136
cpu0_L1D RFO          ACCESS:          0 HIT:          0 MISS:          0
cpu0_L1D PREFETCH     ACCESS:   14582891 HIT:    4689028 MISS:    9893863
cpu0_L1D WRITE        ACCESS:   12246897 HIT:   12133630 MISS:     113267
cpu0_L1D TRANSLATION  ACCESS:     300694 HIT:     207701 MISS:      92993
cpu0_L1D PREFETCH REQUESTED:   15355954 ISSUED:   14582871 USEFUL:     717078 USELESS:     198855
cpu0_L1D AVERAGE MISS LATENCY: 29.17 cycles
cpu0_L1I TOTAL        ACCESS:      11995 HIT:      11995 MISS:          0
cpu0_L1I LOAD         ACCESS:       5963 HIT:       5963 MISS:          0
cpu0_L1I RFO          ACCESS:          0 HIT:          0 MISS:          0
cpu0_L1I PREFETCH     ACCESS:       6032 HIT:       6032 MISS:          0
cpu0_L1I WRITE        ACCESS:          0 HIT:          0 MISS:          0
cpu0_L1I TRANSLATION  ACCESS:          0 HIT:          0 MISS:          0
cpu0_L1I PREFETCH REQUESTED:       6826 ISSUED:       6032 USEFUL:          0 USELESS:          0
cpu0_L1I AVERAGE MISS LATENCY: -nan cycles
cpu0_L2C TOTAL        ACCESS:   21906274 HIT:   12726191 MISS:    9180083
cpu0_L2C LOAD         ACCESS:    1319903 HIT:     684165 MISS:     635738
cpu0_L2C RFO          ACCESS:      89286 HIT:       9019 MISS:      80267
cpu0_L2C PREFETCH     ACCESS:   19414330 HIT:   10997903 MISS:    8416427
cpu0_L2C WRITE        ACCESS:     997794 HIT:     997789 MISS:          5
cpu0_L2C TRANSLATION  ACCESS:      84961 HIT:      37315 MISS:      47646
cpu0_L2C PREFETCH REQUESTED:   10525566 ISSUED:   10254593 USEFUL:     738337 USELESS:    1162499
cpu0_L2C AVERAGE MISS LATENCY: 176.2 cycles
cpu0_STLB TOTAL        ACCESS:     570340 HIT:     273646 MISS:     296694
cpu0_STLB LOAD         ACCESS:     570340 HIT:     273646 MISS:     296694
cpu0_STLB RFO          ACCESS:          0 HIT:          0 MISS:          0
cpu0_STLB PREFETCH     ACCESS:          0 HIT:          0 MISS:          0
cpu0_STLB WRITE        ACCESS:          0 HIT:          0 MISS:          0
cpu0_STLB TRANSLATION  ACCESS:          0 HIT:          0 MISS:          0
cpu0_STLB PREFETCH REQUESTED:          0 ISSUED:          0 USEFUL:          0 USELESS:          0
cpu0_STLB AVERAGE MISS LATENCY: 79.98 cycles

DRAM Statistics

Channel 0 RQ ROW_BUFFER_HIT:     795948
  ROW_BUFFER_MISS:    1120228
 AVG DBUS CONGESTED CYCLE: 3.949
WQ ROW_BUFFER_HIT: Channel 0 
  ROW_BUFFER_MISS:       5516
  FULL:     410058

Channel 1 RQ ROW_BUFFER_HIT:     766693
  ROW_BUFFER_MISS:    1046825
 AVG DBUS CONGESTED CYCLE: 3.918
WQ ROW_BUFFER_HIT: Channel 1 
  ROW_BUFFER_MISS:      25710
  FULL:     309841
BERTI TO_L1: 3473080 TO_L2: 15627734 TO_L2_BC_MSHR: 386712
BERTI AVG_LAT: 124.931 NUM_TRACK_LATENCY: 2914398 NUM_CANT_TRACK_LATENCY: 12
BERTI CROSS_PAGE 11425781 NO_CROSS_PAGE: 7675033
BERTI FOUND_BERTI: 14151214 NO_FOUND_BERTI: 7664168
BERTI AVERAGE_ISSUED: 2.57801
CPU 0 L1I Entangling prefetcher final stats
IP accesses: 46d8 11b600 70 / 5963
IP misses: 0 0 0 / 0
IP hits: 0 0 0 / 0
IP late: 0 0 0 / 0
IP wrong: 0 0 0 / 0
miss rate: 0
coverage: -nan
coverage_late: -nan
accuracy: -nan
accuracy_late: -nan
discarded: 0
evicts entangled j table: 0
evicts entangled k table: 0
max bb size: 11
formats: 0 0 0 0 0 0 0 
hist_lookups: 0 0 0 0 0 0 0 0 0 0 0 0 0 0 0 0 0 135 
hist_lookups_evict: 0 %
hist_lookups_shortlat: 100 %
bb_found_hist: 0 1137 480 172 80 13 50 13 0 0 0 10 0 0 0 0 0 0 0 0 0 0 0 0 0 0 0 0 0 0 0 0 0 0 0 0 0 0 0 0 0 0 0 0 0 0 0 0 0 0 0 0 0 0 0 0 0 0 0 0 0 0 0 0 
bb_found_summary: 3499 1955 1.78977
entangled_found_hist: 0 515 149 176 30 0 0 0 
entangled_found_summary: 1461 870 1.67932
bb_ent_found_hist: 0 423 295 111 0 32 60 0 0 0 0 0 0 0 0 0 0 0 0 0 0 0 0 0 0 0 0 0 0 0 0 0 0 0 0 0 0 0 0 0 0 0 0 0 0 0 0 0 0 0 0 0 0 0 0 0 0 0 0 0 0 0 0 0 
bb_ent_found_summary: 1866 921 2.02606
