WARNING: physical memory size is smaller than virtual memory size.

*** ChampSim Multicore Out-of-Order Simulator ***
Warmup Instructions: 30000000
Simulation Instructions: 100000000
Number of CPUs: 1
Page size: 4096

BTB:
Basic BTB sets: 1024 ways: 8
Indirect:
history lengths: 0 0 10 16 27 44 60 96 109 219 449 487 714 1313 2146 3881 
ITTAGE tables: 64768 bytes;Region table: 240 bytes;IUM: 384 bytes;Total Storage= 65392 bytes;
RAS:
RAS size: 64
[LLC] INSTR Demand IPV: 1 2 2 1 4 Prefetch IPV: 1 2 1 1 4
[LLC] DATA  Demand IPV: 1 1 1 2 4 Prefetch IPV: 1 1 2 2 4
Berti Prefetcher
CPU 0 Entangling prefetcher
Off-chip DRAM Size: 8 GiB Channels: 2 Width: 64-bit Data Race: 6400 MT/s
[DUEL] Epoch ended. INSTR misses = 1, DATA misses = 4. Winner = INSTR
[DUEL] Epoch ended. INSTR misses = 45, DATA misses = 32. Winner = DATA
[DUEL] Epoch ended. INSTR misses = 13, DATA misses = 11. Winner = DATA
[DUEL] Epoch ended. INSTR misses = 27, DATA misses = 18. Winner = DATA
[DUEL] Epoch ended. INSTR misses = 4, DATA misses = 7. Winner = INSTR
[DUEL] Epoch ended. INSTR misses = 9, DATA misses = 7. Winner = DATA
[DUEL] Epoch ended. INSTR misses = 10, DATA misses = 9. Winner = DATA
[DUEL] Epoch ended. INSTR misses = 42, DATA misses = 31. Winner = DATA
[DUEL] Epoch ended. INSTR misses = 30, DATA misses = 58. Winner = INSTR
[DUEL] Epoch ended. INSTR misses = 38, DATA misses = 40. Winner = INSTR
[DUEL] Epoch ended. INSTR misses = 62, DATA misses = 58. Winner = DATA
[DUEL] Epoch ended. INSTR misses = 9, DATA misses = 7. Winner = DATA
[DUEL] Epoch ended. INSTR misses = 3, DATA misses = 10. Winner = INSTR
[DUEL] Epoch ended. INSTR misses = 45, DATA misses = 47. Winner = INSTR
[DUEL] Epoch ended. INSTR misses = 21, DATA misses = 19. Winner = DATA
[DUEL] Epoch ended. INSTR misses = 33, DATA misses = 53. Winner = INSTR
[DUEL] Epoch ended. INSTR misses = 7, DATA misses = 4. Winner = DATA
[DUEL] Epoch ended. INSTR misses = 20, DATA misses = 17. Winner = DATA
[DUEL] Epoch ended. INSTR misses = 5, DATA misses = 5. Winner = INSTR
Heartbeat CPU 0 instructions: 10000008 cycles: 1667374 heartbeat IPC: 5.997 cumulative IPC: 5.997 (Simulation time: 00 hr 00 min 21 sec)
[DUEL] Epoch ended. INSTR misses = 32, DATA misses = 20. Winner = DATA
[DUEL] Epoch ended. INSTR misses = 6, DATA misses = 4. Winner = DATA
[DUEL] Epoch ended. INSTR misses = 5, DATA misses = 0. Winner = DATA
[DUEL] Epoch ended. INSTR misses = 8, DATA misses = 1. Winner = DATA
[DUEL] Epoch ended. INSTR misses = 20, DATA misses = 12. Winner = DATA
[DUEL] Epoch ended. INSTR misses = 16, DATA misses = 20. Winner = INSTR
[DUEL] Epoch ended. INSTR misses = 2, DATA misses = 4. Winner = INSTR
[DUEL] Epoch ended. INSTR misses = 0, DATA misses = 0. Winner = INSTR
[DUEL] Epoch ended. INSTR misses = 2, DATA misses = 3. Winner = INSTR
[DUEL] Epoch ended. INSTR misses = 3, DATA misses = 3. Winner = INSTR
[DUEL] Epoch ended. INSTR misses = 20, DATA misses = 17. Winner = DATA
[DUEL] Epoch ended. INSTR misses = 0, DATA misses = 2. Winner = INSTR
[DUEL] Epoch ended. INSTR misses = 7, DATA misses = 3. Winner = DATA
[DUEL] Epoch ended. INSTR misses = 1, DATA misses = 3. Winner = INSTR
[DUEL] Epoch ended. INSTR misses = 6, DATA misses = 15. Winner = INSTR
[DUEL] Epoch ended. INSTR misses = 0, DATA misses = 6. Winner = INSTR
[DUEL] Epoch ended. INSTR misses = 5, DATA misses = 0. Winner = DATA
[DUEL] Epoch ended. INSTR misses = 5, DATA misses = 13. Winner = INSTR
[DUEL] Epoch ended. INSTR misses = 10, DATA misses = 7. Winner = DATA
Heartbeat CPU 0 instructions: 20000001 cycles: 3334546 heartbeat IPC: 5.998 cumulative IPC: 5.998 (Simulation time: 00 hr 00 min 42 sec)
[DUEL] Epoch ended. INSTR misses = 6, DATA misses = 6. Winner = INSTR
[DUEL] Epoch ended. INSTR misses = 10, DATA misses = 10. Winner = INSTR
[DUEL] Epoch ended. INSTR misses = 20, DATA misses = 33. Winner = INSTR
[DUEL] Epoch ended. INSTR misses = 0, DATA misses = 0. Winner = INSTR
[DUEL] Epoch ended. INSTR misses = 1, DATA misses = 0. Winner = DATA
[DUEL] Epoch ended. INSTR misses = 28, DATA misses = 38. Winner = INSTR
[DUEL] Epoch ended. INSTR misses = 0, DATA misses = 1. Winner = INSTR
[DUEL] Epoch ended. INSTR misses = 10, DATA misses = 9. Winner = DATA
[DUEL] Epoch ended. INSTR misses = 34, DATA misses = 39. Winner = INSTR
[DUEL] Epoch ended. INSTR misses = 13, DATA misses = 13. Winner = INSTR
[DUEL] Epoch ended. INSTR misses = 3, DATA misses = 1. Winner = DATA
[DUEL] Epoch ended. INSTR misses = 4, DATA misses = 11. Winner = INSTR
[DUEL] Epoch ended. INSTR misses = 14, DATA misses = 18. Winner = INSTR
[DUEL] Epoch ended. INSTR misses = 18, DATA misses = 15. Winner = DATA
[DUEL] Epoch ended. INSTR misses = 34, DATA misses = 49. Winner = INSTR
[DUEL] Epoch ended. INSTR misses = 11, DATA misses = 10. Winner = DATA
[DUEL] Epoch ended. INSTR misses = 17, DATA misses = 11. Winner = DATA
[DUEL] Epoch ended. INSTR misses = 1, DATA misses = 8. Winner = INSTR
[DUEL] Epoch ended. INSTR misses = 5, DATA misses = 2. Winner = DATA
[DUEL] Epoch ended. INSTR misses = 1, DATA misses = 1. Winner = INSTR
Heartbeat CPU 0 instructions: 30000008 cycles: 5001774 heartbeat IPC: 5.998 cumulative IPC: 5.998 (Simulation time: 00 hr 01 min 03 sec)
Warmup finished CPU 0 instructions: 30000008 cycles: 5001775 cumulative IPC: 5.998 (Simulation time: 00 hr 01 min 03 sec)
Warmup complete CPU 0 instructions: 30000008 cycles: 5001775 cumulative IPC: 5.998 (Simulation time: 00 hr 01 min 03 sec)
*** Reached end of trace: (0, "../traces/public_traces/compute_int/compute_int_46.champsimtrace.xz")
[DUEL] Epoch ended. INSTR misses = 2, DATA misses = 6. Winner = INSTR
[DUEL] Epoch ended. INSTR misses = 0, DATA misses = 3. Winner = INSTR
[DUEL] Epoch ended. INSTR misses = 25, DATA misses = 21. Winner = DATA
[DUEL] Epoch ended. INSTR misses = 20, DATA misses = 11. Winner = DATA
[DUEL] Epoch ended. INSTR misses = 25, DATA misses = 18. Winner = DATA
[DUEL] Epoch ended. INSTR misses = 5, DATA misses = 10. Winner = INSTR
[DUEL] Epoch ended. INSTR misses = 2, DATA misses = 7. Winner = INSTR
[DUEL] Epoch ended. INSTR misses = 13, DATA misses = 12. Winner = DATA
[DUEL] Epoch ended. INSTR misses = 29, DATA misses = 25. Winner = DATA
[DUEL] Epoch ended. INSTR misses = 24, DATA misses = 39. Winner = INSTR
[DUEL] Epoch ended. INSTR misses = 44, DATA misses = 48. Winner = INSTR
[DUEL] Epoch ended. INSTR misses = 47, DATA misses = 44. Winner = DATA
[DUEL] Epoch ended. INSTR misses = 1, DATA misses = 0. Winner = DATA
[DUEL] Epoch ended. INSTR misses = 10, DATA misses = 15. Winner = INSTR
[DUEL] Epoch ended. INSTR misses = 35, DATA misses = 36. Winner = INSTR
[DUEL] Epoch ended. INSTR misses = 22, DATA misses = 20. Winner = DATA
[DUEL] Epoch ended. INSTR misses = 21, DATA misses = 40. Winner = INSTR
[DUEL] Epoch ended. INSTR misses = 9, DATA misses = 9. Winner = INSTR
[DUEL] Epoch ended. INSTR misses = 11, DATA misses = 9. Winner = DATA
Heartbeat CPU 0 instructions: 40000000 cycles: 14070517 heartbeat IPC: 1.103 cumulative IPC: 1.103 (Simulation time: 00 hr 01 min 55 sec)
[DUEL] Epoch ended. INSTR misses = 20, DATA misses = 9. Winner = DATA
[DUEL] Epoch ended. INSTR misses = 19, DATA misses = 11. Winner = DATA
[DUEL] Epoch ended. INSTR misses = 0, DATA misses = 0. Winner = INSTR
[DUEL] Epoch ended. INSTR misses = 3, DATA misses = 0. Winner = DATA
[DUEL] Epoch ended. INSTR misses = 11, DATA misses = 0. Winner = DATA
[DUEL] Epoch ended. INSTR misses = 12, DATA misses = 13. Winner = INSTR
[DUEL] Epoch ended. INSTR misses = 17, DATA misses = 11. Winner = DATA
[DUEL] Epoch ended. INSTR misses = 0, DATA misses = 1. Winner = INSTR
[DUEL] Epoch ended. INSTR misses = 0, DATA misses = 0. Winner = INSTR
[DUEL] Epoch ended. INSTR misses = 1, DATA misses = 1. Winner = INSTR
[DUEL] Epoch ended. INSTR misses = 14, DATA misses = 13. Winner = DATA
[DUEL] Epoch ended. INSTR misses = 4, DATA misses = 1. Winner = DATA
[DUEL] Epoch ended. INSTR misses = 0, DATA misses = 3. Winner = INSTR
[DUEL] Epoch ended. INSTR misses = 5, DATA misses = 2. Winner = DATA
[DUEL] Epoch ended. INSTR misses = 0, DATA misses = 12. Winner = INSTR
[DUEL] Epoch ended. INSTR misses = 4, DATA misses = 8. Winner = INSTR
[DUEL] Epoch ended. INSTR misses = 0, DATA misses = 5. Winner = INSTR
[DUEL] Epoch ended. INSTR misses = 3, DATA misses = 0. Winner = DATA
[DUEL] Epoch ended. INSTR misses = 3, DATA misses = 8. Winner = INSTR
[DUEL] Epoch ended. INSTR misses = 16, DATA misses = 8. Winner = DATA
Heartbeat CPU 0 instructions: 50000010 cycles: 19074859 heartbeat IPC: 1.998 cumulative IPC: 1.421 (Simulation time: 00 hr 02 min 31 sec)
[DUEL] Epoch ended. INSTR misses = 1, DATA misses = 4. Winner = INSTR
[DUEL] Epoch ended. INSTR misses = 11, DATA misses = 14. Winner = INSTR
[DUEL] Epoch ended. INSTR misses = 12, DATA misses = 25. Winner = INSTR
[DUEL] Epoch ended. INSTR misses = 0, DATA misses = 0. Winner = INSTR
[DUEL] Epoch ended. INSTR misses = 0, DATA misses = 0. Winner = INSTR
[DUEL] Epoch ended. INSTR misses = 26, DATA misses = 31. Winner = INSTR
[DUEL] Epoch ended. INSTR misses = 0, DATA misses = 0. Winner = INSTR
[DUEL] Epoch ended. INSTR misses = 20, DATA misses = 17. Winner = DATA
[DUEL] Epoch ended. INSTR misses = 22, DATA misses = 31. Winner = INSTR
[DUEL] Epoch ended. INSTR misses = 7, DATA misses = 6. Winner = DATA
[DUEL] Epoch ended. INSTR misses = 3, DATA misses = 3. Winner = INSTR
[DUEL] Epoch ended. INSTR misses = 11, DATA misses = 8. Winner = DATA
[DUEL] Epoch ended. INSTR misses = 15, DATA misses = 18. Winner = INSTR
[DUEL] Epoch ended. INSTR misses = 16, DATA misses = 21. Winner = INSTR
[DUEL] Epoch ended. INSTR misses = 23, DATA misses = 33. Winner = INSTR
[DUEL] Epoch ended. INSTR misses = 8, DATA misses = 12. Winner = INSTR
[DUEL] Epoch ended. INSTR misses = 10, DATA misses = 13. Winner = INSTR
[DUEL] Epoch ended. INSTR misses = 1, DATA misses = 2. Winner = INSTR
[DUEL] Epoch ended. INSTR misses = 4, DATA misses = 0. Winner = DATA
Heartbeat CPU 0 instructions: 60000001 cycles: 25413738 heartbeat IPC: 1.578 cumulative IPC: 1.47 (Simulation time: 00 hr 03 min 12 sec)
[DUEL] Epoch ended. INSTR misses = 2, DATA misses = 6. Winner = INSTR
*** Reached end of trace: (0, "../traces/public_traces/compute_int/compute_int_46.champsimtrace.xz")
[DUEL] Epoch ended. INSTR misses = 1, DATA misses = 1. Winner = INSTR
[DUEL] Epoch ended. INSTR misses = 1, DATA misses = 4. Winner = INSTR
[DUEL] Epoch ended. INSTR misses = 27, DATA misses = 18. Winner = DATA
[DUEL] Epoch ended. INSTR misses = 22, DATA misses = 15. Winner = DATA
[DUEL] Epoch ended. INSTR misses = 16, DATA misses = 14. Winner = DATA
[DUEL] Epoch ended. INSTR misses = 5, DATA misses = 7. Winner = INSTR
[DUEL] Epoch ended. INSTR misses = 2, DATA misses = 7. Winner = INSTR
[DUEL] Epoch ended. INSTR misses = 18, DATA misses = 17. Winner = DATA
[DUEL] Epoch ended. INSTR misses = 33, DATA misses = 32. Winner = DATA
[DUEL] Epoch ended. INSTR misses = 24, DATA misses = 36. Winner = INSTR
[DUEL] Epoch ended. INSTR misses = 61, DATA misses = 52. Winner = DATA
[DUEL] Epoch ended. INSTR misses = 23, DATA misses = 29. Winner = INSTR
[DUEL] Epoch ended. INSTR misses = 4, DATA misses = 2. Winner = DATA
[DUEL] Epoch ended. INSTR misses = 19, DATA misses = 23. Winner = INSTR
[DUEL] Epoch ended. INSTR misses = 22, DATA misses = 21. Winner = DATA
[DUEL] Epoch ended. INSTR misses = 29, DATA misses = 45. Winner = INSTR
[DUEL] Epoch ended. INSTR misses = 12, DATA misses = 13. Winner = INSTR
[DUEL] Epoch ended. INSTR misses = 10, DATA misses = 13. Winner = INSTR
Heartbeat CPU 0 instructions: 70000001 cycles: 34113848 heartbeat IPC: 1.149 cumulative IPC: 1.374 (Simulation time: 00 hr 04 min 03 sec)
[DUEL] Epoch ended. INSTR misses = 12, DATA misses = 7. Winner = DATA
[DUEL] Epoch ended. INSTR misses = 27, DATA misses = 16. Winner = DATA
[DUEL] Epoch ended. INSTR misses = 6, DATA misses = 3. Winner = DATA
[DUEL] Epoch ended. INSTR misses = 0, DATA misses = 0. Winner = INSTR
[DUEL] Epoch ended. INSTR misses = 5, DATA misses = 0. Winner = DATA
[DUEL] Epoch ended. INSTR misses = 10, DATA misses = 5. Winner = DATA
[DUEL] Epoch ended. INSTR misses = 10, DATA misses = 10. Winner = INSTR
[DUEL] Epoch ended. INSTR misses = 13, DATA misses = 10. Winner = DATA
[DUEL] Epoch ended. INSTR misses = 0, DATA misses = 0. Winner = INSTR
[DUEL] Epoch ended. INSTR misses = 1, DATA misses = 0. Winner = DATA
[DUEL] Epoch ended. INSTR misses = 0, DATA misses = 1. Winner = INSTR
[DUEL] Epoch ended. INSTR misses = 15, DATA misses = 12. Winner = DATA
[DUEL] Epoch ended. INSTR misses = 0, DATA misses = 0. Winner = INSTR
[DUEL] Epoch ended. INSTR misses = 4, DATA misses = 3. Winner = DATA
[DUEL] Epoch ended. INSTR misses = 1, DATA misses = 4. Winner = INSTR
[DUEL] Epoch ended. INSTR misses = 2, DATA misses = 17. Winner = INSTR
[DUEL] Epoch ended. INSTR misses = 1, DATA misses = 0. Winner = DATA
[DUEL] Epoch ended. INSTR misses = 0, DATA misses = 4. Winner = INSTR
[DUEL] Epoch ended. INSTR misses = 3, DATA misses = 0. Winner = DATA
[DUEL] Epoch ended. INSTR misses = 4, DATA misses = 8. Winner = INSTR
Heartbeat CPU 0 instructions: 80000005 cycles: 38908982 heartbeat IPC: 2.085 cumulative IPC: 1.475 (Simulation time: 00 hr 04 min 38 sec)
[DUEL] Epoch ended. INSTR misses = 15, DATA misses = 8. Winner = DATA
[DUEL] Epoch ended. INSTR misses = 0, DATA misses = 4. Winner = INSTR
[DUEL] Epoch ended. INSTR misses = 11, DATA misses = 16. Winner = INSTR
[DUEL] Epoch ended. INSTR misses = 11, DATA misses = 21. Winner = INSTR
[DUEL] Epoch ended. INSTR misses = 0, DATA misses = 0. Winner = INSTR
[DUEL] Epoch ended. INSTR misses = 0, DATA misses = 0. Winner = INSTR
[DUEL] Epoch ended. INSTR misses = 25, DATA misses = 31. Winner = INSTR
[DUEL] Epoch ended. INSTR misses = 0, DATA misses = 2. Winner = INSTR
[DUEL] Epoch ended. INSTR misses = 22, DATA misses = 21. Winner = DATA
[DUEL] Epoch ended. INSTR misses = 23, DATA misses = 26. Winner = INSTR
[DUEL] Epoch ended. INSTR misses = 4, DATA misses = 4. Winner = INSTR
[DUEL] Epoch ended. INSTR misses = 4, DATA misses = 6. Winner = INSTR
[DUEL] Epoch ended. INSTR misses = 12, DATA misses = 7. Winner = DATA
[DUEL] Epoch ended. INSTR misses = 9, DATA misses = 15. Winner = INSTR
[DUEL] Epoch ended. INSTR misses = 20, DATA misses = 23. Winner = INSTR
[DUEL] Epoch ended. INSTR misses = 22, DATA misses = 32. Winner = INSTR
[DUEL] Epoch ended. INSTR misses = 4, DATA misses = 6. Winner = INSTR
[DUEL] Epoch ended. INSTR misses = 7, DATA misses = 11. Winner = INSTR
[DUEL] Epoch ended. INSTR misses = 4, DATA misses = 2. Winner = DATA
Heartbeat CPU 0 instructions: 90000004 cycles: 45229348 heartbeat IPC: 1.582 cumulative IPC: 1.492 (Simulation time: 00 hr 05 min 19 sec)
[DUEL] Epoch ended. INSTR misses = 1, DATA misses = 0. Winner = DATA
[DUEL] Epoch ended. INSTR misses = 2, DATA misses = 6. Winner = INSTR
*** Reached end of trace: (0, "../traces/public_traces/compute_int/compute_int_46.champsimtrace.xz")
[DUEL] Epoch ended. INSTR misses = 1, DATA misses = 4. Winner = INSTR
[DUEL] Epoch ended. INSTR misses = 6, DATA misses = 6. Winner = INSTR
[DUEL] Epoch ended. INSTR misses = 23, DATA misses = 15. Winner = DATA
[DUEL] Epoch ended. INSTR misses = 25, DATA misses = 15. Winner = DATA
[DUEL] Epoch ended. INSTR misses = 10, DATA misses = 12. Winner = INSTR
[DUEL] Epoch ended. INSTR misses = 3, DATA misses = 8. Winner = INSTR
[DUEL] Epoch ended. INSTR misses = 6, DATA misses = 6. Winner = INSTR
[DUEL] Epoch ended. INSTR misses = 27, DATA misses = 27. Winner = INSTR
[DUEL] Epoch ended. INSTR misses = 20, DATA misses = 30. Winner = INSTR
[DUEL] Epoch ended. INSTR misses = 23, DATA misses = 34. Winner = INSTR
[DUEL] Epoch ended. INSTR misses = 57, DATA misses = 55. Winner = DATA
[DUEL] Epoch ended. INSTR misses = 15, DATA misses = 14. Winner = DATA
[DUEL] Epoch ended. INSTR misses = 4, DATA misses = 5. Winner = INSTR
[DUEL] Epoch ended. INSTR misses = 21, DATA misses = 23. Winner = INSTR
[DUEL] Epoch ended. INSTR misses = 21, DATA misses = 19. Winner = DATA
[DUEL] Epoch ended. INSTR misses = 32, DATA misses = 50. Winner = INSTR
[DUEL] Epoch ended. INSTR misses = 4, DATA misses = 7. Winner = INSTR
[DUEL] Epoch ended. INSTR misses = 10, DATA misses = 14. Winner = INSTR
Heartbeat CPU 0 instructions: 100000005 cycles: 53662417 heartbeat IPC: 1.186 cumulative IPC: 1.439 (Simulation time: 00 hr 06 min 08 sec)
[DUEL] Epoch ended. INSTR misses = 11, DATA misses = 3. Winner = DATA
[DUEL] Epoch ended. INSTR misses = 25, DATA misses = 16. Winner = DATA
[DUEL] Epoch ended. INSTR misses = 6, DATA misses = 4. Winner = DATA
[DUEL] Epoch ended. INSTR misses = 1, DATA misses = 0. Winner = DATA
[DUEL] Epoch ended. INSTR misses = 4, DATA misses = 0. Winner = DATA
[DUEL] Epoch ended. INSTR misses = 11, DATA misses = 7. Winner = DATA
[DUEL] Epoch ended. INSTR misses = 13, DATA misses = 12. Winner = DATA
[DUEL] Epoch ended. INSTR misses = 9, DATA misses = 5. Winner = DATA
[DUEL] Epoch ended. INSTR misses = 0, DATA misses = 0. Winner = INSTR
[DUEL] Epoch ended. INSTR misses = 1, DATA misses = 0. Winner = DATA
[DUEL] Epoch ended. INSTR misses = 0, DATA misses = 1. Winner = INSTR
[DUEL] Epoch ended. INSTR misses = 15, DATA misses = 12. Winner = DATA
[DUEL] Epoch ended. INSTR misses = 0, DATA misses = 0. Winner = INSTR
[DUEL] Epoch ended. INSTR misses = 5, DATA misses = 5. Winner = INSTR
[DUEL] Epoch ended. INSTR misses = 0, DATA misses = 2. Winner = INSTR
[DUEL] Epoch ended. INSTR misses = 2, DATA misses = 17. Winner = INSTR
[DUEL] Epoch ended. INSTR misses = 1, DATA misses = 0. Winner = DATA
[DUEL] Epoch ended. INSTR misses = 3, DATA misses = 3. Winner = INSTR
[DUEL] Epoch ended. INSTR misses = 0, DATA misses = 0. Winner = INSTR
Heartbeat CPU 0 instructions: 110000000 cycles: 58381797 heartbeat IPC: 2.119 cumulative IPC: 1.499 (Simulation time: 00 hr 06 min 43 sec)
[DUEL] Epoch ended. INSTR misses = 6, DATA misses = 8. Winner = INSTR
[DUEL] Epoch ended. INSTR misses = 13, DATA misses = 7. Winner = DATA
[DUEL] Epoch ended. INSTR misses = 0, DATA misses = 4. Winner = INSTR
[DUEL] Epoch ended. INSTR misses = 17, DATA misses = 28. Winner = INSTR
[DUEL] Epoch ended. INSTR misses = 5, DATA misses = 8. Winner = INSTR
[DUEL] Epoch ended. INSTR misses = 0, DATA misses = 0. Winner = INSTR
[DUEL] Epoch ended. INSTR misses = 3, DATA misses = 2. Winner = DATA
[DUEL] Epoch ended. INSTR misses = 20, DATA misses = 29. Winner = INSTR
[DUEL] Epoch ended. INSTR misses = 0, DATA misses = 4. Winner = INSTR
[DUEL] Epoch ended. INSTR misses = 25, DATA misses = 22. Winner = DATA
[DUEL] Epoch ended. INSTR misses = 19, DATA misses = 21. Winner = INSTR
[DUEL] Epoch ended. INSTR misses = 4, DATA misses = 3. Winner = DATA
[DUEL] Epoch ended. INSTR misses = 4, DATA misses = 6. Winner = INSTR
[DUEL] Epoch ended. INSTR misses = 10, DATA misses = 7. Winner = DATA
[DUEL] Epoch ended. INSTR misses = 12, DATA misses = 14. Winner = INSTR
[DUEL] Epoch ended. INSTR misses = 26, DATA misses = 29. Winner = INSTR
[DUEL] Epoch ended. INSTR misses = 13, DATA misses = 25. Winner = INSTR
[DUEL] Epoch ended. INSTR misses = 3, DATA misses = 6. Winner = INSTR
[DUEL] Epoch ended. INSTR misses = 3, DATA misses = 10. Winner = INSTR
Heartbeat CPU 0 instructions: 120000001 cycles: 64642562 heartbeat IPC: 1.597 cumulative IPC: 1.509 (Simulation time: 00 hr 07 min 23 sec)
[DUEL] Epoch ended. INSTR misses = 4, DATA misses = 2. Winner = DATA
[DUEL] Epoch ended. INSTR misses = 0, DATA misses = 0. Winner = INSTR
[DUEL] Epoch ended. INSTR misses = 3, DATA misses = 5. Winner = INSTR
*** Reached end of trace: (0, "../traces/public_traces/compute_int/compute_int_46.champsimtrace.xz")
[DUEL] Epoch ended. INSTR misses = 0, DATA misses = 4. Winner = INSTR
[DUEL] Epoch ended. INSTR misses = 24, DATA misses = 17. Winner = DATA
[DUEL] Epoch ended. INSTR misses = 11, DATA misses = 8. Winner = DATA
[DUEL] Epoch ended. INSTR misses = 23, DATA misses = 16. Winner = DATA
[DUEL] Epoch ended. INSTR misses = 4, DATA misses = 7. Winner = INSTR
[DUEL] Epoch ended. INSTR misses = 3, DATA misses = 5. Winner = INSTR
[DUEL] Epoch ended. INSTR misses = 6, DATA misses = 10. Winner = INSTR
[DUEL] Epoch ended. INSTR misses = 31, DATA misses = 23. Winner = DATA
[DUEL] Epoch ended. INSTR misses = 18, DATA misses = 43. Winner = INSTR
[DUEL] Epoch ended. INSTR misses = 27, DATA misses = 32. Winner = INSTR
[DUEL] Epoch ended. INSTR misses = 59, DATA misses = 50. Winner = DATA
[DUEL] Epoch ended. INSTR misses = 7, DATA misses = 9. Winner = INSTR
[DUEL] Epoch ended. INSTR misses = 4, DATA misses = 5. Winner = INSTR
[DUEL] Epoch ended. INSTR misses = 26, DATA misses = 30. Winner = INSTR
[DUEL] Epoch ended. INSTR misses = 22, DATA misses = 18. Winner = DATA
[DUEL] Epoch ended. INSTR misses = 25, DATA misses = 49. Winner = INSTR
[DUEL] Epoch ended. INSTR misses = 4, DATA misses = 2. Winner = DATA
Heartbeat CPU 0 instructions: 130000002 cycles: 72840995 heartbeat IPC: 1.22 cumulative IPC: 1.474 (Simulation time: 00 hr 08 min 11 sec)
Simulation finished CPU 0 instructions: 100000000 cycles: 67839233 cumulative IPC: 1.474 (Simulation time: 00 hr 08 min 11 sec)
Simulation complete CPU 0 instructions: 100000000 cycles: 67839233 cumulative IPC: 1.474 (Simulation time: 00 hr 08 min 11 sec)

ChampSim completed all CPUs

=== Simulation ===
CPU 0 runs ../traces/public_traces/compute_int/compute_int_46.champsimtrace.xz
Region of Interest Statistics

CPU 0 cumulative IPC: 1.474 instructions: 100000000 cycles: 67839233
CPU 0 Branch Prediction Accuracy: 95.66% MPKI: 7.323 Average ROB Occupancy at Mispredict: 34.12
Branch type MPKI
BRANCH_DIRECT_JUMP: 0
BRANCH_INDIRECT: 0.563
BRANCH_CONDITIONAL: 6.76
BRANCH_DIRECT_CALL: 0
BRANCH_INDIRECT_CALL: 0.00012
BRANCH_RETURN: 0

LLC TOTAL        ACCESS:    1017986 HIT:     362913 MISS:     655073
LLC LOAD         ACCESS:     290052 HIT:     104173 MISS:     185879
LLC RFO          ACCESS:      21052 HIT:      14821 MISS:       6231
LLC PREFETCH     ACCESS:     308341 HIT:      75753 MISS:     232588
LLC WRITE        ACCESS:     214771 HIT:     151833 MISS:      62938
LLC TRANSLATION  ACCESS:     183770 HIT:      16333 MISS:     167437
LLC PREFETCH REQUESTED:          0 ISSUED:          0 USEFUL:          0 USELESS:          0
LLC AVERAGE MISS LATENCY: 157.9 cycles
cpu0_DTLB TOTAL        ACCESS:   16572238 HIT:   15964491 MISS:     607747
cpu0_DTLB LOAD         ACCESS:   16572238 HIT:   15964491 MISS:     607747
cpu0_DTLB RFO          ACCESS:          0 HIT:          0 MISS:          0
cpu0_DTLB PREFETCH     ACCESS:          0 HIT:          0 MISS:          0
cpu0_DTLB WRITE        ACCESS:          0 HIT:          0 MISS:          0
cpu0_DTLB TRANSLATION  ACCESS:          0 HIT:          0 MISS:          0
cpu0_DTLB PREFETCH REQUESTED:          0 ISSUED:          0 USEFUL:          0 USELESS:          0
cpu0_DTLB AVERAGE MISS LATENCY: 65 cycles
cpu0_ITLB TOTAL        ACCESS:     939948 HIT:     939948 MISS:          0
cpu0_ITLB LOAD         ACCESS:     939948 HIT:     939948 MISS:          0
cpu0_ITLB RFO          ACCESS:          0 HIT:          0 MISS:          0
cpu0_ITLB PREFETCH     ACCESS:          0 HIT:          0 MISS:          0
cpu0_ITLB WRITE        ACCESS:          0 HIT:          0 MISS:          0
cpu0_ITLB TRANSLATION  ACCESS:          0 HIT:          0 MISS:          0
cpu0_ITLB PREFETCH REQUESTED:          0 ISSUED:          0 USEFUL:          0 USELESS:          0
cpu0_ITLB AVERAGE MISS LATENCY: -nan cycles
cpu0_L1D TOTAL        ACCESS:   23259258 HIT:   21967296 MISS:    1291962
cpu0_L1D LOAD         ACCESS:   19274766 HIT:   18372337 MISS:     902429
cpu0_L1D RFO          ACCESS:          0 HIT:          0 MISS:          0
cpu0_L1D PREFETCH     ACCESS:     330658 HIT:     270508 MISS:      60150
cpu0_L1D WRITE        ACCESS:    3357057 HIT:    3268194 MISS:      88863
cpu0_L1D TRANSLATION  ACCESS:     296777 HIT:      56257 MISS:     240520
cpu0_L1D PREFETCH REQUESTED:     500962 ISSUED:     330658 USEFUL:       2520 USELESS:       1252
cpu0_L1D AVERAGE MISS LATENCY: 62.24 cycles
cpu0_L1I TOTAL        ACCESS:    1544269 HIT:    1540137 MISS:       4132
cpu0_L1I LOAD         ACCESS:     307082 HIT:     305586 MISS:       1496
cpu0_L1I RFO          ACCESS:          0 HIT:          0 MISS:          0
cpu0_L1I PREFETCH     ACCESS:    1237187 HIT:    1234551 MISS:       2636
cpu0_L1I WRITE        ACCESS:          0 HIT:          0 MISS:          0
cpu0_L1I TRANSLATION  ACCESS:          0 HIT:          0 MISS:          0
cpu0_L1I PREFETCH REQUESTED:    1737493 ISSUED:    1237187 USEFUL:       2167 USELESS:         41
cpu0_L1I AVERAGE MISS LATENCY: 98.48 cycles
cpu0_L2C TOTAL        ACCESS:    1837114 HIT:    1022946 MISS:     814168
cpu0_L2C LOAD         ACCESS:     533966 HIT:     243187 MISS:     290779
cpu0_L2C RFO          ACCESS:      61463 HIT:      40404 MISS:      21059
cpu0_L2C PREFETCH     ACCESS:     641196 HIT:     322783 MISS:     318413
cpu0_L2C WRITE        ACCESS:     360397 HIT:     360251 MISS:        146
cpu0_L2C TRANSLATION  ACCESS:     240092 HIT:      56321 MISS:     183771
cpu0_L2C PREFETCH REQUESTED:     590108 ISSUED:     585054 USEFUL:      31605 USELESS:     269260
cpu0_L2C AVERAGE MISS LATENCY: 147.4 cycles
cpu0_STLB TOTAL        ACCESS:     405529 HIT:     204856 MISS:     200673
cpu0_STLB LOAD         ACCESS:     405529 HIT:     204856 MISS:     200673
cpu0_STLB RFO          ACCESS:          0 HIT:          0 MISS:          0
cpu0_STLB PREFETCH     ACCESS:          0 HIT:          0 MISS:          0
cpu0_STLB WRITE        ACCESS:          0 HIT:          0 MISS:          0
cpu0_STLB TRANSLATION  ACCESS:          0 HIT:          0 MISS:          0
cpu0_STLB PREFETCH REQUESTED:          0 ISSUED:          0 USEFUL:          0 USELESS:          0
cpu0_STLB AVERAGE MISS LATENCY: 182.3 cycles

DRAM Statistics

Channel 0 RQ ROW_BUFFER_HIT:      41396
  ROW_BUFFER_MISS:     254931
 AVG DBUS CONGESTED CYCLE: 3.72
WQ ROW_BUFFER_HIT: Channel 0 
  ROW_BUFFER_MISS:      17398
  FULL:      32513

Channel 1 RQ ROW_BUFFER_HIT:      40998
  ROW_BUFFER_MISS:     254808
 AVG DBUS CONGESTED CYCLE: 3.718
WQ ROW_BUFFER_HIT: Channel 1 
  ROW_BUFFER_MISS:      17240
  FULL:      32911
BERTI TO_L1: 356617 TO_L2: 284383 TO_L2_BC_MSHR: 544
BERTI AVG_LAT: 66.7129 NUM_TRACK_LATENCY: 692928 NUM_CANT_TRACK_LATENCY: 0
BERTI CROSS_PAGE 82459 NO_CROSS_PAGE: 558541
BERTI FOUND_BERTI: 8024959 NO_FOUND_BERTI: 16982416
BERTI AVERAGE_ISSUED: 2.52418
CPU 0 L1I Entangling prefetcher final stats
IP accesses: 2e0 b800 26740 / 307160
IP misses: 562b 158ac0 51 / 1574
IP hits: 0 0 0 / 0
IP late: 2a7 a9c0 7 / 764
IP wrong: 80 2000 9 / 40
miss rate: 0.00512437
coverage: 0
coverage_late: 0.485388
accuracy: 0
accuracy_late: 0.950249
discarded: 0
evicts entangled j table: 0
evicts entangled k table: 43
max bb size: 22
formats: 24 0 50 20 10 21 0 
hist_lookups: 30 43 24 25 21 20 23 30 27 21 15 11 4 5 1 0 0 526 
hist_lookups_evict: 0 %
hist_lookups_shortlat: 63.6804 %
bb_found_hist: 0 21249 38064 27855 24134 5690 23706 5810 20532 15666 335 4444 1551 1106 372 188 0 0 0 0 5891 0 5469 0 0 0 0 0 0 0 0 0 0 0 0 0 0 0 0 0 0 0 0 0 0 0 0 0 0 0 0 0 0 0 0 0 0 0 0 0 0 0 0 0 
bb_found_summary: 1125474 202062 5.56995
entangled_found_hist: 0 38514 25025 1560 5112 1301 255 0 
entangled_found_summary: 121727 71767 1.69615
bb_ent_found_hist: 0 20345 33682 4113 3185 6416 20685 9541 995 243 26 1844 707 5592 1009 0 0 0 0 0 0 0 1496 0 0 0 0 0 0 0 0 0 0 0 0 0 0 0 0 0 0 0 0 0 0 0 0 0 0 0 0 0 0 0 0 0 0 0 0 0 0 0 0 0 
bb_ent_found_summary: 494674 109879 4.50199
