WARNING: physical memory size is smaller than virtual memory size.

*** ChampSim Multicore Out-of-Order Simulator ***
Warmup Instructions: 30000000
Simulation Instructions: 100000000
Number of CPUs: 1
Page size: 4096

BTB:
Basic BTB sets: 1024 ways: 8
Indirect:
history lengths: 0 0 10 16 27 44 60 96 109 219 449 487 714 1313 2146 3881 
ITTAGE tables: 64768 bytes;Region table: 240 bytes;IUM: 384 bytes;Total Storage= 65392 bytes;
RAS:
RAS size: 64
[LLC] INSTR Demand IPV: 1 2 2 1 4 Prefetch IPV: 1 2 1 1 4
[LLC] DATA  Demand IPV: 1 1 1 2 4 Prefetch IPV: 1 1 2 2 4
Berti Prefetcher
CPU 0 Entangling prefetcher
Off-chip DRAM Size: 8 GiB Channels: 2 Width: 64-bit Data Race: 6400 MT/s
[DUEL] Epoch ended. INSTR misses = 2, DATA misses = 0. Winner = DATA
[DUEL] Epoch ended. INSTR misses = 16, DATA misses = 16. Winner = INSTR
[DUEL] Epoch ended. INSTR misses = 17, DATA misses = 16. Winner = DATA
[DUEL] Epoch ended. INSTR misses = 5, DATA misses = 0. Winner = DATA
[DUEL] Epoch ended. INSTR misses = 0, DATA misses = 0. Winner = INSTR
[DUEL] Epoch ended. INSTR misses = 0, DATA misses = 0. Winner = INSTR
[DUEL] Epoch ended. INSTR misses = 0, DATA misses = 7. Winner = INSTR
[DUEL] Epoch ended. INSTR misses = 16, DATA misses = 16. Winner = INSTR
[DUEL] Epoch ended. INSTR misses = 0, DATA misses = 2. Winner = INSTR
[DUEL] Epoch ended. INSTR misses = 0, DATA misses = 0. Winner = INSTR
[DUEL] Epoch ended. INSTR misses = 3, DATA misses = 0. Winner = DATA
[DUEL] Epoch ended. INSTR misses = 9, DATA misses = 5. Winner = DATA
[DUEL] Epoch ended. INSTR misses = 0, DATA misses = 0. Winner = INSTR
[DUEL] Epoch ended. INSTR misses = 0, DATA misses = 0. Winner = INSTR
[DUEL] Epoch ended. INSTR misses = 3, DATA misses = 0. Winner = DATA
[DUEL] Epoch ended. INSTR misses = 0, DATA misses = 2. Winner = INSTR
[DUEL] Epoch ended. INSTR misses = 9, DATA misses = 6. Winner = DATA
[DUEL] Epoch ended. INSTR misses = 4, DATA misses = 0. Winner = DATA
Heartbeat CPU 0 instructions: 10000003 cycles: 1832249 heartbeat IPC: 5.458 cumulative IPC: 5.458 (Simulation time: 00 hr 00 min 24 sec)
[DUEL] Epoch ended. INSTR misses = 0, DATA misses = 0. Winner = INSTR
[DUEL] Epoch ended. INSTR misses = 1, DATA misses = 0. Winner = DATA
[DUEL] Epoch ended. INSTR misses = 0, DATA misses = 0. Winner = INSTR
[DUEL] Epoch ended. INSTR misses = 31, DATA misses = 32. Winner = INSTR
[DUEL] Epoch ended. INSTR misses = 0, DATA misses = 1. Winner = INSTR
[DUEL] Epoch ended. INSTR misses = 0, DATA misses = 0. Winner = INSTR
[DUEL] Epoch ended. INSTR misses = 0, DATA misses = 0. Winner = INSTR
[DUEL] Epoch ended. INSTR misses = 0, DATA misses = 0. Winner = INSTR
[DUEL] Epoch ended. INSTR misses = 0, DATA misses = 0. Winner = INSTR
[DUEL] Epoch ended. INSTR misses = 0, DATA misses = 0. Winner = INSTR
[DUEL] Epoch ended. INSTR misses = 0, DATA misses = 3. Winner = INSTR
[DUEL] Epoch ended. INSTR misses = 0, DATA misses = 0. Winner = INSTR
[DUEL] Epoch ended. INSTR misses = 0, DATA misses = 0. Winner = INSTR
[DUEL] Epoch ended. INSTR misses = 0, DATA misses = 0. Winner = INSTR
[DUEL] Epoch ended. INSTR misses = 0, DATA misses = 0. Winner = INSTR
[DUEL] Epoch ended. INSTR misses = 0, DATA misses = 0. Winner = INSTR
[DUEL] Epoch ended. INSTR misses = 0, DATA misses = 0. Winner = INSTR
[DUEL] Epoch ended. INSTR misses = 0, DATA misses = 0. Winner = INSTR
[DUEL] Epoch ended. INSTR misses = 0, DATA misses = 0. Winner = INSTR
Heartbeat CPU 0 instructions: 20000001 cycles: 3575068 heartbeat IPC: 5.738 cumulative IPC: 5.594 (Simulation time: 00 hr 00 min 46 sec)
[DUEL] Epoch ended. INSTR misses = 0, DATA misses = 0. Winner = INSTR
[DUEL] Epoch ended. INSTR misses = 0, DATA misses = 0. Winner = INSTR
[DUEL] Epoch ended. INSTR misses = 0, DATA misses = 0. Winner = INSTR
[DUEL] Epoch ended. INSTR misses = 0, DATA misses = 0. Winner = INSTR
[DUEL] Epoch ended. INSTR misses = 0, DATA misses = 0. Winner = INSTR
[DUEL] Epoch ended. INSTR misses = 0, DATA misses = 0. Winner = INSTR
[DUEL] Epoch ended. INSTR misses = 0, DATA misses = 0. Winner = INSTR
[DUEL] Epoch ended. INSTR misses = 0, DATA misses = 0. Winner = INSTR
[DUEL] Epoch ended. INSTR misses = 0, DATA misses = 0. Winner = INSTR
[DUEL] Epoch ended. INSTR misses = 0, DATA misses = 0. Winner = INSTR
[DUEL] Epoch ended. INSTR misses = 0, DATA misses = 0. Winner = INSTR
[DUEL] Epoch ended. INSTR misses = 0, DATA misses = 0. Winner = INSTR
[DUEL] Epoch ended. INSTR misses = 0, DATA misses = 0. Winner = INSTR
[DUEL] Epoch ended. INSTR misses = 0, DATA misses = 0. Winner = INSTR
[DUEL] Epoch ended. INSTR misses = 0, DATA misses = 0. Winner = INSTR
[DUEL] Epoch ended. INSTR misses = 0, DATA misses = 0. Winner = INSTR
[DUEL] Epoch ended. INSTR misses = 1, DATA misses = 0. Winner = DATA
[DUEL] Epoch ended. INSTR misses = 0, DATA misses = 0. Winner = INSTR
[DUEL] Epoch ended. INSTR misses = 1, DATA misses = 0. Winner = DATA
Heartbeat CPU 0 instructions: 30000003 cycles: 5298862 heartbeat IPC: 5.801 cumulative IPC: 5.662 (Simulation time: 00 hr 01 min 08 sec)
Warmup finished CPU 0 instructions: 30000003 cycles: 5298863 cumulative IPC: 5.662 (Simulation time: 00 hr 01 min 08 sec)
Warmup complete CPU 0 instructions: 30000003 cycles: 5298863 cumulative IPC: 5.662 (Simulation time: 00 hr 01 min 08 sec)
[DUEL] Epoch ended. INSTR misses = 0, DATA misses = 0. Winner = INSTR
[DUEL] Epoch ended. INSTR misses = 0, DATA misses = 0. Winner = INSTR
[DUEL] Epoch ended. INSTR misses = 0, DATA misses = 0. Winner = INSTR
[DUEL] Epoch ended. INSTR misses = 0, DATA misses = 0. Winner = INSTR
[DUEL] Epoch ended. INSTR misses = 1, DATA misses = 0. Winner = DATA
[DUEL] Epoch ended. INSTR misses = 0, DATA misses = 0. Winner = INSTR
[DUEL] Epoch ended. INSTR misses = 0, DATA misses = 0. Winner = INSTR
[DUEL] Epoch ended. INSTR misses = 0, DATA misses = 0. Winner = INSTR
*** Reached end of trace: (0, "../traces/public_traces/compute_int/compute_int_25.champsimtrace.xz")
[DUEL] Epoch ended. INSTR misses = 0, DATA misses = 0. Winner = INSTR
[DUEL] Epoch ended. INSTR misses = 0, DATA misses = 0. Winner = INSTR
[DUEL] Epoch ended. INSTR misses = 0, DATA misses = 0. Winner = INSTR
[DUEL] Epoch ended. INSTR misses = 0, DATA misses = 0. Winner = INSTR
[DUEL] Epoch ended. INSTR misses = 4, DATA misses = 0. Winner = DATA
[DUEL] Epoch ended. INSTR misses = 0, DATA misses = 0. Winner = INSTR
[DUEL] Epoch ended. INSTR misses = 0, DATA misses = 0. Winner = INSTR
[DUEL] Epoch ended. INSTR misses = 0, DATA misses = 0. Winner = INSTR
[DUEL] Epoch ended. INSTR misses = 0, DATA misses = 0. Winner = INSTR
[DUEL] Epoch ended. INSTR misses = 0, DATA misses = 0. Winner = INSTR
[DUEL] Epoch ended. INSTR misses = 0, DATA misses = 0. Winner = INSTR
Heartbeat CPU 0 instructions: 40000003 cycles: 7649634 heartbeat IPC: 4.254 cumulative IPC: 4.254 (Simulation time: 00 hr 01 min 41 sec)
[DUEL] Epoch ended. INSTR misses = 0, DATA misses = 0. Winner = INSTR
[DUEL] Epoch ended. INSTR misses = 7, DATA misses = 11. Winner = INSTR
[DUEL] Epoch ended. INSTR misses = 0, DATA misses = 0. Winner = INSTR
[DUEL] Epoch ended. INSTR misses = 0, DATA misses = 0. Winner = INSTR
[DUEL] Epoch ended. INSTR misses = 0, DATA misses = 0. Winner = INSTR
[DUEL] Epoch ended. INSTR misses = 1, DATA misses = 0. Winner = DATA
[DUEL] Epoch ended. INSTR misses = 2, DATA misses = 3. Winner = INSTR
[DUEL] Epoch ended. INSTR misses = 0, DATA misses = 0. Winner = INSTR
[DUEL] Epoch ended. INSTR misses = 0, DATA misses = 0. Winner = INSTR
[DUEL] Epoch ended. INSTR misses = 0, DATA misses = 0. Winner = INSTR
[DUEL] Epoch ended. INSTR misses = 0, DATA misses = 0. Winner = INSTR
[DUEL] Epoch ended. INSTR misses = 0, DATA misses = 0. Winner = INSTR
[DUEL] Epoch ended. INSTR misses = 0, DATA misses = 0. Winner = INSTR
[DUEL] Epoch ended. INSTR misses = 0, DATA misses = 0. Winner = INSTR
[DUEL] Epoch ended. INSTR misses = 0, DATA misses = 0. Winner = INSTR
[DUEL] Epoch ended. INSTR misses = 0, DATA misses = 0. Winner = INSTR
[DUEL] Epoch ended. INSTR misses = 0, DATA misses = 0. Winner = INSTR
[DUEL] Epoch ended. INSTR misses = 0, DATA misses = 0. Winner = INSTR
[DUEL] Epoch ended. INSTR misses = 0, DATA misses = 0. Winner = INSTR
Heartbeat CPU 0 instructions: 50000002 cycles: 9968312 heartbeat IPC: 4.313 cumulative IPC: 4.283 (Simulation time: 00 hr 02 min 14 sec)
[DUEL] Epoch ended. INSTR misses = 0, DATA misses = 0. Winner = INSTR
[DUEL] Epoch ended. INSTR misses = 0, DATA misses = 0. Winner = INSTR
[DUEL] Epoch ended. INSTR misses = 0, DATA misses = 0. Winner = INSTR
[DUEL] Epoch ended. INSTR misses = 0, DATA misses = 0. Winner = INSTR
[DUEL] Epoch ended. INSTR misses = 0, DATA misses = 0. Winner = INSTR
[DUEL] Epoch ended. INSTR misses = 0, DATA misses = 0. Winner = INSTR
[DUEL] Epoch ended. INSTR misses = 0, DATA misses = 0. Winner = INSTR
[DUEL] Epoch ended. INSTR misses = 0, DATA misses = 0. Winner = INSTR
[DUEL] Epoch ended. INSTR misses = 0, DATA misses = 0. Winner = INSTR
[DUEL] Epoch ended. INSTR misses = 0, DATA misses = 0. Winner = INSTR
[DUEL] Epoch ended. INSTR misses = 0, DATA misses = 0. Winner = INSTR
[DUEL] Epoch ended. INSTR misses = 0, DATA misses = 0. Winner = INSTR
[DUEL] Epoch ended. INSTR misses = 0, DATA misses = 0. Winner = INSTR
[DUEL] Epoch ended. INSTR misses = 0, DATA misses = 0. Winner = INSTR
[DUEL] Epoch ended. INSTR misses = 0, DATA misses = 0. Winner = INSTR
[DUEL] Epoch ended. INSTR misses = 0, DATA misses = 0. Winner = INSTR
[DUEL] Epoch ended. INSTR misses = 0, DATA misses = 0. Winner = INSTR
[DUEL] Epoch ended. INSTR misses = 0, DATA misses = 0. Winner = INSTR
[DUEL] Epoch ended. INSTR misses = 0, DATA misses = 0. Winner = INSTR
Heartbeat CPU 0 instructions: 60000007 cycles: 12280723 heartbeat IPC: 4.324 cumulative IPC: 4.297 (Simulation time: 00 hr 02 min 46 sec)
[DUEL] Epoch ended. INSTR misses = 0, DATA misses = 0. Winner = INSTR
[DUEL] Epoch ended. INSTR misses = 0, DATA misses = 0. Winner = INSTR
[DUEL] Epoch ended. INSTR misses = 0, DATA misses = 0. Winner = INSTR
[DUEL] Epoch ended. INSTR misses = 0, DATA misses = 0. Winner = INSTR
[DUEL] Epoch ended. INSTR misses = 0, DATA misses = 0. Winner = INSTR
[DUEL] Epoch ended. INSTR misses = 0, DATA misses = 0. Winner = INSTR
[DUEL] Epoch ended. INSTR misses = 0, DATA misses = 0. Winner = INSTR
[DUEL] Epoch ended. INSTR misses = 0, DATA misses = 0. Winner = INSTR
[DUEL] Epoch ended. INSTR misses = 0, DATA misses = 0. Winner = INSTR
[DUEL] Epoch ended. INSTR misses = 0, DATA misses = 0. Winner = INSTR
[DUEL] Epoch ended. INSTR misses = 0, DATA misses = 0. Winner = INSTR
[DUEL] Epoch ended. INSTR misses = 0, DATA misses = 0. Winner = INSTR
[DUEL] Epoch ended. INSTR misses = 0, DATA misses = 0. Winner = INSTR
[DUEL] Epoch ended. INSTR misses = 0, DATA misses = 0. Winner = INSTR
[DUEL] Epoch ended. INSTR misses = 0, DATA misses = 0. Winner = INSTR
[DUEL] Epoch ended. INSTR misses = 0, DATA misses = 0. Winner = INSTR
*** Reached end of trace: (0, "../traces/public_traces/compute_int/compute_int_25.champsimtrace.xz")
[DUEL] Epoch ended. INSTR misses = 0, DATA misses = 0. Winner = INSTR
[DUEL] Epoch ended. INSTR misses = 2, DATA misses = 0. Winner = DATA
[DUEL] Epoch ended. INSTR misses = 0, DATA misses = 0. Winner = INSTR
Heartbeat CPU 0 instructions: 70000004 cycles: 14596976 heartbeat IPC: 4.317 cumulative IPC: 4.302 (Simulation time: 00 hr 03 min 19 sec)
[DUEL] Epoch ended. INSTR misses = 0, DATA misses = 0. Winner = INSTR
[DUEL] Epoch ended. INSTR misses = 0, DATA misses = 0. Winner = INSTR
[DUEL] Epoch ended. INSTR misses = 0, DATA misses = 0. Winner = INSTR
[DUEL] Epoch ended. INSTR misses = 0, DATA misses = 0. Winner = INSTR
[DUEL] Epoch ended. INSTR misses = 0, DATA misses = 0. Winner = INSTR
[DUEL] Epoch ended. INSTR misses = 0, DATA misses = 0. Winner = INSTR
[DUEL] Epoch ended. INSTR misses = 0, DATA misses = 0. Winner = INSTR
[DUEL] Epoch ended. INSTR misses = 1, DATA misses = 0. Winner = DATA
[DUEL] Epoch ended. INSTR misses = 0, DATA misses = 0. Winner = INSTR
[DUEL] Epoch ended. INSTR misses = 0, DATA misses = 0. Winner = INSTR
[DUEL] Epoch ended. INSTR misses = 0, DATA misses = 0. Winner = INSTR
[DUEL] Epoch ended. INSTR misses = 0, DATA misses = 0. Winner = INSTR
[DUEL] Epoch ended. INSTR misses = 0, DATA misses = 0. Winner = INSTR
[DUEL] Epoch ended. INSTR misses = 0, DATA misses = 0. Winner = INSTR
[DUEL] Epoch ended. INSTR misses = 1, DATA misses = 1. Winner = INSTR
[DUEL] Epoch ended. INSTR misses = 0, DATA misses = 0. Winner = INSTR
[DUEL] Epoch ended. INSTR misses = 0, DATA misses = 0. Winner = INSTR
[DUEL] Epoch ended. INSTR misses = 0, DATA misses = 0. Winner = INSTR
[DUEL] Epoch ended. INSTR misses = 0, DATA misses = 0. Winner = INSTR
Heartbeat CPU 0 instructions: 80000004 cycles: 16909490 heartbeat IPC: 4.324 cumulative IPC: 4.306 (Simulation time: 00 hr 03 min 52 sec)
[DUEL] Epoch ended. INSTR misses = 0, DATA misses = 0. Winner = INSTR
[DUEL] Epoch ended. INSTR misses = 0, DATA misses = 0. Winner = INSTR
[DUEL] Epoch ended. INSTR misses = 0, DATA misses = 0. Winner = INSTR
[DUEL] Epoch ended. INSTR misses = 0, DATA misses = 0. Winner = INSTR
[DUEL] Epoch ended. INSTR misses = 0, DATA misses = 0. Winner = INSTR
[DUEL] Epoch ended. INSTR misses = 0, DATA misses = 0. Winner = INSTR
[DUEL] Epoch ended. INSTR misses = 0, DATA misses = 0. Winner = INSTR
[DUEL] Epoch ended. INSTR misses = 0, DATA misses = 0. Winner = INSTR
[DUEL] Epoch ended. INSTR misses = 0, DATA misses = 0. Winner = INSTR
[DUEL] Epoch ended. INSTR misses = 0, DATA misses = 0. Winner = INSTR
[DUEL] Epoch ended. INSTR misses = 0, DATA misses = 0. Winner = INSTR
[DUEL] Epoch ended. INSTR misses = 0, DATA misses = 0. Winner = INSTR
[DUEL] Epoch ended. INSTR misses = 0, DATA misses = 0. Winner = INSTR
[DUEL] Epoch ended. INSTR misses = 0, DATA misses = 0. Winner = INSTR
[DUEL] Epoch ended. INSTR misses = 0, DATA misses = 0. Winner = INSTR
[DUEL] Epoch ended. INSTR misses = 0, DATA misses = 0. Winner = INSTR
[DUEL] Epoch ended. INSTR misses = 0, DATA misses = 0. Winner = INSTR
[DUEL] Epoch ended. INSTR misses = 0, DATA misses = 0. Winner = INSTR
Heartbeat CPU 0 instructions: 90000002 cycles: 19218462 heartbeat IPC: 4.331 cumulative IPC: 4.31 (Simulation time: 00 hr 04 min 24 sec)
[DUEL] Epoch ended. INSTR misses = 0, DATA misses = 0. Winner = INSTR
[DUEL] Epoch ended. INSTR misses = 0, DATA misses = 0. Winner = INSTR
[DUEL] Epoch ended. INSTR misses = 0, DATA misses = 0. Winner = INSTR
[DUEL] Epoch ended. INSTR misses = 0, DATA misses = 0. Winner = INSTR
[DUEL] Epoch ended. INSTR misses = 0, DATA misses = 0. Winner = INSTR
[DUEL] Epoch ended. INSTR misses = 0, DATA misses = 0. Winner = INSTR
[DUEL] Epoch ended. INSTR misses = 0, DATA misses = 0. Winner = INSTR
[DUEL] Epoch ended. INSTR misses = 0, DATA misses = 0. Winner = INSTR
[DUEL] Epoch ended. INSTR misses = 0, DATA misses = 0. Winner = INSTR
[DUEL] Epoch ended. INSTR misses = 0, DATA misses = 0. Winner = INSTR
[DUEL] Epoch ended. INSTR misses = 0, DATA misses = 0. Winner = INSTR
[DUEL] Epoch ended. INSTR misses = 0, DATA misses = 0. Winner = INSTR
[DUEL] Epoch ended. INSTR misses = 0, DATA misses = 0. Winner = INSTR
[DUEL] Epoch ended. INSTR misses = 0, DATA misses = 0. Winner = INSTR
[DUEL] Epoch ended. INSTR misses = 0, DATA misses = 0. Winner = INSTR
[DUEL] Epoch ended. INSTR misses = 0, DATA misses = 0. Winner = INSTR
[DUEL] Epoch ended. INSTR misses = 0, DATA misses = 0. Winner = INSTR
[DUEL] Epoch ended. INSTR misses = 0, DATA misses = 0. Winner = INSTR
[DUEL] Epoch ended. INSTR misses = 0, DATA misses = 0. Winner = INSTR
Heartbeat CPU 0 instructions: 100000004 cycles: 21532915 heartbeat IPC: 4.321 cumulative IPC: 4.312 (Simulation time: 00 hr 04 min 57 sec)
[DUEL] Epoch ended. INSTR misses = 0, DATA misses = 0. Winner = INSTR
[DUEL] Epoch ended. INSTR misses = 0, DATA misses = 0. Winner = INSTR
[DUEL] Epoch ended. INSTR misses = 0, DATA misses = 0. Winner = INSTR
[DUEL] Epoch ended. INSTR misses = 0, DATA misses = 0. Winner = INSTR
[DUEL] Epoch ended. INSTR misses = 0, DATA misses = 0. Winner = INSTR
*** Reached end of trace: (0, "../traces/public_traces/compute_int/compute_int_25.champsimtrace.xz")
[DUEL] Epoch ended. INSTR misses = 0, DATA misses = 0. Winner = INSTR
[DUEL] Epoch ended. INSTR misses = 0, DATA misses = 0. Winner = INSTR
[DUEL] Epoch ended. INSTR misses = 1, DATA misses = 0. Winner = DATA
[DUEL] Epoch ended. INSTR misses = 0, DATA misses = 0. Winner = INSTR
[DUEL] Epoch ended. INSTR misses = 0, DATA misses = 0. Winner = INSTR
[DUEL] Epoch ended. INSTR misses = 0, DATA misses = 0. Winner = INSTR
[DUEL] Epoch ended. INSTR misses = 0, DATA misses = 0. Winner = INSTR
[DUEL] Epoch ended. INSTR misses = 0, DATA misses = 0. Winner = INSTR
[DUEL] Epoch ended. INSTR misses = 0, DATA misses = 0. Winner = INSTR
[DUEL] Epoch ended. INSTR misses = 0, DATA misses = 0. Winner = INSTR
[DUEL] Epoch ended. INSTR misses = 0, DATA misses = 0. Winner = INSTR
[DUEL] Epoch ended. INSTR misses = 0, DATA misses = 0. Winner = INSTR
[DUEL] Epoch ended. INSTR misses = 0, DATA misses = 0. Winner = INSTR
[DUEL] Epoch ended. INSTR misses = 0, DATA misses = 0. Winner = INSTR
[DUEL] Epoch ended. INSTR misses = 0, DATA misses = 0. Winner = INSTR
Heartbeat CPU 0 instructions: 110000010 cycles: 23838750 heartbeat IPC: 4.337 cumulative IPC: 4.315 (Simulation time: 00 hr 05 min 30 sec)
[DUEL] Epoch ended. INSTR misses = 0, DATA misses = 0. Winner = INSTR
[DUEL] Epoch ended. INSTR misses = 0, DATA misses = 0. Winner = INSTR
[DUEL] Epoch ended. INSTR misses = 3, DATA misses = 2. Winner = DATA
[DUEL] Epoch ended. INSTR misses = 0, DATA misses = 0. Winner = INSTR
[DUEL] Epoch ended. INSTR misses = 0, DATA misses = 0. Winner = INSTR
[DUEL] Epoch ended. INSTR misses = 0, DATA misses = 0. Winner = INSTR
[DUEL] Epoch ended. INSTR misses = 0, DATA misses = 0. Winner = INSTR
[DUEL] Epoch ended. INSTR misses = 0, DATA misses = 0. Winner = INSTR
[DUEL] Epoch ended. INSTR misses = 0, DATA misses = 0. Winner = INSTR
[DUEL] Epoch ended. INSTR misses = 0, DATA misses = 0. Winner = INSTR
[DUEL] Epoch ended. INSTR misses = 0, DATA misses = 0. Winner = INSTR
[DUEL] Epoch ended. INSTR misses = 0, DATA misses = 0. Winner = INSTR
[DUEL] Epoch ended. INSTR misses = 0, DATA misses = 0. Winner = INSTR
[DUEL] Epoch ended. INSTR misses = 0, DATA misses = 0. Winner = INSTR
[DUEL] Epoch ended. INSTR misses = 0, DATA misses = 0. Winner = INSTR
[DUEL] Epoch ended. INSTR misses = 0, DATA misses = 0. Winner = INSTR
[DUEL] Epoch ended. INSTR misses = 0, DATA misses = 0. Winner = INSTR
[DUEL] Epoch ended. INSTR misses = 0, DATA misses = 0. Winner = INSTR
Heartbeat CPU 0 instructions: 120000001 cycles: 26151124 heartbeat IPC: 4.325 cumulative IPC: 4.316 (Simulation time: 00 hr 06 min 03 sec)
[DUEL] Epoch ended. INSTR misses = 0, DATA misses = 0. Winner = INSTR
[DUEL] Epoch ended. INSTR misses = 0, DATA misses = 0. Winner = INSTR
[DUEL] Epoch ended. INSTR misses = 0, DATA misses = 0. Winner = INSTR
[DUEL] Epoch ended. INSTR misses = 0, DATA misses = 0. Winner = INSTR
[DUEL] Epoch ended. INSTR misses = 0, DATA misses = 0. Winner = INSTR
[DUEL] Epoch ended. INSTR misses = 0, DATA misses = 0. Winner = INSTR
[DUEL] Epoch ended. INSTR misses = 0, DATA misses = 0. Winner = INSTR
[DUEL] Epoch ended. INSTR misses = 0, DATA misses = 0. Winner = INSTR
[DUEL] Epoch ended. INSTR misses = 0, DATA misses = 0. Winner = INSTR
[DUEL] Epoch ended. INSTR misses = 0, DATA misses = 0. Winner = INSTR
[DUEL] Epoch ended. INSTR misses = 0, DATA misses = 0. Winner = INSTR
[DUEL] Epoch ended. INSTR misses = 0, DATA misses = 0. Winner = INSTR
[DUEL] Epoch ended. INSTR misses = 0, DATA misses = 0. Winner = INSTR
[DUEL] Epoch ended. INSTR misses = 0, DATA misses = 0. Winner = INSTR
[DUEL] Epoch ended. INSTR misses = 0, DATA misses = 0. Winner = INSTR
[DUEL] Epoch ended. INSTR misses = 0, DATA misses = 0. Winner = INSTR
[DUEL] Epoch ended. INSTR misses = 0, DATA misses = 0. Winner = INSTR
[DUEL] Epoch ended. INSTR misses = 0, DATA misses = 0. Winner = INSTR
[DUEL] Epoch ended. INSTR misses = 0, DATA misses = 0. Winner = INSTR
Heartbeat CPU 0 instructions: 130000001 cycles: 28463020 heartbeat IPC: 4.325 cumulative IPC: 4.317 (Simulation time: 00 hr 06 min 35 sec)
Simulation finished CPU 0 instructions: 100000001 cycles: 23164159 cumulative IPC: 4.317 (Simulation time: 00 hr 06 min 35 sec)
Simulation complete CPU 0 instructions: 100000001 cycles: 23164159 cumulative IPC: 4.317 (Simulation time: 00 hr 06 min 35 sec)

ChampSim completed all CPUs

=== Simulation ===
CPU 0 runs ../traces/public_traces/compute_int/compute_int_25.champsimtrace.xz
Region of Interest Statistics

CPU 0 cumulative IPC: 4.317 instructions: 100000001 cycles: 23164159
CPU 0 Branch Prediction Accuracy: 99.94% MPKI: 0.1281 Average ROB Occupancy at Mispredict: 174.1
Branch type MPKI
BRANCH_DIRECT_JUMP: 0
BRANCH_INDIRECT: 0.0175
BRANCH_CONDITIONAL: 0.0707
BRANCH_DIRECT_CALL: 6e-05
BRANCH_INDIRECT_CALL: 5e-05
BRANCH_RETURN: 0.0397

LLC TOTAL        ACCESS:     196038 HIT:     188336 MISS:       7702
LLC LOAD         ACCESS:      11065 HIT:      10174 MISS:        891
LLC RFO          ACCESS:      71755 HIT:      70787 MISS:        968
LLC PREFETCH     ACCESS:      29373 HIT:      24631 MISS:       4742
LLC WRITE        ACCESS:      83560 HIT:      82660 MISS:        900
LLC TRANSLATION  ACCESS:        285 HIT:         84 MISS:        201
LLC PREFETCH REQUESTED:          0 ISSUED:          0 USEFUL:          0 USELESS:          0
LLC AVERAGE MISS LATENCY: 145.8 cycles
cpu0_DTLB TOTAL        ACCESS:   20616970 HIT:   20531164 MISS:      85806
cpu0_DTLB LOAD         ACCESS:   20616970 HIT:   20531164 MISS:      85806
cpu0_DTLB RFO          ACCESS:          0 HIT:          0 MISS:          0
cpu0_DTLB PREFETCH     ACCESS:          0 HIT:          0 MISS:          0
cpu0_DTLB WRITE        ACCESS:          0 HIT:          0 MISS:          0
cpu0_DTLB TRANSLATION  ACCESS:          0 HIT:          0 MISS:          0
cpu0_DTLB PREFETCH REQUESTED:          0 ISSUED:          0 USEFUL:          0 USELESS:          0
cpu0_DTLB AVERAGE MISS LATENCY: 3.267 cycles
cpu0_ITLB TOTAL        ACCESS:    1148132 HIT:    1148132 MISS:          0
cpu0_ITLB LOAD         ACCESS:    1148132 HIT:    1148132 MISS:          0
cpu0_ITLB RFO          ACCESS:          0 HIT:          0 MISS:          0
cpu0_ITLB PREFETCH     ACCESS:          0 HIT:          0 MISS:          0
cpu0_ITLB WRITE        ACCESS:          0 HIT:          0 MISS:          0
cpu0_ITLB TRANSLATION  ACCESS:          0 HIT:          0 MISS:          0
cpu0_ITLB PREFETCH REQUESTED:          0 ISSUED:          0 USEFUL:          0 USELESS:          0
cpu0_ITLB AVERAGE MISS LATENCY: -nan cycles
cpu0_L1D TOTAL        ACCESS:   37075308 HIT:   26993743 MISS:   10081565
cpu0_L1D LOAD         ACCESS:   18763050 HIT:   11820237 MISS:    6942813
cpu0_L1D RFO          ACCESS:          0 HIT:          0 MISS:          0
cpu0_L1D PREFETCH     ACCESS:   17254627 HIT:   14552900 MISS:    2701727
cpu0_L1D WRITE        ACCESS:    1057250 HIT:     620603 MISS:     436647
cpu0_L1D TRANSLATION  ACCESS:        381 HIT:          3 MISS:        378
cpu0_L1D PREFETCH REQUESTED:   36923108 ISSUED:   17254656 USEFUL:     753826 USELESS:      92722
cpu0_L1D AVERAGE MISS LATENCY: 2.072 cycles
cpu0_L1I TOTAL        ACCESS:    1677648 HIT:    1623210 MISS:      54438
cpu0_L1I LOAD         ACCESS:     828617 HIT:     795978 MISS:      32639
cpu0_L1I RFO          ACCESS:          0 HIT:          0 MISS:          0
cpu0_L1I PREFETCH     ACCESS:     849031 HIT:     827232 MISS:      21799
cpu0_L1I WRITE        ACCESS:          0 HIT:          0 MISS:          0
cpu0_L1I TRANSLATION  ACCESS:          0 HIT:          0 MISS:          0
cpu0_L1I PREFETCH REQUESTED:    2413250 ISSUED:     849031 USEFUL:      15570 USELESS:       4751
cpu0_L1I AVERAGE MISS LATENCY: 8.395 cycles
cpu0_L2C TOTAL        ACCESS:    7231685 HIT:    7100992 MISS:     130693
cpu0_L2C LOAD         ACCESS:    1570204 HIT:    1558464 MISS:      11740
cpu0_L2C RFO          ACCESS:     108146 HIT:      36293 MISS:      71853
cpu0_L2C PREFETCH     ACCESS:    5397215 HIT:    5350400 MISS:      46815
cpu0_L2C WRITE        ACCESS:     155745 HIT:     155745 MISS:          0
cpu0_L2C TRANSLATION  ACCESS:        375 HIT:         90 MISS:        285
cpu0_L2C PREFETCH REQUESTED:    3925626 ISSUED:    3043602 USEFUL:       5669 USELESS:       6974
cpu0_L2C AVERAGE MISS LATENCY: 26.46 cycles
cpu0_STLB TOTAL        ACCESS:      40123 HIT:      39828 MISS:        295
cpu0_STLB LOAD         ACCESS:      40123 HIT:      39828 MISS:        295
cpu0_STLB RFO          ACCESS:          0 HIT:          0 MISS:          0
cpu0_STLB PREFETCH     ACCESS:          0 HIT:          0 MISS:          0
cpu0_STLB WRITE        ACCESS:          0 HIT:          0 MISS:          0
cpu0_STLB TRANSLATION  ACCESS:          0 HIT:          0 MISS:          0
cpu0_STLB PREFETCH REQUESTED:          0 ISSUED:          0 USEFUL:          0 USELESS:          0
cpu0_STLB AVERAGE MISS LATENCY: 243.4 cycles

DRAM Statistics

Channel 0 RQ ROW_BUFFER_HIT:       1301
  ROW_BUFFER_MISS:       2492
 AVG DBUS CONGESTED CYCLE: 3.623
WQ ROW_BUFFER_HIT: Channel 0 
  ROW_BUFFER_MISS:         65
  FULL:        615

Channel 1 RQ ROW_BUFFER_HIT:       1215
  ROW_BUFFER_MISS:       1794
 AVG DBUS CONGESTED CYCLE: 3.714
WQ ROW_BUFFER_HIT: Channel 1 
  ROW_BUFFER_MISS:         29
  FULL:        404
BERTI TO_L1: 32664010 TO_L2: 18651853 TO_L2_BC_MSHR: 91238
BERTI AVG_LAT: 20.4349 NUM_TRACK_LATENCY: 3179883 NUM_CANT_TRACK_LATENCY: 0
BERTI CROSS_PAGE 10227027 NO_CROSS_PAGE: 41088836
BERTI FOUND_BERTI: 15346880 NO_FOUND_BERTI: 8576776
BERTI AVERAGE_ISSUED: 4.28827
CPU 0 L1I Entangling prefetcher final stats
IP accesses: 538f 14e3c0 38624 / 828787
IP misses: 5364 14d900 3177 / 32809
IP hits: 0 0 0 / 0
IP late: 27ae 9eb80 780 / 11789
IP wrong: 9123 2448c0 529 / 4493
miss rate: 0.0395868
coverage: 0
coverage_late: 0.359323
accuracy: 0
accuracy_late: 0.724052
discarded: 0
evicts entangled j table: 0
evicts entangled k table: 260
max bb size: 14
formats: 36 0 854 133 97 63 0 
hist_lookups: 526 1102 1021 550 1474 1297 1037 1082 874 103 88 175 48 21 23 0 30 3252 
hist_lookups_evict: 0.236165 %
hist_lookups_shortlat: 25.6003 %
bb_found_hist: 0 181378 114764 35430 10494 888 8660 2499 3985 4113 0 9 0 928 1861 0 0 0 0 0 0 0 0 0 0 0 0 0 0 0 0 0 0 0 0 0 0 0 0 0 0 0 0 0 0 0 0 0 0 0 0 0 0 0 0 0 0 0 0 0 0 0 0 0 
bb_found_summary: 740179 365009 2.02784
entangled_found_hist: 0 106755 70743 164717 1843 34 0 0 
entangled_found_summary: 749934 344092 2.17946
bb_ent_found_hist: 0 220015 136852 54756 27969 1878 216 4857 2 8001 0 0 0 2008 3863 0 0 0 0 0 0 0 0 0 0 0 0 0 0 0 0 0 0 0 0 0 0 0 0 0 0 0 0 0 0 0 0 0 0 0 0 0 0 0 0 0 0 0 0 0 0 0 0 0 
bb_ent_found_summary: 966759 460417 2.09975
