WARNING: physical memory size is smaller than virtual memory size.

*** ChampSim Multicore Out-of-Order Simulator ***
Warmup Instructions: 30000000
Simulation Instructions: 100000000
Number of CPUs: 1
Page size: 4096

BTB:
Basic BTB sets: 1024 ways: 8
Indirect:
history lengths: 0 0 10 16 27 44 60 96 109 219 449 487 714 1313 2146 3881 
ITTAGE tables: 64768 bytes;Region table: 240 bytes;IUM: 384 bytes;Total Storage= 65392 bytes;
RAS:
RAS size: 64
[LLC] INSTR Demand IPV: 1 2 2 1 4 Prefetch IPV: 1 2 1 1 4
[LLC] DATA  Demand IPV: 1 1 1 2 4 Prefetch IPV: 1 1 2 2 4
Berti Prefetcher
CPU 0 Entangling prefetcher
Off-chip DRAM Size: 8 GiB Channels: 2 Width: 64-bit Data Race: 6400 MT/s
[DUEL] Epoch ended. INSTR misses = 19, DATA misses = 17. Winner = DATA
[DUEL] Epoch ended. INSTR misses = 20, DATA misses = 61. Winner = INSTR
[DUEL] Epoch ended. INSTR misses = 46, DATA misses = 39. Winner = DATA
[DUEL] Epoch ended. INSTR misses = 19, DATA misses = 17. Winner = DATA
[DUEL] Epoch ended. INSTR misses = 25, DATA misses = 8. Winner = DATA
[DUEL] Epoch ended. INSTR misses = 33, DATA misses = 44. Winner = INSTR
[DUEL] Epoch ended. INSTR misses = 42, DATA misses = 66. Winner = INSTR
[DUEL] Epoch ended. INSTR misses = 17, DATA misses = 43. Winner = INSTR
[DUEL] Epoch ended. INSTR misses = 28, DATA misses = 30. Winner = INSTR
[DUEL] Epoch ended. INSTR misses = 39, DATA misses = 47. Winner = INSTR
[DUEL] Epoch ended. INSTR misses = 43, DATA misses = 33. Winner = DATA
[DUEL] Epoch ended. INSTR misses = 58, DATA misses = 45. Winner = DATA
[DUEL] Epoch ended. INSTR misses = 50, DATA misses = 57. Winner = INSTR
[DUEL] Epoch ended. INSTR misses = 53, DATA misses = 50. Winner = DATA
[DUEL] Epoch ended. INSTR misses = 65, DATA misses = 57. Winner = DATA
[DUEL] Epoch ended. INSTR misses = 69, DATA misses = 26. Winner = DATA
[DUEL] Epoch ended. INSTR misses = 54, DATA misses = 56. Winner = INSTR
[DUEL] Epoch ended. INSTR misses = 55, DATA misses = 69. Winner = INSTR
[DUEL] Epoch ended. INSTR misses = 39, DATA misses = 31. Winner = DATA
Heartbeat CPU 0 instructions: 10000000 cycles: 1770763 heartbeat IPC: 5.647 cumulative IPC: 5.647 (Simulation time: 00 hr 00 min 24 sec)
[DUEL] Epoch ended. INSTR misses = 50, DATA misses = 30. Winner = DATA
[DUEL] Epoch ended. INSTR misses = 46, DATA misses = 51. Winner = INSTR
[DUEL] Epoch ended. INSTR misses = 74, DATA misses = 54. Winner = DATA
[DUEL] Epoch ended. INSTR misses = 59, DATA misses = 61. Winner = INSTR
[DUEL] Epoch ended. INSTR misses = 51, DATA misses = 48. Winner = DATA
[DUEL] Epoch ended. INSTR misses = 52, DATA misses = 61. Winner = INSTR
[DUEL] Epoch ended. INSTR misses = 57, DATA misses = 36. Winner = DATA
[DUEL] Epoch ended. INSTR misses = 29, DATA misses = 57. Winner = INSTR
[DUEL] Epoch ended. INSTR misses = 57, DATA misses = 43. Winner = DATA
[DUEL] Epoch ended. INSTR misses = 16, DATA misses = 46. Winner = INSTR
[DUEL] Epoch ended. INSTR misses = 70, DATA misses = 63. Winner = DATA
[DUEL] Epoch ended. INSTR misses = 79, DATA misses = 70. Winner = DATA
[DUEL] Epoch ended. INSTR misses = 138, DATA misses = 196. Winner = INSTR
[DUEL] Epoch ended. INSTR misses = 152, DATA misses = 219. Winner = INSTR
[DUEL] Epoch ended. INSTR misses = 31, DATA misses = 42. Winner = INSTR
[DUEL] Epoch ended. INSTR misses = 49, DATA misses = 73. Winner = INSTR
[DUEL] Epoch ended. INSTR misses = 60, DATA misses = 120. Winner = INSTR
[DUEL] Epoch ended. INSTR misses = 62, DATA misses = 70. Winner = INSTR
[DUEL] Epoch ended. INSTR misses = 51, DATA misses = 70. Winner = INSTR
[DUEL] Epoch ended. INSTR misses = 77, DATA misses = 100. Winner = INSTR
Heartbeat CPU 0 instructions: 20000000 cycles: 3605180 heartbeat IPC: 5.451 cumulative IPC: 5.548 (Simulation time: 00 hr 00 min 49 sec)
[DUEL] Epoch ended. INSTR misses = 96, DATA misses = 61. Winner = DATA
[DUEL] Epoch ended. INSTR misses = 74, DATA misses = 60. Winner = DATA
[DUEL] Epoch ended. INSTR misses = 63, DATA misses = 43. Winner = DATA
[DUEL] Epoch ended. INSTR misses = 81, DATA misses = 59. Winner = DATA
[DUEL] Epoch ended. INSTR misses = 92, DATA misses = 94. Winner = INSTR
[DUEL] Epoch ended. INSTR misses = 51, DATA misses = 47. Winner = DATA
[DUEL] Epoch ended. INSTR misses = 77, DATA misses = 91. Winner = INSTR
[DUEL] Epoch ended. INSTR misses = 94, DATA misses = 75. Winner = DATA
[DUEL] Epoch ended. INSTR misses = 247, DATA misses = 260. Winner = INSTR
[DUEL] Epoch ended. INSTR misses = 148, DATA misses = 172. Winner = INSTR
[DUEL] Epoch ended. INSTR misses = 186, DATA misses = 182. Winner = DATA
[DUEL] Epoch ended. INSTR misses = 219, DATA misses = 185. Winner = DATA
[DUEL] Epoch ended. INSTR misses = 170, DATA misses = 179. Winner = INSTR
[DUEL] Epoch ended. INSTR misses = 158, DATA misses = 166. Winner = INSTR
[DUEL] Epoch ended. INSTR misses = 145, DATA misses = 128. Winner = DATA
[DUEL] Epoch ended. INSTR misses = 155, DATA misses = 211. Winner = INSTR
[DUEL] Epoch ended. INSTR misses = 218, DATA misses = 217. Winner = DATA
[DUEL] Epoch ended. INSTR misses = 186, DATA misses = 197. Winner = INSTR
[DUEL] Epoch ended. INSTR misses = 249, DATA misses = 192. Winner = DATA
Heartbeat CPU 0 instructions: 30000003 cycles: 5822907 heartbeat IPC: 4.509 cumulative IPC: 5.152 (Simulation time: 00 hr 01 min 19 sec)
Warmup finished CPU 0 instructions: 30000003 cycles: 5822908 cumulative IPC: 5.152 (Simulation time: 00 hr 01 min 19 sec)
Warmup complete CPU 0 instructions: 30000003 cycles: 5822908 cumulative IPC: 5.152 (Simulation time: 00 hr 01 min 19 sec)
[DUEL] Epoch ended. INSTR misses = 170, DATA misses = 158. Winner = DATA
[DUEL] Epoch ended. INSTR misses = 181, DATA misses = 179. Winner = DATA
*** Reached end of trace: (0, "../traces/public_traces/compute_int/compute_int_27.champsimtrace.xz")
[DUEL] Epoch ended. INSTR misses = 13, DATA misses = 13. Winner = INSTR
[DUEL] Epoch ended. INSTR misses = 16, DATA misses = 34. Winner = INSTR
[DUEL] Epoch ended. INSTR misses = 28, DATA misses = 30. Winner = INSTR
[DUEL] Epoch ended. INSTR misses = 18, DATA misses = 13. Winner = DATA
[DUEL] Epoch ended. INSTR misses = 18, DATA misses = 18. Winner = INSTR
[DUEL] Epoch ended. INSTR misses = 28, DATA misses = 35. Winner = INSTR
[DUEL] Epoch ended. INSTR misses = 30, DATA misses = 54. Winner = INSTR
[DUEL] Epoch ended. INSTR misses = 18, DATA misses = 55. Winner = INSTR
[DUEL] Epoch ended. INSTR misses = 23, DATA misses = 25. Winner = INSTR
[DUEL] Epoch ended. INSTR misses = 32, DATA misses = 32. Winner = INSTR
[DUEL] Epoch ended. INSTR misses = 54, DATA misses = 27. Winner = DATA
[DUEL] Epoch ended. INSTR misses = 49, DATA misses = 36. Winner = DATA
[DUEL] Epoch ended. INSTR misses = 50, DATA misses = 68. Winner = INSTR
[DUEL] Epoch ended. INSTR misses = 51, DATA misses = 45. Winner = DATA
[DUEL] Epoch ended. INSTR misses = 62, DATA misses = 60. Winner = DATA
[DUEL] Epoch ended. INSTR misses = 65, DATA misses = 29. Winner = DATA
[DUEL] Epoch ended. INSTR misses = 67, DATA misses = 38. Winner = DATA
[DUEL] Epoch ended. INSTR misses = 48, DATA misses = 86. Winner = INSTR
Heartbeat CPU 0 instructions: 40000004 cycles: 12374230 heartbeat IPC: 1.526 cumulative IPC: 1.526 (Simulation time: 00 hr 02 min 20 sec)
[DUEL] Epoch ended. INSTR misses = 40, DATA misses = 35. Winner = DATA
[DUEL] Epoch ended. INSTR misses = 63, DATA misses = 22. Winner = DATA
[DUEL] Epoch ended. INSTR misses = 48, DATA misses = 49. Winner = INSTR
[DUEL] Epoch ended. INSTR misses = 71, DATA misses = 46. Winner = DATA
[DUEL] Epoch ended. INSTR misses = 46, DATA misses = 64. Winner = INSTR
[DUEL] Epoch ended. INSTR misses = 64, DATA misses = 72. Winner = INSTR
[DUEL] Epoch ended. INSTR misses = 62, DATA misses = 77. Winner = INSTR
[DUEL] Epoch ended. INSTR misses = 49, DATA misses = 35. Winner = DATA
[DUEL] Epoch ended. INSTR misses = 55, DATA misses = 61. Winner = INSTR
[DUEL] Epoch ended. INSTR misses = 50, DATA misses = 48. Winner = DATA
[DUEL] Epoch ended. INSTR misses = 35, DATA misses = 54. Winner = INSTR
[DUEL] Epoch ended. INSTR misses = 64, DATA misses = 46. Winner = DATA
[DUEL] Epoch ended. INSTR misses = 86, DATA misses = 82. Winner = DATA
[DUEL] Epoch ended. INSTR misses = 74, DATA misses = 80. Winner = INSTR
[DUEL] Epoch ended. INSTR misses = 210, DATA misses = 329. Winner = INSTR
[DUEL] Epoch ended. INSTR misses = 24, DATA misses = 45. Winner = INSTR
[DUEL] Epoch ended. INSTR misses = 49, DATA misses = 74. Winner = INSTR
[DUEL] Epoch ended. INSTR misses = 45, DATA misses = 100. Winner = INSTR
[DUEL] Epoch ended. INSTR misses = 56, DATA misses = 82. Winner = INSTR
Heartbeat CPU 0 instructions: 50000002 cycles: 21121766 heartbeat IPC: 1.143 cumulative IPC: 1.307 (Simulation time: 00 hr 03 min 32 sec)
[DUEL] Epoch ended. INSTR misses = 65, DATA misses = 85. Winner = INSTR
[DUEL] Epoch ended. INSTR misses = 80, DATA misses = 107. Winner = INSTR
[DUEL] Epoch ended. INSTR misses = 90, DATA misses = 49. Winner = DATA
[DUEL] Epoch ended. INSTR misses = 68, DATA misses = 72. Winner = INSTR
[DUEL] Epoch ended. INSTR misses = 58, DATA misses = 54. Winner = DATA
[DUEL] Epoch ended. INSTR misses = 81, DATA misses = 59. Winner = DATA
[DUEL] Epoch ended. INSTR misses = 67, DATA misses = 98. Winner = INSTR
[DUEL] Epoch ended. INSTR misses = 52, DATA misses = 66. Winner = INSTR
[DUEL] Epoch ended. INSTR misses = 76, DATA misses = 72. Winner = DATA
[DUEL] Epoch ended. INSTR misses = 65, DATA misses = 56. Winner = DATA
[DUEL] Epoch ended. INSTR misses = 249, DATA misses = 198. Winner = DATA
[DUEL] Epoch ended. INSTR misses = 122, DATA misses = 116. Winner = DATA
[DUEL] Epoch ended. INSTR misses = 163, DATA misses = 146. Winner = DATA
[DUEL] Epoch ended. INSTR misses = 143, DATA misses = 103. Winner = DATA
[DUEL] Epoch ended. INSTR misses = 160, DATA misses = 132. Winner = DATA
[DUEL] Epoch ended. INSTR misses = 161, DATA misses = 155. Winner = DATA
[DUEL] Epoch ended. INSTR misses = 75, DATA misses = 99. Winner = INSTR
[DUEL] Epoch ended. INSTR misses = 128, DATA misses = 155. Winner = INSTR
[DUEL] Epoch ended. INSTR misses = 153, DATA misses = 124. Winner = DATA
[DUEL] Epoch ended. INSTR misses = 157, DATA misses = 179. Winner = INSTR
Heartbeat CPU 0 instructions: 60000006 cycles: 29720142 heartbeat IPC: 1.163 cumulative IPC: 1.255 (Simulation time: 00 hr 04 min 57 sec)
[DUEL] Epoch ended. INSTR misses = 180, DATA misses = 169. Winner = DATA
[DUEL] Epoch ended. INSTR misses = 146, DATA misses = 154. Winner = INSTR
[DUEL] Epoch ended. INSTR misses = 170, DATA misses = 146. Winner = DATA
*** Reached end of trace: (0, "../traces/public_traces/compute_int/compute_int_27.champsimtrace.xz")
[DUEL] Epoch ended. INSTR misses = 35, DATA misses = 51. Winner = INSTR
[DUEL] Epoch ended. INSTR misses = 10, DATA misses = 26. Winner = INSTR
[DUEL] Epoch ended. INSTR misses = 29, DATA misses = 37. Winner = INSTR
[DUEL] Epoch ended. INSTR misses = 20, DATA misses = 11. Winner = DATA
[DUEL] Epoch ended. INSTR misses = 21, DATA misses = 15. Winner = DATA
[DUEL] Epoch ended. INSTR misses = 30, DATA misses = 34. Winner = INSTR
[DUEL] Epoch ended. INSTR misses = 32, DATA misses = 41. Winner = INSTR
[DUEL] Epoch ended. INSTR misses = 24, DATA misses = 68. Winner = INSTR
[DUEL] Epoch ended. INSTR misses = 18, DATA misses = 21. Winner = INSTR
[DUEL] Epoch ended. INSTR misses = 37, DATA misses = 34. Winner = DATA
[DUEL] Epoch ended. INSTR misses = 38, DATA misses = 18. Winner = DATA
[DUEL] Epoch ended. INSTR misses = 51, DATA misses = 44. Winner = DATA
[DUEL] Epoch ended. INSTR misses = 62, DATA misses = 78. Winner = INSTR
[DUEL] Epoch ended. INSTR misses = 56, DATA misses = 46. Winner = DATA
[DUEL] Epoch ended. INSTR misses = 62, DATA misses = 54. Winner = DATA
[DUEL] Epoch ended. INSTR misses = 62, DATA misses = 27. Winner = DATA
Heartbeat CPU 0 instructions: 70000000 cycles: 36189483 heartbeat IPC: 1.546 cumulative IPC: 1.317 (Simulation time: 00 hr 05 min 59 sec)
[DUEL] Epoch ended. INSTR misses = 70, DATA misses = 45. Winner = DATA
[DUEL] Epoch ended. INSTR misses = 35, DATA misses = 67. Winner = INSTR
[DUEL] Epoch ended. INSTR misses = 71, DATA misses = 59. Winner = DATA
[DUEL] Epoch ended. INSTR misses = 53, DATA misses = 26. Winner = DATA
[DUEL] Epoch ended. INSTR misses = 47, DATA misses = 39. Winner = DATA
[DUEL] Epoch ended. INSTR misses = 68, DATA misses = 48. Winner = DATA
[DUEL] Epoch ended. INSTR misses = 57, DATA misses = 68. Winner = INSTR
[DUEL] Epoch ended. INSTR misses = 42, DATA misses = 55. Winner = INSTR
[DUEL] Epoch ended. INSTR misses = 75, DATA misses = 59. Winner = DATA
[DUEL] Epoch ended. INSTR misses = 49, DATA misses = 26. Winner = DATA
[DUEL] Epoch ended. INSTR misses = 53, DATA misses = 43. Winner = DATA
[DUEL] Epoch ended. INSTR misses = 61, DATA misses = 61. Winner = INSTR
[DUEL] Epoch ended. INSTR misses = 25, DATA misses = 55. Winner = INSTR
[DUEL] Epoch ended. INSTR misses = 49, DATA misses = 45. Winner = DATA
[DUEL] Epoch ended. INSTR misses = 79, DATA misses = 77. Winner = DATA
[DUEL] Epoch ended. INSTR misses = 60, DATA misses = 66. Winner = INSTR
[DUEL] Epoch ended. INSTR misses = 205, DATA misses = 321. Winner = INSTR
[DUEL] Epoch ended. INSTR misses = 21, DATA misses = 24. Winner = INSTR
[DUEL] Epoch ended. INSTR misses = 45, DATA misses = 70. Winner = INSTR
[DUEL] Epoch ended. INSTR misses = 43, DATA misses = 107. Winner = INSTR
Heartbeat CPU 0 instructions: 80000008 cycles: 44662259 heartbeat IPC: 1.18 cumulative IPC: 1.287 (Simulation time: 00 hr 07 min 09 sec)
[DUEL] Epoch ended. INSTR misses = 52, DATA misses = 84. Winner = INSTR
[DUEL] Epoch ended. INSTR misses = 57, DATA misses = 72. Winner = INSTR
[DUEL] Epoch ended. INSTR misses = 85, DATA misses = 113. Winner = INSTR
[DUEL] Epoch ended. INSTR misses = 89, DATA misses = 53. Winner = DATA
[DUEL] Epoch ended. INSTR misses = 53, DATA misses = 57. Winner = INSTR
[DUEL] Epoch ended. INSTR misses = 76, DATA misses = 61. Winner = DATA
[DUEL] Epoch ended. INSTR misses = 75, DATA misses = 61. Winner = DATA
[DUEL] Epoch ended. INSTR misses = 68, DATA misses = 98. Winner = INSTR
[DUEL] Epoch ended. INSTR misses = 57, DATA misses = 62. Winner = INSTR
[DUEL] Epoch ended. INSTR misses = 57, DATA misses = 57. Winner = INSTR
[DUEL] Epoch ended. INSTR misses = 78, DATA misses = 62. Winner = DATA
[DUEL] Epoch ended. INSTR misses = 257, DATA misses = 213. Winner = DATA
[DUEL] Epoch ended. INSTR misses = 135, DATA misses = 117. Winner = DATA
[DUEL] Epoch ended. INSTR misses = 147, DATA misses = 128. Winner = DATA
[DUEL] Epoch ended. INSTR misses = 141, DATA misses = 108. Winner = DATA
[DUEL] Epoch ended. INSTR misses = 155, DATA misses = 147. Winner = DATA
[DUEL] Epoch ended. INSTR misses = 178, DATA misses = 154. Winner = DATA
[DUEL] Epoch ended. INSTR misses = 60, DATA misses = 77. Winner = INSTR
[DUEL] Epoch ended. INSTR misses = 124, DATA misses = 153. Winner = INSTR
Heartbeat CPU 0 instructions: 90000005 cycles: 53347485 heartbeat IPC: 1.151 cumulative IPC: 1.263 (Simulation time: 00 hr 08 min 33 sec)
[DUEL] Epoch ended. INSTR misses = 125, DATA misses = 117. Winner = DATA
[DUEL] Epoch ended. INSTR misses = 196, DATA misses = 195. Winner = DATA
[DUEL] Epoch ended. INSTR misses = 171, DATA misses = 185. Winner = INSTR
[DUEL] Epoch ended. INSTR misses = 131, DATA misses = 131. Winner = INSTR
[DUEL] Epoch ended. INSTR misses = 190, DATA misses = 171. Winner = DATA
*** Reached end of trace: (0, "../traces/public_traces/compute_int/compute_int_27.champsimtrace.xz")
[DUEL] Epoch ended. INSTR misses = 34, DATA misses = 45. Winner = INSTR
[DUEL] Epoch ended. INSTR misses = 13, DATA misses = 28. Winner = INSTR
[DUEL] Epoch ended. INSTR misses = 33, DATA misses = 36. Winner = INSTR
[DUEL] Epoch ended. INSTR misses = 19, DATA misses = 15. Winner = DATA
[DUEL] Epoch ended. INSTR misses = 31, DATA misses = 19. Winner = DATA
[DUEL] Epoch ended. INSTR misses = 30, DATA misses = 32. Winner = INSTR
[DUEL] Epoch ended. INSTR misses = 27, DATA misses = 50. Winner = INSTR
[DUEL] Epoch ended. INSTR misses = 22, DATA misses = 56. Winner = INSTR
[DUEL] Epoch ended. INSTR misses = 16, DATA misses = 21. Winner = INSTR
[DUEL] Epoch ended. INSTR misses = 51, DATA misses = 47. Winner = DATA
[DUEL] Epoch ended. INSTR misses = 45, DATA misses = 16. Winner = DATA
[DUEL] Epoch ended. INSTR misses = 42, DATA misses = 24. Winner = DATA
[DUEL] Epoch ended. INSTR misses = 61, DATA misses = 89. Winner = INSTR
[DUEL] Epoch ended. INSTR misses = 39, DATA misses = 36. Winner = DATA
[DUEL] Epoch ended. INSTR misses = 66, DATA misses = 44. Winner = DATA
Heartbeat CPU 0 instructions: 100000007 cycles: 59829292 heartbeat IPC: 1.543 cumulative IPC: 1.296 (Simulation time: 00 hr 09 min 37 sec)
[DUEL] Epoch ended. INSTR misses = 73, DATA misses = 44. Winner = DATA
[DUEL] Epoch ended. INSTR misses = 72, DATA misses = 40. Winner = DATA
[DUEL] Epoch ended. INSTR misses = 36, DATA misses = 64. Winner = INSTR
[DUEL] Epoch ended. INSTR misses = 57, DATA misses = 49. Winner = DATA
[DUEL] Epoch ended. INSTR misses = 41, DATA misses = 20. Winner = DATA
[DUEL] Epoch ended. INSTR misses = 49, DATA misses = 36. Winner = DATA
[DUEL] Epoch ended. INSTR misses = 69, DATA misses = 49. Winner = DATA
[DUEL] Epoch ended. INSTR misses = 58, DATA misses = 73. Winner = INSTR
[DUEL] Epoch ended. INSTR misses = 40, DATA misses = 53. Winner = INSTR
[DUEL] Epoch ended. INSTR misses = 68, DATA misses = 58. Winner = DATA
[DUEL] Epoch ended. INSTR misses = 58, DATA misses = 35. Winner = DATA
[DUEL] Epoch ended. INSTR misses = 32, DATA misses = 61. Winner = INSTR
[DUEL] Epoch ended. INSTR misses = 42, DATA misses = 45. Winner = INSTR
[DUEL] Epoch ended. INSTR misses = 48, DATA misses = 70. Winner = INSTR
[DUEL] Epoch ended. INSTR misses = 63, DATA misses = 38. Winner = DATA
[DUEL] Epoch ended. INSTR misses = 84, DATA misses = 96. Winner = INSTR
[DUEL] Epoch ended. INSTR misses = 57, DATA misses = 47. Winner = DATA
[DUEL] Epoch ended. INSTR misses = 198, DATA misses = 334. Winner = INSTR
[DUEL] Epoch ended. INSTR misses = 7, DATA misses = 11. Winner = INSTR
Heartbeat CPU 0 instructions: 110000008 cycles: 68192354 heartbeat IPC: 1.196 cumulative IPC: 1.283 (Simulation time: 00 hr 10 min 46 sec)
[DUEL] Epoch ended. INSTR misses = 50, DATA misses = 83. Winner = INSTR
[DUEL] Epoch ended. INSTR misses = 49, DATA misses = 100. Winner = INSTR
[DUEL] Epoch ended. INSTR misses = 49, DATA misses = 88. Winner = INSTR
[DUEL] Epoch ended. INSTR misses = 58, DATA misses = 65. Winner = INSTR
[DUEL] Epoch ended. INSTR misses = 82, DATA misses = 103. Winner = INSTR
[DUEL] Epoch ended. INSTR misses = 85, DATA misses = 57. Winner = DATA
[DUEL] Epoch ended. INSTR misses = 51, DATA misses = 69. Winner = INSTR
[DUEL] Epoch ended. INSTR misses = 76, DATA misses = 59. Winner = DATA
[DUEL] Epoch ended. INSTR misses = 72, DATA misses = 57. Winner = DATA
[DUEL] Epoch ended. INSTR misses = 70, DATA misses = 101. Winner = INSTR
[DUEL] Epoch ended. INSTR misses = 64, DATA misses = 50. Winner = DATA
[DUEL] Epoch ended. INSTR misses = 51, DATA misses = 47. Winner = DATA
[DUEL] Epoch ended. INSTR misses = 81, DATA misses = 71. Winner = DATA
[DUEL] Epoch ended. INSTR misses = 218, DATA misses = 186. Winner = DATA
[DUEL] Epoch ended. INSTR misses = 151, DATA misses = 104. Winner = DATA
[DUEL] Epoch ended. INSTR misses = 133, DATA misses = 145. Winner = INSTR
[DUEL] Epoch ended. INSTR misses = 169, DATA misses = 126. Winner = DATA
[DUEL] Epoch ended. INSTR misses = 148, DATA misses = 153. Winner = INSTR
[DUEL] Epoch ended. INSTR misses = 184, DATA misses = 152. Winner = DATA
[DUEL] Epoch ended. INSTR misses = 57, DATA misses = 75. Winner = INSTR
Heartbeat CPU 0 instructions: 120000001 cycles: 76819420 heartbeat IPC: 1.159 cumulative IPC: 1.268 (Simulation time: 00 hr 12 min 09 sec)
[DUEL] Epoch ended. INSTR misses = 125, DATA misses = 154. Winner = INSTR
[DUEL] Epoch ended. INSTR misses = 132, DATA misses = 109. Winner = DATA
[DUEL] Epoch ended. INSTR misses = 187, DATA misses = 189. Winner = INSTR
[DUEL] Epoch ended. INSTR misses = 169, DATA misses = 185. Winner = INSTR
[DUEL] Epoch ended. INSTR misses = 147, DATA misses = 144. Winner = DATA
[DUEL] Epoch ended. INSTR misses = 175, DATA misses = 153. Winner = DATA
*** Reached end of trace: (0, "../traces/public_traces/compute_int/compute_int_27.champsimtrace.xz")
[DUEL] Epoch ended. INSTR misses = 51, DATA misses = 68. Winner = INSTR
[DUEL] Epoch ended. INSTR misses = 13, DATA misses = 27. Winner = INSTR
[DUEL] Epoch ended. INSTR misses = 32, DATA misses = 26. Winner = DATA
[DUEL] Epoch ended. INSTR misses = 4, DATA misses = 8. Winner = INSTR
[DUEL] Epoch ended. INSTR misses = 32, DATA misses = 17. Winner = DATA
[DUEL] Epoch ended. INSTR misses = 45, DATA misses = 30. Winner = DATA
[DUEL] Epoch ended. INSTR misses = 24, DATA misses = 44. Winner = INSTR
[DUEL] Epoch ended. INSTR misses = 26, DATA misses = 51. Winner = INSTR
[DUEL] Epoch ended. INSTR misses = 13, DATA misses = 22. Winner = INSTR
[DUEL] Epoch ended. INSTR misses = 36, DATA misses = 43. Winner = INSTR
[DUEL] Epoch ended. INSTR misses = 45, DATA misses = 16. Winner = DATA
[DUEL] Epoch ended. INSTR misses = 32, DATA misses = 33. Winner = INSTR
[DUEL] Epoch ended. INSTR misses = 71, DATA misses = 81. Winner = INSTR
Heartbeat CPU 0 instructions: 130000003 cycles: 83273876 heartbeat IPC: 1.549 cumulative IPC: 1.291 (Simulation time: 00 hr 13 min 15 sec)
Simulation finished CPU 0 instructions: 100000000 cycles: 77450969 cumulative IPC: 1.291 (Simulation time: 00 hr 13 min 15 sec)
Simulation complete CPU 0 instructions: 100000000 cycles: 77450969 cumulative IPC: 1.291 (Simulation time: 00 hr 13 min 15 sec)

ChampSim completed all CPUs

=== Simulation ===
CPU 0 runs ../traces/public_traces/compute_int/compute_int_27.champsimtrace.xz
Region of Interest Statistics

CPU 0 cumulative IPC: 1.291 instructions: 100000000 cycles: 77450969
CPU 0 Branch Prediction Accuracy: 99.43% MPKI: 1.439 Average ROB Occupancy at Mispredict: 276.2
Branch type MPKI
BRANCH_DIRECT_JUMP: 0
BRANCH_INDIRECT: 0.337
BRANCH_CONDITIONAL: 1.1
BRANCH_DIRECT_CALL: 0
BRANCH_INDIRECT_CALL: 1e-05
BRANCH_RETURN: 0.0001

LLC TOTAL        ACCESS:    3933846 HIT:     355711 MISS:    3578135
LLC LOAD         ACCESS:    1604879 HIT:     103433 MISS:    1501446
LLC RFO          ACCESS:      14521 HIT:       4869 MISS:       9652
LLC PREFETCH     ACCESS:    1491989 HIT:      32164 MISS:    1459825
LLC WRITE        ACCESS:     723037 HIT:     214561 MISS:     508476
LLC TRANSLATION  ACCESS:      99420 HIT:        684 MISS:      98736
LLC PREFETCH REQUESTED:          0 ISSUED:          0 USEFUL:          0 USELESS:          0
LLC AVERAGE MISS LATENCY: 184.2 cycles
cpu0_DTLB TOTAL        ACCESS:   16956821 HIT:   16222725 MISS:     734096
cpu0_DTLB LOAD         ACCESS:   16956821 HIT:   16222725 MISS:     734096
cpu0_DTLB RFO          ACCESS:          0 HIT:          0 MISS:          0
cpu0_DTLB PREFETCH     ACCESS:          0 HIT:          0 MISS:          0
cpu0_DTLB WRITE        ACCESS:          0 HIT:          0 MISS:          0
cpu0_DTLB TRANSLATION  ACCESS:          0 HIT:          0 MISS:          0
cpu0_DTLB PREFETCH REQUESTED:          0 ISSUED:          0 USEFUL:          0 USELESS:          0
cpu0_DTLB AVERAGE MISS LATENCY: 56.08 cycles
cpu0_ITLB TOTAL        ACCESS:       3424 HIT:       3424 MISS:          0
cpu0_ITLB LOAD         ACCESS:       3424 HIT:       3424 MISS:          0
cpu0_ITLB RFO          ACCESS:          0 HIT:          0 MISS:          0
cpu0_ITLB PREFETCH     ACCESS:          0 HIT:          0 MISS:          0
cpu0_ITLB WRITE        ACCESS:          0 HIT:          0 MISS:          0
cpu0_ITLB TRANSLATION  ACCESS:          0 HIT:          0 MISS:          0
cpu0_ITLB PREFETCH REQUESTED:          0 ISSUED:          0 USEFUL:          0 USELESS:          0
cpu0_ITLB AVERAGE MISS LATENCY: -nan cycles
cpu0_L1D TOTAL        ACCESS:   27537559 HIT:   20741871 MISS:    6795688
cpu0_L1D LOAD         ACCESS:   12213258 HIT:    8979423 MISS:    3233835
cpu0_L1D RFO          ACCESS:          0 HIT:          0 MISS:          0
cpu0_L1D PREFETCH     ACCESS:    6593921 HIT:    3241183 MISS:    3352738
cpu0_L1D WRITE        ACCESS:    8461522 HIT:    8387604 MISS:      73918
cpu0_L1D TRANSLATION  ACCESS:     268858 HIT:     133661 MISS:     135197
cpu0_L1D PREFETCH REQUESTED:   59680082 ISSUED:    6593891 USEFUL:     302103 USELESS:      75122
cpu0_L1D AVERAGE MISS LATENCY: 64.4 cycles
cpu0_L1I TOTAL        ACCESS:       5009 HIT:       4659 MISS:        350
cpu0_L1I LOAD         ACCESS:       2386 HIT:       2201 MISS:        185
cpu0_L1I RFO          ACCESS:          0 HIT:          0 MISS:          0
cpu0_L1I PREFETCH     ACCESS:       2623 HIT:       2458 MISS:        165
cpu0_L1I WRITE        ACCESS:          0 HIT:          0 MISS:          0
cpu0_L1I TRANSLATION  ACCESS:          0 HIT:          0 MISS:          0
cpu0_L1I PREFETCH REQUESTED:       2891 ISSUED:       2623 USEFUL:        116 USELESS:          0
cpu0_L1I AVERAGE MISS LATENCY: 183.5 cycles
cpu0_L2C TOTAL        ACCESS:   10884105 HIT:    4391170 MISS:    6492935
cpu0_L2C LOAD         ACCESS:    2094717 HIT:     168100 MISS:    1926617
cpu0_L2C RFO          ACCESS:      46929 HIT:      30487 MISS:      16442
cpu0_L2C PREFETCH     ACCESS:    7854499 HIT:    3404076 MISS:    4450423
cpu0_L2C WRITE        ACCESS:     757586 HIT:     757554 MISS:         32
cpu0_L2C TRANSLATION  ACCESS:     130374 HIT:      30953 MISS:      99421
cpu0_L2C PREFETCH REQUESTED:    4975390 ISSUED:    4973833 USEFUL:     625996 USELESS:     545251
cpu0_L2C AVERAGE MISS LATENCY: 109.1 cycles
cpu0_STLB TOTAL        ACCESS:     277572 HIT:      12413 MISS:     265159
cpu0_STLB LOAD         ACCESS:     277572 HIT:      12413 MISS:     265159
cpu0_STLB RFO          ACCESS:          0 HIT:          0 MISS:          0
cpu0_STLB PREFETCH     ACCESS:          0 HIT:          0 MISS:          0
cpu0_STLB WRITE        ACCESS:          0 HIT:          0 MISS:          0
cpu0_STLB TRANSLATION  ACCESS:          0 HIT:          0 MISS:          0
cpu0_STLB PREFETCH REQUESTED:          0 ISSUED:          0 USEFUL:          0 USELESS:          0
cpu0_STLB AVERAGE MISS LATENCY: 170.3 cycles

DRAM Statistics

Channel 0 RQ ROW_BUFFER_HIT:     796419
  ROW_BUFFER_MISS:     746557
 AVG DBUS CONGESTED CYCLE: 3.928
WQ ROW_BUFFER_HIT: Channel 0 
  ROW_BUFFER_MISS:       4125
  FULL:     291666

Channel 1 RQ ROW_BUFFER_HIT:     786572
  ROW_BUFFER_MISS:     740033
 AVG DBUS CONGESTED CYCLE: 3.915
WQ ROW_BUFFER_HIT: Channel 1 
  ROW_BUFFER_MISS:       4560
  FULL:     291803
BERTI TO_L1: 4010343 TO_L2: 59551644 TO_L2_BC_MSHR: 15385356
BERTI AVG_LAT: 142.757 NUM_TRACK_LATENCY: 3258955 NUM_CANT_TRACK_LATENCY: 0
BERTI CROSS_PAGE 6653835 NO_CROSS_PAGE: 56908152
BERTI FOUND_BERTI: 18919854 NO_FOUND_BERTI: 9903963
BERTI AVERAGE_ISSUED: 5.01124
CPU 0 L1I Entangling prefetcher final stats
IP accesses: 4119 104640 30 / 2386
IP misses: e078 381e00 12 / 185
IP hits: 0 0 0 / 0
IP late: 162e 58b80 3 / 96
IP wrong: 0 0 0 / 0
miss rate: 0.0775357
coverage: 0
coverage_late: 0.518919
accuracy: 0
accuracy_late: 1
discarded: 0
evicts entangled j table: 0
evicts entangled k table: 0
max bb size: 9
formats: 0 0 5 0 2 3 0 
hist_lookups: 0 0 1 2 0 1 1 0 1 2 1 0 1 0 0 0 0 242 
hist_lookups_evict: 0 %
hist_lookups_shortlat: 96.0318 %
bb_found_hist: 0 445 207 70 36 26 3 2 0 3 0 0 0 0 0 0 0 0 0 0 0 0 0 0 0 0 0 0 0 0 0 0 0 0 0 0 0 0 0 0 0 0 0 0 0 0 0 0 0 0 0 0 0 0 0 0 0 0 0 0 0 0 0 0 
bb_found_summary: 1402 792 1.77021
entangled_found_hist: 0 131 90 115 18 0 6 0 
entangled_found_summary: 764 360 2.12223
bb_ent_found_hist: 0 223 128 94 14 19 0 0 0 3 0 0 0 0 0 0 0 0 0 0 0 0 0 0 0 0 0 0 0 0 0 0 0 0 0 0 0 0 0 0 0 0 0 0 0 0 0 0 0 0 0 0 0 0 0 0 0 0 0 0 0 0 0 0 
bb_ent_found_summary: 939 481 1.95219
