WARNING: physical memory size is smaller than virtual memory size.

*** ChampSim Multicore Out-of-Order Simulator ***
Warmup Instructions: 30000000
Simulation Instructions: 100000000
Number of CPUs: 1
Page size: 4096

BTB:
Basic BTB sets: 1024 ways: 8
Indirect:
history lengths: 0 0 10 16 27 44 60 96 109 219 449 487 714 1313 2146 3881 
ITTAGE tables: 64768 bytes;Region table: 240 bytes;IUM: 384 bytes;Total Storage= 65392 bytes;
RAS:
RAS size: 64
[LLC] INSTR Demand IPV: 1 2 2 1 4 Prefetch IPV: 1 2 1 1 4
[LLC] DATA  Demand IPV: 1 1 1 2 4 Prefetch IPV: 1 1 2 2 4
Berti Prefetcher
CPU 0 Entangling prefetcher
Off-chip DRAM Size: 8 GiB Channels: 2 Width: 64-bit Data Race: 6400 MT/s
[DUEL] Epoch ended. INSTR misses = 118, DATA misses = 98. Winner = DATA
[DUEL] Epoch ended. INSTR misses = 43, DATA misses = 65. Winner = INSTR
[DUEL] Epoch ended. INSTR misses = 94, DATA misses = 80. Winner = DATA
[DUEL] Epoch ended. INSTR misses = 129, DATA misses = 135. Winner = INSTR
[DUEL] Epoch ended. INSTR misses = 329, DATA misses = 293. Winner = DATA
[DUEL] Epoch ended. INSTR misses = 367, DATA misses = 371. Winner = INSTR
[DUEL] Epoch ended. INSTR misses = 133, DATA misses = 119. Winner = DATA
[DUEL] Epoch ended. INSTR misses = 99, DATA misses = 76. Winner = DATA
[DUEL] Epoch ended. INSTR misses = 176, DATA misses = 184. Winner = INSTR
[DUEL] Epoch ended. INSTR misses = 56, DATA misses = 56. Winner = INSTR
[DUEL] Epoch ended. INSTR misses = 85, DATA misses = 79. Winner = DATA
[DUEL] Epoch ended. INSTR misses = 92, DATA misses = 85. Winner = DATA
[DUEL] Epoch ended. INSTR misses = 154, DATA misses = 157. Winner = INSTR
[DUEL] Epoch ended. INSTR misses = 293, DATA misses = 284. Winner = DATA
[DUEL] Epoch ended. INSTR misses = 244, DATA misses = 207. Winner = DATA
[DUEL] Epoch ended. INSTR misses = 90, DATA misses = 100. Winner = INSTR
[DUEL] Epoch ended. INSTR misses = 47, DATA misses = 55. Winner = INSTR
[DUEL] Epoch ended. INSTR misses = 52, DATA misses = 47. Winner = DATA
[DUEL] Epoch ended. INSTR misses = 58, DATA misses = 46. Winner = DATA
Heartbeat CPU 0 instructions: 10000002 cycles: 1812462 heartbeat IPC: 5.517 cumulative IPC: 5.517 (Simulation time: 00 hr 00 min 30 sec)
[DUEL] Epoch ended. INSTR misses = 33, DATA misses = 28. Winner = DATA
[DUEL] Epoch ended. INSTR misses = 113, DATA misses = 107. Winner = DATA
[DUEL] Epoch ended. INSTR misses = 297, DATA misses = 260. Winner = DATA
[DUEL] Epoch ended. INSTR misses = 248, DATA misses = 237. Winner = DATA
[DUEL] Epoch ended. INSTR misses = 50, DATA misses = 24. Winner = DATA
[DUEL] Epoch ended. INSTR misses = 145, DATA misses = 146. Winner = INSTR
[DUEL] Epoch ended. INSTR misses = 94, DATA misses = 97. Winner = INSTR
[DUEL] Epoch ended. INSTR misses = 115, DATA misses = 82. Winner = DATA
[DUEL] Epoch ended. INSTR misses = 176, DATA misses = 165. Winner = DATA
[DUEL] Epoch ended. INSTR misses = 63, DATA misses = 89. Winner = INSTR
[DUEL] Epoch ended. INSTR misses = 100, DATA misses = 103. Winner = INSTR
[DUEL] Epoch ended. INSTR misses = 295, DATA misses = 254. Winner = DATA
[DUEL] Epoch ended. INSTR misses = 283, DATA misses = 278. Winner = DATA
[DUEL] Epoch ended. INSTR misses = 99, DATA misses = 56. Winner = DATA
[DUEL] Epoch ended. INSTR misses = 93, DATA misses = 92. Winner = DATA
[DUEL] Epoch ended. INSTR misses = 94, DATA misses = 99. Winner = INSTR
[DUEL] Epoch ended. INSTR misses = 184, DATA misses = 170. Winner = DATA
[DUEL] Epoch ended. INSTR misses = 88, DATA misses = 102. Winner = INSTR
[DUEL] Epoch ended. INSTR misses = 46, DATA misses = 57. Winner = INSTR
[DUEL] Epoch ended. INSTR misses = 111, DATA misses = 96. Winner = DATA
Heartbeat CPU 0 instructions: 20000005 cycles: 3672283 heartbeat IPC: 5.377 cumulative IPC: 5.446 (Simulation time: 00 hr 01 min 02 sec)
[DUEL] Epoch ended. INSTR misses = 282, DATA misses = 260. Winner = DATA
[DUEL] Epoch ended. INSTR misses = 280, DATA misses = 260. Winner = DATA
[DUEL] Epoch ended. INSTR misses = 66, DATA misses = 65. Winner = DATA
[DUEL] Epoch ended. INSTR misses = 30, DATA misses = 42. Winner = INSTR
[DUEL] Epoch ended. INSTR misses = 28, DATA misses = 24. Winner = DATA
[DUEL] Epoch ended. INSTR misses = 88, DATA misses = 60. Winner = DATA
[DUEL] Epoch ended. INSTR misses = 61, DATA misses = 72. Winner = INSTR
[DUEL] Epoch ended. INSTR misses = 168, DATA misses = 162. Winner = DATA
[DUEL] Epoch ended. INSTR misses = 255, DATA misses = 234. Winner = DATA
[DUEL] Epoch ended. INSTR misses = 243, DATA misses = 218. Winner = DATA
[DUEL] Epoch ended. INSTR misses = 85, DATA misses = 86. Winner = INSTR
[DUEL] Epoch ended. INSTR misses = 87, DATA misses = 81. Winner = DATA
[DUEL] Epoch ended. INSTR misses = 166, DATA misses = 159. Winner = DATA
[DUEL] Epoch ended. INSTR misses = 64, DATA misses = 89. Winner = INSTR
[DUEL] Epoch ended. INSTR misses = 60, DATA misses = 44. Winner = DATA
[DUEL] Epoch ended. INSTR misses = 181, DATA misses = 149. Winner = DATA
[DUEL] Epoch ended. INSTR misses = 252, DATA misses = 246. Winner = DATA
[DUEL] Epoch ended. INSTR misses = 277, DATA misses = 228. Winner = DATA
[DUEL] Epoch ended. INSTR misses = 42, DATA misses = 62. Winner = INSTR
Heartbeat CPU 0 instructions: 30000009 cycles: 5513266 heartbeat IPC: 5.432 cumulative IPC: 5.441 (Simulation time: 00 hr 01 min 34 sec)
Warmup finished CPU 0 instructions: 30000009 cycles: 5513267 cumulative IPC: 5.441 (Simulation time: 00 hr 01 min 34 sec)
Warmup complete CPU 0 instructions: 30000009 cycles: 5513267 cumulative IPC: 5.441 (Simulation time: 00 hr 01 min 34 sec)
*** Reached end of trace: (0, "../traces/public_traces/compute_int/compute_int_2.champsimtrace.xz")
[DUEL] Epoch ended. INSTR misses = 104, DATA misses = 58. Winner = DATA
[DUEL] Epoch ended. INSTR misses = 95, DATA misses = 95. Winner = INSTR
[DUEL] Epoch ended. INSTR misses = 77, DATA misses = 60. Winner = DATA
[DUEL] Epoch ended. INSTR misses = 146, DATA misses = 125. Winner = DATA
[DUEL] Epoch ended. INSTR misses = 207, DATA misses = 199. Winner = DATA
[DUEL] Epoch ended. INSTR misses = 371, DATA misses = 322. Winner = DATA
[DUEL] Epoch ended. INSTR misses = 364, DATA misses = 335. Winner = DATA
[DUEL] Epoch ended. INSTR misses = 99, DATA misses = 124. Winner = INSTR
[DUEL] Epoch ended. INSTR misses = 135, DATA misses = 104. Winner = DATA
[DUEL] Epoch ended. INSTR misses = 201, DATA misses = 187. Winner = DATA
[DUEL] Epoch ended. INSTR misses = 83, DATA misses = 69. Winner = DATA
[DUEL] Epoch ended. INSTR misses = 115, DATA misses = 101. Winner = DATA
[DUEL] Epoch ended. INSTR misses = 92, DATA misses = 119. Winner = INSTR
[DUEL] Epoch ended. INSTR misses = 331, DATA misses = 308. Winner = DATA
[DUEL] Epoch ended. INSTR misses = 425, DATA misses = 372. Winner = DATA
[DUEL] Epoch ended. INSTR misses = 197, DATA misses = 140. Winner = DATA
[DUEL] Epoch ended. INSTR misses = 112, DATA misses = 123. Winner = INSTR
[DUEL] Epoch ended. INSTR misses = 93, DATA misses = 85. Winner = DATA
[DUEL] Epoch ended. INSTR misses = 83, DATA misses = 69. Winner = DATA
[DUEL] Epoch ended. INSTR misses = 63, DATA misses = 61. Winner = DATA
Heartbeat CPU 0 instructions: 40000000 cycles: 33193318 heartbeat IPC: 0.3613 cumulative IPC: 0.3613 (Simulation time: 00 hr 03 min 53 sec)
[DUEL] Epoch ended. INSTR misses = 61, DATA misses = 52. Winner = DATA
[DUEL] Epoch ended. INSTR misses = 313, DATA misses = 257. Winner = DATA
[DUEL] Epoch ended. INSTR misses = 412, DATA misses = 336. Winner = DATA
[DUEL] Epoch ended. INSTR misses = 252, DATA misses = 222. Winner = DATA
[DUEL] Epoch ended. INSTR misses = 130, DATA misses = 98. Winner = DATA
[DUEL] Epoch ended. INSTR misses = 194, DATA misses = 146. Winner = DATA
[DUEL] Epoch ended. INSTR misses = 131, DATA misses = 123. Winner = DATA
[DUEL] Epoch ended. INSTR misses = 130, DATA misses = 116. Winner = DATA
[DUEL] Epoch ended. INSTR misses = 204, DATA misses = 210. Winner = INSTR
[DUEL] Epoch ended. INSTR misses = 87, DATA misses = 84. Winner = DATA
[DUEL] Epoch ended. INSTR misses = 208, DATA misses = 230. Winner = INSTR
[DUEL] Epoch ended. INSTR misses = 409, DATA misses = 336. Winner = DATA
[DUEL] Epoch ended. INSTR misses = 306, DATA misses = 256. Winner = DATA
[DUEL] Epoch ended. INSTR misses = 137, DATA misses = 120. Winner = DATA
[DUEL] Epoch ended. INSTR misses = 132, DATA misses = 132. Winner = INSTR
[DUEL] Epoch ended. INSTR misses = 166, DATA misses = 172. Winner = INSTR
[DUEL] Epoch ended. INSTR misses = 194, DATA misses = 181. Winner = DATA
[DUEL] Epoch ended. INSTR misses = 113, DATA misses = 110. Winner = DATA
[DUEL] Epoch ended. INSTR misses = 60, DATA misses = 78. Winner = INSTR
Heartbeat CPU 0 instructions: 50000011 cycles: 64531425 heartbeat IPC: 0.3191 cumulative IPC: 0.3389 (Simulation time: 00 hr 06 min 26 sec)
[DUEL] Epoch ended. INSTR misses = 263, DATA misses = 246. Winner = DATA
[DUEL] Epoch ended. INSTR misses = 410, DATA misses = 323. Winner = DATA
[DUEL] Epoch ended. INSTR misses = 284, DATA misses = 269. Winner = DATA
[DUEL] Epoch ended. INSTR misses = 85, DATA misses = 79. Winner = DATA
[DUEL] Epoch ended. INSTR misses = 58, DATA misses = 61. Winner = INSTR
[DUEL] Epoch ended. INSTR misses = 58, DATA misses = 50. Winner = DATA
[DUEL] Epoch ended. INSTR misses = 148, DATA misses = 135. Winner = DATA
[DUEL] Epoch ended. INSTR misses = 98, DATA misses = 88. Winner = DATA
[DUEL] Epoch ended. INSTR misses = 322, DATA misses = 337. Winner = INSTR
[DUEL] Epoch ended. INSTR misses = 386, DATA misses = 304. Winner = DATA
[DUEL] Epoch ended. INSTR misses = 215, DATA misses = 199. Winner = DATA
[DUEL] Epoch ended. INSTR misses = 116, DATA misses = 99. Winner = DATA
[DUEL] Epoch ended. INSTR misses = 125, DATA misses = 113. Winner = DATA
[DUEL] Epoch ended. INSTR misses = 178, DATA misses = 211. Winner = INSTR
[DUEL] Epoch ended. INSTR misses = 83, DATA misses = 82. Winner = DATA
[DUEL] Epoch ended. INSTR misses = 125, DATA misses = 93. Winner = DATA
[DUEL] Epoch ended. INSTR misses = 330, DATA misses = 281. Winner = DATA
[DUEL] Epoch ended. INSTR misses = 384, DATA misses = 341. Winner = DATA
[DUEL] Epoch ended. INSTR misses = 251, DATA misses = 211. Winner = DATA
[DUEL] Epoch ended. INSTR misses = 74, DATA misses = 56. Winner = DATA
Heartbeat CPU 0 instructions: 60000009 cycles: 94986644 heartbeat IPC: 0.3284 cumulative IPC: 0.3353 (Simulation time: 00 hr 09 min 00 sec)
*** Reached end of trace: (0, "../traces/public_traces/compute_int/compute_int_2.champsimtrace.xz")
[DUEL] Epoch ended. INSTR misses = 94, DATA misses = 88. Winner = DATA
[DUEL] Epoch ended. INSTR misses = 71, DATA misses = 81. Winner = INSTR
[DUEL] Epoch ended. INSTR misses = 83, DATA misses = 70. Winner = DATA
[DUEL] Epoch ended. INSTR misses = 141, DATA misses = 150. Winner = INSTR
[DUEL] Epoch ended. INSTR misses = 288, DATA misses = 230. Winner = DATA
[DUEL] Epoch ended. INSTR misses = 354, DATA misses = 347. Winner = DATA
[DUEL] Epoch ended. INSTR misses = 286, DATA misses = 272. Winner = DATA
[DUEL] Epoch ended. INSTR misses = 113, DATA misses = 112. Winner = DATA
[DUEL] Epoch ended. INSTR misses = 151, DATA misses = 140. Winner = DATA
[DUEL] Epoch ended. INSTR misses = 123, DATA misses = 135. Winner = INSTR
[DUEL] Epoch ended. INSTR misses = 112, DATA misses = 77. Winner = DATA
[DUEL] Epoch ended. INSTR misses = 108, DATA misses = 99. Winner = DATA
[DUEL] Epoch ended. INSTR misses = 118, DATA misses = 171. Winner = INSTR
[DUEL] Epoch ended. INSTR misses = 387, DATA misses = 342. Winner = DATA
[DUEL] Epoch ended. INSTR misses = 380, DATA misses = 326. Winner = DATA
[DUEL] Epoch ended. INSTR misses = 140, DATA misses = 121. Winner = DATA
[DUEL] Epoch ended. INSTR misses = 77, DATA misses = 96. Winner = INSTR
[DUEL] Epoch ended. INSTR misses = 92, DATA misses = 85. Winner = DATA
[DUEL] Epoch ended. INSTR misses = 80, DATA misses = 77. Winner = DATA
Heartbeat CPU 0 instructions: 70000001 cycles: 122584175 heartbeat IPC: 0.3624 cumulative IPC: 0.3417 (Simulation time: 00 hr 11 min 18 sec)
[DUEL] Epoch ended. INSTR misses = 69, DATA misses = 46. Winner = DATA
[DUEL] Epoch ended. INSTR misses = 78, DATA misses = 74. Winner = DATA
[DUEL] Epoch ended. INSTR misses = 363, DATA misses = 343. Winner = DATA
[DUEL] Epoch ended. INSTR misses = 431, DATA misses = 351. Winner = DATA
[DUEL] Epoch ended. INSTR misses = 114, DATA misses = 96. Winner = DATA
[DUEL] Epoch ended. INSTR misses = 201, DATA misses = 155. Winner = DATA
[DUEL] Epoch ended. INSTR misses = 152, DATA misses = 125. Winner = DATA
[DUEL] Epoch ended. INSTR misses = 136, DATA misses = 103. Winner = DATA
[DUEL] Epoch ended. INSTR misses = 183, DATA misses = 175. Winner = DATA
[DUEL] Epoch ended. INSTR misses = 126, DATA misses = 150. Winner = INSTR
[DUEL] Epoch ended. INSTR misses = 91, DATA misses = 83. Winner = DATA
[DUEL] Epoch ended. INSTR misses = 350, DATA misses = 320. Winner = DATA
[DUEL] Epoch ended. INSTR misses = 386, DATA misses = 345. Winner = DATA
[DUEL] Epoch ended. INSTR misses = 182, DATA misses = 137. Winner = DATA
[DUEL] Epoch ended. INSTR misses = 139, DATA misses = 141. Winner = INSTR
[DUEL] Epoch ended. INSTR misses = 133, DATA misses = 121. Winner = DATA
[DUEL] Epoch ended. INSTR misses = 219, DATA misses = 215. Winner = DATA
[DUEL] Epoch ended. INSTR misses = 144, DATA misses = 130. Winner = DATA
[DUEL] Epoch ended. INSTR misses = 94, DATA misses = 114. Winner = INSTR
[DUEL] Epoch ended. INSTR misses = 86, DATA misses = 68. Winner = DATA
Heartbeat CPU 0 instructions: 80000005 cycles: 153418283 heartbeat IPC: 0.3243 cumulative IPC: 0.3381 (Simulation time: 00 hr 13 min 49 sec)
[DUEL] Epoch ended. INSTR misses = 367, DATA misses = 344. Winner = DATA
[DUEL] Epoch ended. INSTR misses = 414, DATA misses = 352. Winner = DATA
[DUEL] Epoch ended. INSTR misses = 147, DATA misses = 139. Winner = DATA
[DUEL] Epoch ended. INSTR misses = 71, DATA misses = 91. Winner = INSTR
[DUEL] Epoch ended. INSTR misses = 64, DATA misses = 53. Winner = DATA
[DUEL] Epoch ended. INSTR misses = 84, DATA misses = 74. Winner = DATA
[DUEL] Epoch ended. INSTR misses = 128, DATA misses = 126. Winner = DATA
[DUEL] Epoch ended. INSTR misses = 149, DATA misses = 137. Winner = DATA
[DUEL] Epoch ended. INSTR misses = 381, DATA misses = 328. Winner = DATA
[DUEL] Epoch ended. INSTR misses = 381, DATA misses = 336. Winner = DATA
[DUEL] Epoch ended. INSTR misses = 118, DATA misses = 125. Winner = INSTR
[DUEL] Epoch ended. INSTR misses = 118, DATA misses = 104. Winner = DATA
[DUEL] Epoch ended. INSTR misses = 172, DATA misses = 147. Winner = DATA
[DUEL] Epoch ended. INSTR misses = 147, DATA misses = 153. Winner = INSTR
[DUEL] Epoch ended. INSTR misses = 71, DATA misses = 86. Winner = INSTR
[DUEL] Epoch ended. INSTR misses = 170, DATA misses = 139. Winner = DATA
[DUEL] Epoch ended. INSTR misses = 380, DATA misses = 313. Winner = DATA
[DUEL] Epoch ended. INSTR misses = 411, DATA misses = 359. Winner = DATA
[DUEL] Epoch ended. INSTR misses = 129, DATA misses = 118. Winner = DATA
Heartbeat CPU 0 instructions: 90000003 cycles: 183801563 heartbeat IPC: 0.3291 cumulative IPC: 0.3365 (Simulation time: 00 hr 16 min 22 sec)
[DUEL] Epoch ended. INSTR misses = 91, DATA misses = 61. Winner = DATA
*** Reached end of trace: (0, "../traces/public_traces/compute_int/compute_int_2.champsimtrace.xz")
[DUEL] Epoch ended. INSTR misses = 108, DATA misses = 84. Winner = DATA
[DUEL] Epoch ended. INSTR misses = 66, DATA misses = 77. Winner = INSTR
[DUEL] Epoch ended. INSTR misses = 109, DATA misses = 85. Winner = DATA
[DUEL] Epoch ended. INSTR misses = 153, DATA misses = 152. Winner = DATA
[DUEL] Epoch ended. INSTR misses = 378, DATA misses = 303. Winner = DATA
[DUEL] Epoch ended. INSTR misses = 385, DATA misses = 382. Winner = DATA
[DUEL] Epoch ended. INSTR misses = 159, DATA misses = 153. Winner = DATA
[DUEL] Epoch ended. INSTR misses = 122, DATA misses = 104. Winner = DATA
[DUEL] Epoch ended. INSTR misses = 189, DATA misses = 188. Winner = DATA
[DUEL] Epoch ended. INSTR misses = 76, DATA misses = 86. Winner = INSTR
[DUEL] Epoch ended. INSTR misses = 114, DATA misses = 96. Winner = DATA
[DUEL] Epoch ended. INSTR misses = 115, DATA misses = 106. Winner = DATA
[DUEL] Epoch ended. INSTR misses = 210, DATA misses = 221. Winner = INSTR
[DUEL] Epoch ended. INSTR misses = 376, DATA misses = 338. Winner = DATA
[DUEL] Epoch ended. INSTR misses = 328, DATA misses = 261. Winner = DATA
[DUEL] Epoch ended. INSTR misses = 135, DATA misses = 129. Winner = DATA
[DUEL] Epoch ended. INSTR misses = 89, DATA misses = 89. Winner = INSTR
[DUEL] Epoch ended. INSTR misses = 81, DATA misses = 70. Winner = DATA
[DUEL] Epoch ended. INSTR misses = 92, DATA misses = 78. Winner = DATA
Heartbeat CPU 0 instructions: 100000000 cycles: 211177994 heartbeat IPC: 0.3653 cumulative IPC: 0.3404 (Simulation time: 00 hr 18 min 41 sec)
[DUEL] Epoch ended. INSTR misses = 61, DATA misses = 46. Winner = DATA
[DUEL] Epoch ended. INSTR misses = 168, DATA misses = 154. Winner = DATA
[DUEL] Epoch ended. INSTR misses = 389, DATA misses = 322. Winner = DATA
[DUEL] Epoch ended. INSTR misses = 347, DATA misses = 328. Winner = DATA
[DUEL] Epoch ended. INSTR misses = 95, DATA misses = 62. Winner = DATA
[DUEL] Epoch ended. INSTR misses = 200, DATA misses = 173. Winner = DATA
[DUEL] Epoch ended. INSTR misses = 144, DATA misses = 130. Winner = DATA
[DUEL] Epoch ended. INSTR misses = 145, DATA misses = 111. Winner = DATA
[DUEL] Epoch ended. INSTR misses = 222, DATA misses = 190. Winner = DATA
[DUEL] Epoch ended. INSTR misses = 81, DATA misses = 111. Winner = INSTR
[DUEL] Epoch ended. INSTR misses = 141, DATA misses = 147. Winner = INSTR
[DUEL] Epoch ended. INSTR misses = 382, DATA misses = 313. Winner = DATA
[DUEL] Epoch ended. INSTR misses = 393, DATA misses = 361. Winner = DATA
[DUEL] Epoch ended. INSTR misses = 121, DATA misses = 86. Winner = DATA
[DUEL] Epoch ended. INSTR misses = 137, DATA misses = 125. Winner = DATA
[DUEL] Epoch ended. INSTR misses = 132, DATA misses = 132. Winner = INSTR
[DUEL] Epoch ended. INSTR misses = 255, DATA misses = 213. Winner = DATA
[DUEL] Epoch ended. INSTR misses = 116, DATA misses = 125. Winner = INSTR
[DUEL] Epoch ended. INSTR misses = 83, DATA misses = 96. Winner = INSTR
Heartbeat CPU 0 instructions: 110000006 cycles: 241629896 heartbeat IPC: 0.3284 cumulative IPC: 0.3388 (Simulation time: 00 hr 21 min 10 sec)
[DUEL] Epoch ended. INSTR misses = 154, DATA misses = 151. Winner = DATA
[DUEL] Epoch ended. INSTR misses = 406, DATA misses = 335. Winner = DATA
[DUEL] Epoch ended. INSTR misses = 372, DATA misses = 351. Winner = DATA
[DUEL] Epoch ended. INSTR misses = 95, DATA misses = 83. Winner = DATA
[DUEL] Epoch ended. INSTR misses = 65, DATA misses = 80. Winner = INSTR
[DUEL] Epoch ended. INSTR misses = 49, DATA misses = 50. Winner = INSTR
[DUEL] Epoch ended. INSTR misses = 118, DATA misses = 100. Winner = DATA
[DUEL] Epoch ended. INSTR misses = 97, DATA misses = 105. Winner = INSTR
[DUEL] Epoch ended. INSTR misses = 233, DATA misses = 214. Winner = DATA
[DUEL] Epoch ended. INSTR misses = 380, DATA misses = 315. Winner = DATA
[DUEL] Epoch ended. INSTR misses = 326, DATA misses = 295. Winner = DATA
[DUEL] Epoch ended. INSTR misses = 110, DATA misses = 108. Winner = DATA
[DUEL] Epoch ended. INSTR misses = 110, DATA misses = 104. Winner = DATA
[DUEL] Epoch ended. INSTR misses = 217, DATA misses = 191. Winner = DATA
[DUEL] Epoch ended. INSTR misses = 104, DATA misses = 121. Winner = INSTR
[DUEL] Epoch ended. INSTR misses = 80, DATA misses = 71. Winner = DATA
[DUEL] Epoch ended. INSTR misses = 254, DATA misses = 203. Winner = DATA
[DUEL] Epoch ended. INSTR misses = 382, DATA misses = 322. Winner = DATA
[DUEL] Epoch ended. INSTR misses = 374, DATA misses = 309. Winner = DATA
[DUEL] Epoch ended. INSTR misses = 76, DATA misses = 93. Winner = INSTR
Heartbeat CPU 0 instructions: 120000000 cycles: 272054818 heartbeat IPC: 0.3287 cumulative IPC: 0.3377 (Simulation time: 00 hr 23 min 44 sec)
*** Reached end of trace: (0, "../traces/public_traces/compute_int/compute_int_2.champsimtrace.xz")
[DUEL] Epoch ended. INSTR misses = 118, DATA misses = 65. Winner = DATA
[DUEL] Epoch ended. INSTR misses = 95, DATA misses = 91. Winner = DATA
[DUEL] Epoch ended. INSTR misses = 74, DATA misses = 63. Winner = DATA
[DUEL] Epoch ended. INSTR misses = 138, DATA misses = 126. Winner = DATA
[DUEL] Epoch ended. INSTR misses = 211, DATA misses = 187. Winner = DATA
[DUEL] Epoch ended. INSTR misses = 382, DATA misses = 324. Winner = DATA
[DUEL] Epoch ended. INSTR misses = 368, DATA misses = 344. Winner = DATA
[DUEL] Epoch ended. INSTR misses = 105, DATA misses = 125. Winner = INSTR
[DUEL] Epoch ended. INSTR misses = 132, DATA misses = 104. Winner = DATA
[DUEL] Epoch ended. INSTR misses = 189, DATA misses = 180. Winner = DATA
[DUEL] Epoch ended. INSTR misses = 80, DATA misses = 72. Winner = DATA
[DUEL] Epoch ended. INSTR misses = 109, DATA misses = 103. Winner = DATA
[DUEL] Epoch ended. INSTR misses = 93, DATA misses = 116. Winner = INSTR
[DUEL] Epoch ended. INSTR misses = 317, DATA misses = 290. Winner = DATA
[DUEL] Epoch ended. INSTR misses = 395, DATA misses = 353. Winner = DATA
[DUEL] Epoch ended. INSTR misses = 226, DATA misses = 175. Winner = DATA
[DUEL] Epoch ended. INSTR misses = 113, DATA misses = 128. Winner = INSTR
[DUEL] Epoch ended. INSTR misses = 92, DATA misses = 79. Winner = DATA
[DUEL] Epoch ended. INSTR misses = 93, DATA misses = 72. Winner = DATA
Heartbeat CPU 0 instructions: 130000006 cycles: 299310276 heartbeat IPC: 0.3669 cumulative IPC: 0.3404 (Simulation time: 00 hr 26 min 01 sec)
Simulation finished CPU 0 instructions: 100000001 cycles: 293797012 cumulative IPC: 0.3404 (Simulation time: 00 hr 26 min 01 sec)
Simulation complete CPU 0 instructions: 100000001 cycles: 293797012 cumulative IPC: 0.3404 (Simulation time: 00 hr 26 min 01 sec)

ChampSim completed all CPUs

=== Simulation ===
CPU 0 runs ../traces/public_traces/compute_int/compute_int_2.champsimtrace.xz
Region of Interest Statistics

CPU 0 cumulative IPC: 0.3404 instructions: 100000001 cycles: 293797012
CPU 0 Branch Prediction Accuracy: 94.08% MPKI: 12.31 Average ROB Occupancy at Mispredict: 71.87
Branch type MPKI
BRANCH_DIRECT_JUMP: 0
BRANCH_INDIRECT: 11.1
BRANCH_CONDITIONAL: 1.24
BRANCH_DIRECT_CALL: 0
BRANCH_INDIRECT_CALL: 0
BRANCH_RETURN: 0.00016

LLC TOTAL        ACCESS:   12191472 HIT:    4778633 MISS:    7412839
LLC LOAD         ACCESS:    4487484 HIT:    2101709 MISS:    2385775
LLC RFO          ACCESS:     108806 HIT:      73969 MISS:      34837
LLC PREFETCH     ACCESS:    5172536 HIT:    1376163 MISS:    3796373
LLC WRITE        ACCESS:    1678907 HIT:    1205936 MISS:     472971
LLC TRANSLATION  ACCESS:     743739 HIT:      20856 MISS:     722883
LLC PREFETCH REQUESTED:          0 ISSUED:          0 USEFUL:          0 USELESS:          0
LLC AVERAGE MISS LATENCY: 530.9 cycles
cpu0_DTLB TOTAL        ACCESS:   19533577 HIT:    9869923 MISS:    9663654
cpu0_DTLB LOAD         ACCESS:   19533577 HIT:    9869923 MISS:    9663654
cpu0_DTLB RFO          ACCESS:          0 HIT:          0 MISS:          0
cpu0_DTLB PREFETCH     ACCESS:          0 HIT:          0 MISS:          0
cpu0_DTLB WRITE        ACCESS:          0 HIT:          0 MISS:          0
cpu0_DTLB TRANSLATION  ACCESS:          0 HIT:          0 MISS:          0
cpu0_DTLB PREFETCH REQUESTED:          0 ISSUED:          0 USEFUL:          0 USELESS:          0
cpu0_DTLB AVERAGE MISS LATENCY: 38.4 cycles
cpu0_ITLB TOTAL        ACCESS:       9486 HIT:       9486 MISS:          0
cpu0_ITLB LOAD         ACCESS:       9486 HIT:       9486 MISS:          0
cpu0_ITLB RFO          ACCESS:          0 HIT:          0 MISS:          0
cpu0_ITLB PREFETCH     ACCESS:          0 HIT:          0 MISS:          0
cpu0_ITLB WRITE        ACCESS:          0 HIT:          0 MISS:          0
cpu0_ITLB TRANSLATION  ACCESS:          0 HIT:          0 MISS:          0
cpu0_ITLB PREFETCH REQUESTED:          0 ISSUED:          0 USEFUL:          0 USELESS:          0
cpu0_ITLB AVERAGE MISS LATENCY: -nan cycles
cpu0_L1D TOTAL        ACCESS:   24610682 HIT:    9752146 MISS:   14858536
cpu0_L1D LOAD         ACCESS:   19673131 HIT:    5981977 MISS:   13691154
cpu0_L1D RFO          ACCESS:          0 HIT:          0 MISS:          0
cpu0_L1D PREFETCH     ACCESS:       4007 HIT:        296 MISS:       3711
cpu0_L1D WRITE        ACCESS:    3754488 HIT:    3554660 MISS:     199828
cpu0_L1D TRANSLATION  ACCESS:    1179056 HIT:     215213 MISS:     963843
cpu0_L1D PREFETCH REQUESTED:      14377 ISSUED:       4007 USEFUL:          0 USELESS:          0
cpu0_L1D AVERAGE MISS LATENCY: 92.97 cycles
cpu0_L1I TOTAL        ACCESS:      13639 HIT:      13523 MISS:        116
cpu0_L1I LOAD         ACCESS:       6688 HIT:       6614 MISS:         74
cpu0_L1I RFO          ACCESS:          0 HIT:          0 MISS:          0
cpu0_L1I PREFETCH     ACCESS:       6951 HIT:       6909 MISS:         42
cpu0_L1I WRITE        ACCESS:          0 HIT:          0 MISS:          0
cpu0_L1I TRANSLATION  ACCESS:          0 HIT:          0 MISS:          0
cpu0_L1I PREFETCH REQUESTED:       8122 ISSUED:       6951 USEFUL:         29 USELESS:          0
cpu0_L1I AVERAGE MISS LATENCY: 165.3 cycles
cpu0_L2C TOTAL        ACCESS:   23400917 HIT:   11793643 MISS:   11607274
cpu0_L2C LOAD         ACCESS:    9999646 HIT:    5493378 MISS:    4506268
cpu0_L2C RFO          ACCESS:     179661 HIT:      70852 MISS:     108809
cpu0_L2C PREFETCH     ACCESS:   10044665 HIT:    3796245 MISS:    6248420
cpu0_L2C WRITE        ACCESS:    2223884 HIT:    2223874 MISS:         10
cpu0_L2C TRANSLATION  ACCESS:     953061 HIT:     209294 MISS:     743767
cpu0_L2C PREFETCH REQUESTED:   10919501 ISSUED:   10042682 USEFUL:    2249400 USELESS:    2917028
cpu0_L2C AVERAGE MISS LATENCY: 357.6 cycles
cpu0_STLB TOTAL        ACCESS:    7018259 HIT:    6220580 MISS:     797679
cpu0_STLB LOAD         ACCESS:    7018259 HIT:    6220580 MISS:     797679
cpu0_STLB RFO          ACCESS:          0 HIT:          0 MISS:          0
cpu0_STLB PREFETCH     ACCESS:          0 HIT:          0 MISS:          0
cpu0_STLB WRITE        ACCESS:          0 HIT:          0 MISS:          0
cpu0_STLB TRANSLATION  ACCESS:          0 HIT:          0 MISS:          0
cpu0_STLB PREFETCH REQUESTED:          0 ISSUED:          0 USEFUL:          0 USELESS:          0
cpu0_STLB AVERAGE MISS LATENCY: 408.9 cycles

DRAM Statistics

Channel 0 RQ ROW_BUFFER_HIT:     367431
  ROW_BUFFER_MISS:    3127718
 AVG DBUS CONGESTED CYCLE: 3.937
WQ ROW_BUFFER_HIT: Channel 0 
  ROW_BUFFER_MISS:      17717
  FULL:     237136

Channel 1 RQ ROW_BUFFER_HIT:     355259
  ROW_BUFFER_MISS:    3086882
 AVG DBUS CONGESTED CYCLE: 3.931
WQ ROW_BUFFER_HIT: Channel 1 
  ROW_BUFFER_MISS:      18114
  FULL:     233109
BERTI TO_L1: 0 TO_L2: 14769 TO_L2_BC_MSHR: 0
BERTI AVG_LAT: 108.198 NUM_TRACK_LATENCY: 12991925 NUM_CANT_TRACK_LATENCY: 172
BERTI CROSS_PAGE 5705 NO_CROSS_PAGE: 9064
BERTI FOUND_BERTI: 34820936 NO_FOUND_BERTI: 8260665
BERTI AVERAGE_ISSUED: 1.0492
CPU 0 L1I Entangling prefetcher final stats
IP accesses: 6a 1a80 126 / 6688
IP misses: 46a7 11a9c0 27 / 74
IP hits: 0 0 0 / 0
IP late: 46a7 11a9c0 9 / 28
IP wrong: 0 0 0 / 0
miss rate: 0.0110646
coverage: 0
coverage_late: 0.378379
accuracy: 0
accuracy_late: 1
discarded: 0
evicts entangled j table: 0
evicts entangled k table: 1
max bb size: 11
formats: 0 0 1 0 0 0 0 
hist_lookups: 0 0 0 0 0 0 0 0 0 0 0 2 0 0 0 0 0 169 
hist_lookups_evict: 0 %
hist_lookups_shortlat: 98.8305 %
bb_found_hist: 0 1259 446 156 60 11 70 10 27 10 10 10 0 0 0 0 0 0 0 0 0 0 0 0 0 0 0 0 0 0 0 0 0 0 0 0 0 0 0 0 0 0 0 0 0 0 0 0 0 0 0 0 0 0 0 0 0 0 0 0 0 0 0 0 
bb_found_summary: 3920 2069 1.89464
entangled_found_hist: 0 604 136 199 20 0 0 0 
entangled_found_summary: 1553 959 1.6194
bb_ent_found_hist: 0 547 274 40 68 10 139 10 0 27 0 0 0 0 0 0 0 0 0 0 0 0 0 0 0 0 0 0 0 0 0 0 0 0 0 0 0 0 0 0 0 0 0 0 0 0 0 0 0 0 0 0 0 0 0 0 0 0 0 0 0 0 0 0 
bb_ent_found_summary: 2684 1115 2.40718
