WARNING: physical memory size is smaller than virtual memory size.

*** ChampSim Multicore Out-of-Order Simulator ***
Warmup Instructions: 30000000
Simulation Instructions: 100000000
Number of CPUs: 1
Page size: 4096

BTB:
Basic BTB sets: 1024 ways: 8
Indirect:
history lengths: 0 0 10 16 27 44 60 96 109 219 449 487 714 1313 2146 3881 
ITTAGE tables: 64768 bytes;Region table: 240 bytes;IUM: 384 bytes;Total Storage= 65392 bytes;
RAS:
RAS size: 64
[LLC] INSTR Demand IPV: 1 2 2 1 4 Prefetch IPV: 1 2 1 1 4
[LLC] DATA  Demand IPV: 1 1 1 2 4 Prefetch IPV: 1 1 2 2 4
Berti Prefetcher
CPU 0 Entangling prefetcher
Off-chip DRAM Size: 8 GiB Channels: 2 Width: 64-bit Data Race: 6400 MT/s
[DUEL] Epoch ended. INSTR misses = 3, DATA misses = 16. Winner = INSTR
[DUEL] Epoch ended. INSTR misses = 0, DATA misses = 0. Winner = INSTR
[DUEL] Epoch ended. INSTR misses = 2, DATA misses = 0. Winner = DATA
[DUEL] Epoch ended. INSTR misses = 0, DATA misses = 0. Winner = INSTR
[DUEL] Epoch ended. INSTR misses = 0, DATA misses = 0. Winner = INSTR
[DUEL] Epoch ended. INSTR misses = 0, DATA misses = 0. Winner = INSTR
[DUEL] Epoch ended. INSTR misses = 0, DATA misses = 0. Winner = INSTR
[DUEL] Epoch ended. INSTR misses = 0, DATA misses = 0. Winner = INSTR
[DUEL] Epoch ended. INSTR misses = 2, DATA misses = 0. Winner = DATA
[DUEL] Epoch ended. INSTR misses = 0, DATA misses = 9. Winner = INSTR
[DUEL] Epoch ended. INSTR misses = 0, DATA misses = 2. Winner = INSTR
[DUEL] Epoch ended. INSTR misses = 0, DATA misses = 0. Winner = INSTR
[DUEL] Epoch ended. INSTR misses = 0, DATA misses = 0. Winner = INSTR
[DUEL] Epoch ended. INSTR misses = 0, DATA misses = 2. Winner = INSTR
[DUEL] Epoch ended. INSTR misses = 2, DATA misses = 0. Winner = DATA
[DUEL] Epoch ended. INSTR misses = 0, DATA misses = 0. Winner = INSTR
[DUEL] Epoch ended. INSTR misses = 0, DATA misses = 0. Winner = INSTR
[DUEL] Epoch ended. INSTR misses = 0, DATA misses = 0. Winner = INSTR
[DUEL] Epoch ended. INSTR misses = 0, DATA misses = 0. Winner = INSTR
Heartbeat CPU 0 instructions: 10000000 cycles: 1676024 heartbeat IPC: 5.967 cumulative IPC: 5.967 (Simulation time: 00 hr 00 min 23 sec)
[DUEL] Epoch ended. INSTR misses = 0, DATA misses = 0. Winner = INSTR
[DUEL] Epoch ended. INSTR misses = 0, DATA misses = 0. Winner = INSTR
[DUEL] Epoch ended. INSTR misses = 0, DATA misses = 0. Winner = INSTR
[DUEL] Epoch ended. INSTR misses = 2, DATA misses = 0. Winner = DATA
[DUEL] Epoch ended. INSTR misses = 0, DATA misses = 0. Winner = INSTR
[DUEL] Epoch ended. INSTR misses = 0, DATA misses = 0. Winner = INSTR
[DUEL] Epoch ended. INSTR misses = 0, DATA misses = 0. Winner = INSTR
[DUEL] Epoch ended. INSTR misses = 0, DATA misses = 0. Winner = INSTR
[DUEL] Epoch ended. INSTR misses = 0, DATA misses = 0. Winner = INSTR
[DUEL] Epoch ended. INSTR misses = 0, DATA misses = 0. Winner = INSTR
[DUEL] Epoch ended. INSTR misses = 0, DATA misses = 0. Winner = INSTR
[DUEL] Epoch ended. INSTR misses = 0, DATA misses = 0. Winner = INSTR
[DUEL] Epoch ended. INSTR misses = 0, DATA misses = 0. Winner = INSTR
[DUEL] Epoch ended. INSTR misses = 0, DATA misses = 0. Winner = INSTR
[DUEL] Epoch ended. INSTR misses = 0, DATA misses = 0. Winner = INSTR
[DUEL] Epoch ended. INSTR misses = 0, DATA misses = 0. Winner = INSTR
[DUEL] Epoch ended. INSTR misses = 0, DATA misses = 0. Winner = INSTR
[DUEL] Epoch ended. INSTR misses = 0, DATA misses = 0. Winner = INSTR
Heartbeat CPU 0 instructions: 20000008 cycles: 3353020 heartbeat IPC: 5.963 cumulative IPC: 5.965 (Simulation time: 00 hr 00 min 46 sec)
[DUEL] Epoch ended. INSTR misses = 0, DATA misses = 0. Winner = INSTR
[DUEL] Epoch ended. INSTR misses = 0, DATA misses = 0. Winner = INSTR
[DUEL] Epoch ended. INSTR misses = 0, DATA misses = 0. Winner = INSTR
[DUEL] Epoch ended. INSTR misses = 0, DATA misses = 0. Winner = INSTR
[DUEL] Epoch ended. INSTR misses = 0, DATA misses = 0. Winner = INSTR
[DUEL] Epoch ended. INSTR misses = 0, DATA misses = 0. Winner = INSTR
[DUEL] Epoch ended. INSTR misses = 0, DATA misses = 1. Winner = INSTR
[DUEL] Epoch ended. INSTR misses = 0, DATA misses = 0. Winner = INSTR
[DUEL] Epoch ended. INSTR misses = 0, DATA misses = 0. Winner = INSTR
[DUEL] Epoch ended. INSTR misses = 0, DATA misses = 1. Winner = INSTR
[DUEL] Epoch ended. INSTR misses = 0, DATA misses = 0. Winner = INSTR
[DUEL] Epoch ended. INSTR misses = 0, DATA misses = 0. Winner = INSTR
[DUEL] Epoch ended. INSTR misses = 0, DATA misses = 0. Winner = INSTR
[DUEL] Epoch ended. INSTR misses = 0, DATA misses = 0. Winner = INSTR
[DUEL] Epoch ended. INSTR misses = 0, DATA misses = 0. Winner = INSTR
[DUEL] Epoch ended. INSTR misses = 0, DATA misses = 0. Winner = INSTR
[DUEL] Epoch ended. INSTR misses = 0, DATA misses = 0. Winner = INSTR
Heartbeat CPU 0 instructions: 30000003 cycles: 5028336 heartbeat IPC: 5.969 cumulative IPC: 5.966 (Simulation time: 00 hr 01 min 08 sec)
Warmup finished CPU 0 instructions: 30000003 cycles: 5028337 cumulative IPC: 5.966 (Simulation time: 00 hr 01 min 08 sec)
Warmup complete CPU 0 instructions: 30000003 cycles: 5028337 cumulative IPC: 5.966 (Simulation time: 00 hr 01 min 08 sec)
*** Reached end of trace: (0, "../traces/public_traces/compute_int/compute_int_43.champsimtrace.xz")
[DUEL] Epoch ended. INSTR misses = 0, DATA misses = 0. Winner = INSTR
[DUEL] Epoch ended. INSTR misses = 0, DATA misses = 0. Winner = INSTR
[DUEL] Epoch ended. INSTR misses = 0, DATA misses = 0. Winner = INSTR
[DUEL] Epoch ended. INSTR misses = 0, DATA misses = 0. Winner = INSTR
[DUEL] Epoch ended. INSTR misses = 0, DATA misses = 0. Winner = INSTR
[DUEL] Epoch ended. INSTR misses = 0, DATA misses = 0. Winner = INSTR
[DUEL] Epoch ended. INSTR misses = 0, DATA misses = 0. Winner = INSTR
[DUEL] Epoch ended. INSTR misses = 0, DATA misses = 0. Winner = INSTR
[DUEL] Epoch ended. INSTR misses = 0, DATA misses = 0. Winner = INSTR
[DUEL] Epoch ended. INSTR misses = 0, DATA misses = 0. Winner = INSTR
Heartbeat CPU 0 instructions: 40000011 cycles: 8888334 heartbeat IPC: 2.591 cumulative IPC: 2.591 (Simulation time: 00 hr 01 min 41 sec)
[DUEL] Epoch ended. INSTR misses = 0, DATA misses = 0. Winner = INSTR
[DUEL] Epoch ended. INSTR misses = 0, DATA misses = 0. Winner = INSTR
[DUEL] Epoch ended. INSTR misses = 0, DATA misses = 0. Winner = INSTR
[DUEL] Epoch ended. INSTR misses = 0, DATA misses = 0. Winner = INSTR
[DUEL] Epoch ended. INSTR misses = 0, DATA misses = 0. Winner = INSTR
[DUEL] Epoch ended. INSTR misses = 0, DATA misses = 0. Winner = INSTR
[DUEL] Epoch ended. INSTR misses = 0, DATA misses = 0. Winner = INSTR
[DUEL] Epoch ended. INSTR misses = 0, DATA misses = 0. Winner = INSTR
Heartbeat CPU 0 instructions: 50000003 cycles: 12688538 heartbeat IPC: 2.631 cumulative IPC: 2.611 (Simulation time: 00 hr 02 min 14 sec)
[DUEL] Epoch ended. INSTR misses = 0, DATA misses = 0. Winner = INSTR
[DUEL] Epoch ended. INSTR misses = 0, DATA misses = 0. Winner = INSTR
Heartbeat CPU 0 instructions: 60000008 cycles: 16485182 heartbeat IPC: 2.634 cumulative IPC: 2.619 (Simulation time: 00 hr 02 min 47 sec)
*** Reached end of trace: (0, "../traces/public_traces/compute_int/compute_int_43.champsimtrace.xz")
[DUEL] Epoch ended. INSTR misses = 0, DATA misses = 0. Winner = INSTR
[DUEL] Epoch ended. INSTR misses = 0, DATA misses = 0. Winner = INSTR
[DUEL] Epoch ended. INSTR misses = 0, DATA misses = 0. Winner = INSTR
[DUEL] Epoch ended. INSTR misses = 0, DATA misses = 0. Winner = INSTR
[DUEL] Epoch ended. INSTR misses = 0, DATA misses = 0. Winner = INSTR
Heartbeat CPU 0 instructions: 70000005 cycles: 20293962 heartbeat IPC: 2.626 cumulative IPC: 2.62 (Simulation time: 00 hr 03 min 20 sec)
[DUEL] Epoch ended. INSTR misses = 0, DATA misses = 0. Winner = INSTR
[DUEL] Epoch ended. INSTR misses = 0, DATA misses = 0. Winner = INSTR
[DUEL] Epoch ended. INSTR misses = 0, DATA misses = 0. Winner = INSTR
Heartbeat CPU 0 instructions: 80000002 cycles: 24065311 heartbeat IPC: 2.652 cumulative IPC: 2.626 (Simulation time: 00 hr 03 min 53 sec)
[DUEL] Epoch ended. INSTR misses = 0, DATA misses = 0. Winner = INSTR
Heartbeat CPU 0 instructions: 90000005 cycles: 27806660 heartbeat IPC: 2.673 cumulative IPC: 2.634 (Simulation time: 00 hr 04 min 25 sec)
*** Reached end of trace: (0, "../traces/public_traces/compute_int/compute_int_43.champsimtrace.xz")
[DUEL] Epoch ended. INSTR misses = 0, DATA misses = 0. Winner = INSTR
[DUEL] Epoch ended. INSTR misses = 0, DATA misses = 0. Winner = INSTR
[DUEL] Epoch ended. INSTR misses = 0, DATA misses = 0. Winner = INSTR
[DUEL] Epoch ended. INSTR misses = 0, DATA misses = 0. Winner = INSTR
[DUEL] Epoch ended. INSTR misses = 0, DATA misses = 0. Winner = INSTR
[DUEL] Epoch ended. INSTR misses = 0, DATA misses = 0. Winner = INSTR
Heartbeat CPU 0 instructions: 100000008 cycles: 31580087 heartbeat IPC: 2.65 cumulative IPC: 2.636 (Simulation time: 00 hr 04 min 58 sec)
[DUEL] Epoch ended. INSTR misses = 0, DATA misses = 0. Winner = INSTR
[DUEL] Epoch ended. INSTR misses = 0, DATA misses = 0. Winner = INSTR
Heartbeat CPU 0 instructions: 110000002 cycles: 35321985 heartbeat IPC: 2.672 cumulative IPC: 2.641 (Simulation time: 00 hr 05 min 31 sec)
[DUEL] Epoch ended. INSTR misses = 0, DATA misses = 0. Winner = INSTR
[DUEL] Epoch ended. INSTR misses = 0, DATA misses = 0. Winner = INSTR
Heartbeat CPU 0 instructions: 120000009 cycles: 39041055 heartbeat IPC: 2.689 cumulative IPC: 2.646 (Simulation time: 00 hr 06 min 03 sec)
*** Reached end of trace: (0, "../traces/public_traces/compute_int/compute_int_43.champsimtrace.xz")
[DUEL] Epoch ended. INSTR misses = 0, DATA misses = 0. Winner = INSTR
[DUEL] Epoch ended. INSTR misses = 0, DATA misses = 0. Winner = INSTR
[DUEL] Epoch ended. INSTR misses = 0, DATA misses = 0. Winner = INSTR
[DUEL] Epoch ended. INSTR misses = 0, DATA misses = 0. Winner = INSTR
Heartbeat CPU 0 instructions: 130000000 cycles: 42801424 heartbeat IPC: 2.659 cumulative IPC: 2.647 (Simulation time: 00 hr 06 min 36 sec)
Simulation finished CPU 0 instructions: 100000002 cycles: 37773091 cumulative IPC: 2.647 (Simulation time: 00 hr 06 min 36 sec)
Simulation complete CPU 0 instructions: 100000002 cycles: 37773091 cumulative IPC: 2.647 (Simulation time: 00 hr 06 min 36 sec)

ChampSim completed all CPUs

=== Simulation ===
CPU 0 runs ../traces/public_traces/compute_int/compute_int_43.champsimtrace.xz
Region of Interest Statistics

CPU 0 cumulative IPC: 2.647 instructions: 100000002 cycles: 37773091
CPU 0 Branch Prediction Accuracy: 92.04% MPKI: 11.46 Average ROB Occupancy at Mispredict: 19.11
Branch type MPKI
BRANCH_DIRECT_JUMP: 0
BRANCH_INDIRECT: 3.2
BRANCH_CONDITIONAL: 8.26
BRANCH_DIRECT_CALL: 0
BRANCH_INDIRECT_CALL: 0
BRANCH_RETURN: 0.0002

LLC TOTAL        ACCESS:        570 HIT:         27 MISS:        543
LLC LOAD         ACCESS:         14 HIT:         13 MISS:          1
LLC RFO          ACCESS:          0 HIT:          0 MISS:          0
LLC PREFETCH     ACCESS:        551 HIT:         13 MISS:        538
LLC WRITE        ACCESS:          0 HIT:          0 MISS:          0
LLC TRANSLATION  ACCESS:          5 HIT:          1 MISS:          4
LLC PREFETCH REQUESTED:          0 ISSUED:          0 USEFUL:          0 USELESS:          0
LLC AVERAGE MISS LATENCY: 367.8 cycles
cpu0_DTLB TOTAL        ACCESS:   17093602 HIT:   17040199 MISS:      53403
cpu0_DTLB LOAD         ACCESS:   17093602 HIT:   17040199 MISS:      53403
cpu0_DTLB RFO          ACCESS:          0 HIT:          0 MISS:          0
cpu0_DTLB PREFETCH     ACCESS:          0 HIT:          0 MISS:          0
cpu0_DTLB WRITE        ACCESS:          0 HIT:          0 MISS:          0
cpu0_DTLB TRANSLATION  ACCESS:          0 HIT:          0 MISS:          0
cpu0_DTLB PREFETCH REQUESTED:          0 ISSUED:          0 USEFUL:          0 USELESS:          0
cpu0_DTLB AVERAGE MISS LATENCY: 4.649 cycles
cpu0_ITLB TOTAL        ACCESS:   11763661 HIT:   11763661 MISS:          0
cpu0_ITLB LOAD         ACCESS:   11763661 HIT:   11763661 MISS:          0
cpu0_ITLB RFO          ACCESS:          0 HIT:          0 MISS:          0
cpu0_ITLB PREFETCH     ACCESS:          0 HIT:          0 MISS:          0
cpu0_ITLB WRITE        ACCESS:          0 HIT:          0 MISS:          0
cpu0_ITLB TRANSLATION  ACCESS:          0 HIT:          0 MISS:          0
cpu0_ITLB PREFETCH REQUESTED:          0 ISSUED:          0 USEFUL:          0 USELESS:          0
cpu0_ITLB AVERAGE MISS LATENCY: -nan cycles
cpu0_L1D TOTAL        ACCESS:   25875415 HIT:   25173491 MISS:     701924
cpu0_L1D LOAD         ACCESS:   20055862 HIT:   19699944 MISS:     355918
cpu0_L1D RFO          ACCESS:          0 HIT:          0 MISS:          0
cpu0_L1D PREFETCH     ACCESS:     401938 HIT:     192137 MISS:     209801
cpu0_L1D WRITE        ACCESS:    5417596 HIT:    5281407 MISS:     136189
cpu0_L1D TRANSLATION  ACCESS:         19 HIT:          3 MISS:         16
cpu0_L1D PREFETCH REQUESTED:     541028 ISSUED:     401911 USEFUL:      26134 USELESS:      10089
cpu0_L1D AVERAGE MISS LATENCY: 3.652 cycles
cpu0_L1I TOTAL        ACCESS:   19985754 HIT:   19983602 MISS:       2152
cpu0_L1I LOAD         ACCESS:    3695937 HIT:    3695324 MISS:        613
cpu0_L1I RFO          ACCESS:          0 HIT:          0 MISS:          0
cpu0_L1I PREFETCH     ACCESS:   16289817 HIT:   16288278 MISS:       1539
cpu0_L1I WRITE        ACCESS:          0 HIT:          0 MISS:          0
cpu0_L1I TRANSLATION  ACCESS:          0 HIT:          0 MISS:          0
cpu0_L1I PREFETCH REQUESTED:   39835563 ISSUED:   16289817 USEFUL:       1399 USELESS:          0
cpu0_L1I AVERAGE MISS LATENCY: 12.36 cycles
cpu0_L2C TOTAL        ACCESS:     824273 HIT:     823589 MISS:        684
cpu0_L2C LOAD         ACCESS:     203817 HIT:     203803 MISS:         14
cpu0_L2C RFO          ACCESS:      38885 HIT:      38885 MISS:          0
cpu0_L2C PREFETCH     ACCESS:     511463 HIT:     510798 MISS:        665
cpu0_L2C WRITE        ACCESS:      70092 HIT:      70092 MISS:          0
cpu0_L2C TRANSLATION  ACCESS:         16 HIT:         11 MISS:          5
cpu0_L2C PREFETCH REQUESTED:     378126 ISSUED:     337457 USEFUL:         73 USELESS:         12
cpu0_L2C AVERAGE MISS LATENCY: 309.4 cycles
cpu0_STLB TOTAL        ACCESS:      35785 HIT:      35766 MISS:         19
cpu0_STLB LOAD         ACCESS:      35785 HIT:      35766 MISS:         19
cpu0_STLB RFO          ACCESS:          0 HIT:          0 MISS:          0
cpu0_STLB PREFETCH     ACCESS:          0 HIT:          0 MISS:          0
cpu0_STLB WRITE        ACCESS:          0 HIT:          0 MISS:          0
cpu0_STLB TRANSLATION  ACCESS:          0 HIT:          0 MISS:          0
cpu0_STLB PREFETCH REQUESTED:          0 ISSUED:          0 USEFUL:          0 USELESS:          0
cpu0_STLB AVERAGE MISS LATENCY: 180.6 cycles

DRAM Statistics

Channel 0 RQ ROW_BUFFER_HIT:         92
  ROW_BUFFER_MISS:        180
 AVG DBUS CONGESTED CYCLE: 3.845
WQ ROW_BUFFER_HIT: Channel 0 
  ROW_BUFFER_MISS:          0
  FULL:          0

Channel 1 RQ ROW_BUFFER_HIT:        101
  ROW_BUFFER_MISS:        170
 AVG DBUS CONGESTED CYCLE: 3.827
WQ ROW_BUFFER_HIT: Channel 1 
  ROW_BUFFER_MISS:          0
  FULL:          0
BERTI TO_L1: 273698 TO_L2: 505823 TO_L2_BC_MSHR: 7358
BERTI AVG_LAT: 12.9959 NUM_TRACK_LATENCY: 313323 NUM_CANT_TRACK_LATENCY: 0
BERTI CROSS_PAGE 96106 NO_CROSS_PAGE: 683415
BERTI FOUND_BERTI: 2784265 NO_FOUND_BERTI: 23414990
BERTI AVERAGE_ISSUED: 4.02136
CPU 0 L1I Entangling prefetcher final stats
IP accesses: 2d4 b500 129850 / 3695937
IP misses: 2d3 b4c0 16 / 613
IP hits: 0 0 0 / 0
IP late: 99 2640 4 / 357
IP wrong: 0 0 0 / 0
miss rate: 0.000165858
coverage: 0
coverage_late: 0.582382
accuracy: 0
accuracy_late: 1
discarded: 0
evicts entangled j table: 0
evicts entangled k table: 58
max bb size: 36
formats: 1 0 82 25 11 48 0 
hist_lookups: 37 44 42 46 44 38 32 19 17 15 7 4 1 0 0 0 0 98 
hist_lookups_evict: 0 %
hist_lookups_shortlat: 22.0721 %
bb_found_hist: 0 274292 209519 238773 174468 148881 108277 115790 48311 57818 58631 194947 199433 72321 206737 88652 44107 112731 111881 77419 77605 0 0 70570 25551 27131 10644 0 0 34477 0 0 0 0 0 36693 21535 0 0 0 0 0 0 0 0 0 0 0 0 0 0 0 0 0 0 0 0 0 0 0 0 0 0 0 
bb_found_summary: 29416921 2847194 10.3319
entangled_found_hist: 0 571952 158741 35271 9031 3936 327 0 
entangled_found_summary: 1053013 779258 1.35131
bb_ent_found_hist: 0 229237 57259 116924 66020 34896 1098 3610 257 3222 888 95322 7675 617 74270 31263 27523 10470 17 84997 20699 0 0 0 44098 0 0 0 0 21157 0 0 0 0 0 25645 8005 0 0 0 0 0 0 0 0 0 0 0 0 0 0 0 0 0 0 0 0 0 0 0 0 0 0 0 
bb_ent_found_summary: 9367514 965169 9.70557
