WARNING: physical memory size is smaller than virtual memory size.

*** ChampSim Multicore Out-of-Order Simulator ***
Warmup Instructions: 30000000
Simulation Instructions: 100000000
Number of CPUs: 1
Page size: 4096

BTB:
Basic BTB sets: 1024 ways: 8
Indirect:
history lengths: 0 0 10 16 27 44 60 96 109 219 449 487 714 1313 2146 3881 
ITTAGE tables: 64768 bytes;Region table: 240 bytes;IUM: 384 bytes;Total Storage= 65392 bytes;
RAS:
RAS size: 64
[LLC] INSTR Demand IPV: 1 2 2 1 4 Prefetch IPV: 1 2 1 1 4
[LLC] DATA  Demand IPV: 1 1 1 2 4 Prefetch IPV: 1 1 2 2 4
Berti Prefetcher
CPU 0 Entangling prefetcher
Off-chip DRAM Size: 8 GiB Channels: 2 Width: 64-bit Data Race: 6400 MT/s
[DUEL] Epoch ended. INSTR misses = 31, DATA misses = 25. Winner = DATA
[DUEL] Epoch ended. INSTR misses = 23, DATA misses = 36. Winner = INSTR
[DUEL] Epoch ended. INSTR misses = 45, DATA misses = 20. Winner = DATA
[DUEL] Epoch ended. INSTR misses = 13, DATA misses = 15. Winner = INSTR
[DUEL] Epoch ended. INSTR misses = 3, DATA misses = 1. Winner = DATA
[DUEL] Epoch ended. INSTR misses = 114, DATA misses = 111. Winner = DATA
[DUEL] Epoch ended. INSTR misses = 27, DATA misses = 30. Winner = INSTR
[DUEL] Epoch ended. INSTR misses = 10, DATA misses = 13. Winner = INSTR
[DUEL] Epoch ended. INSTR misses = 39, DATA misses = 13. Winner = DATA
[DUEL] Epoch ended. INSTR misses = 27, DATA misses = 31. Winner = INSTR
[DUEL] Epoch ended. INSTR misses = 4, DATA misses = 3. Winner = DATA
[DUEL] Epoch ended. INSTR misses = 7, DATA misses = 2. Winner = DATA
[DUEL] Epoch ended. INSTR misses = 1, DATA misses = 0. Winner = DATA
[DUEL] Epoch ended. INSTR misses = 0, DATA misses = 0. Winner = INSTR
[DUEL] Epoch ended. INSTR misses = 0, DATA misses = 0. Winner = INSTR
[DUEL] Epoch ended. INSTR misses = 17, DATA misses = 16. Winner = DATA
[DUEL] Epoch ended. INSTR misses = 24, DATA misses = 37. Winner = INSTR
[DUEL] Epoch ended. INSTR misses = 63, DATA misses = 79. Winner = INSTR
[DUEL] Epoch ended. INSTR misses = 115, DATA misses = 122. Winner = INSTR
Heartbeat CPU 0 instructions: 10000011 cycles: 2121325 heartbeat IPC: 4.714 cumulative IPC: 4.714 (Simulation time: 00 hr 00 min 29 sec)
[DUEL] Epoch ended. INSTR misses = 18, DATA misses = 10. Winner = DATA
[DUEL] Epoch ended. INSTR misses = 32, DATA misses = 33. Winner = INSTR
[DUEL] Epoch ended. INSTR misses = 11, DATA misses = 33. Winner = INSTR
[DUEL] Epoch ended. INSTR misses = 18, DATA misses = 15. Winner = DATA
[DUEL] Epoch ended. INSTR misses = 10, DATA misses = 8. Winner = DATA
[DUEL] Epoch ended. INSTR misses = 34, DATA misses = 8. Winner = DATA
[DUEL] Epoch ended. INSTR misses = 10, DATA misses = 20. Winner = INSTR
[DUEL] Epoch ended. INSTR misses = 21, DATA misses = 1. Winner = DATA
[DUEL] Epoch ended. INSTR misses = 1, DATA misses = 15. Winner = INSTR
[DUEL] Epoch ended. INSTR misses = 27, DATA misses = 16. Winner = DATA
[DUEL] Epoch ended. INSTR misses = 3, DATA misses = 10. Winner = INSTR
[DUEL] Epoch ended. INSTR misses = 3, DATA misses = 14. Winner = INSTR
[DUEL] Epoch ended. INSTR misses = 36, DATA misses = 25. Winner = DATA
[DUEL] Epoch ended. INSTR misses = 25, DATA misses = 20. Winner = DATA
[DUEL] Epoch ended. INSTR misses = 20, DATA misses = 20. Winner = INSTR
[DUEL] Epoch ended. INSTR misses = 28, DATA misses = 41. Winner = INSTR
[DUEL] Epoch ended. INSTR misses = 1, DATA misses = 0. Winner = DATA
[DUEL] Epoch ended. INSTR misses = 9, DATA misses = 10. Winner = INSTR
[DUEL] Epoch ended. INSTR misses = 12, DATA misses = 26. Winner = INSTR
[DUEL] Epoch ended. INSTR misses = 38, DATA misses = 23. Winner = DATA
Heartbeat CPU 0 instructions: 20000005 cycles: 4293323 heartbeat IPC: 4.604 cumulative IPC: 4.658 (Simulation time: 00 hr 00 min 57 sec)
[DUEL] Epoch ended. INSTR misses = 9, DATA misses = 20. Winner = INSTR
[DUEL] Epoch ended. INSTR misses = 4, DATA misses = 7. Winner = INSTR
[DUEL] Epoch ended. INSTR misses = 8, DATA misses = 5. Winner = DATA
[DUEL] Epoch ended. INSTR misses = 9, DATA misses = 8. Winner = DATA
[DUEL] Epoch ended. INSTR misses = 18, DATA misses = 30. Winner = INSTR
[DUEL] Epoch ended. INSTR misses = 67, DATA misses = 67. Winner = INSTR
[DUEL] Epoch ended. INSTR misses = 58, DATA misses = 70. Winner = INSTR
[DUEL] Epoch ended. INSTR misses = 35, DATA misses = 32. Winner = DATA
[DUEL] Epoch ended. INSTR misses = 40, DATA misses = 64. Winner = INSTR
[DUEL] Epoch ended. INSTR misses = 83, DATA misses = 66. Winner = DATA
[DUEL] Epoch ended. INSTR misses = 81, DATA misses = 50. Winner = DATA
[DUEL] Epoch ended. INSTR misses = 5, DATA misses = 1. Winner = DATA
[DUEL] Epoch ended. INSTR misses = 1, DATA misses = 1. Winner = INSTR
[DUEL] Epoch ended. INSTR misses = 0, DATA misses = 1. Winner = INSTR
[DUEL] Epoch ended. INSTR misses = 2, DATA misses = 0. Winner = DATA
[DUEL] Epoch ended. INSTR misses = 3, DATA misses = 4. Winner = INSTR
[DUEL] Epoch ended. INSTR misses = 19, DATA misses = 0. Winner = DATA
[DUEL] Epoch ended. INSTR misses = 7, DATA misses = 4. Winner = DATA
[DUEL] Epoch ended. INSTR misses = 11, DATA misses = 15. Winner = INSTR
Heartbeat CPU 0 instructions: 30000004 cycles: 6443869 heartbeat IPC: 4.65 cumulative IPC: 4.656 (Simulation time: 00 hr 01 min 25 sec)
Warmup finished CPU 0 instructions: 30000004 cycles: 6443870 cumulative IPC: 4.656 (Simulation time: 00 hr 01 min 25 sec)
Warmup complete CPU 0 instructions: 30000004 cycles: 6443870 cumulative IPC: 4.656 (Simulation time: 00 hr 01 min 25 sec)
[DUEL] Epoch ended. INSTR misses = 0, DATA misses = 0. Winner = INSTR
*** Reached end of trace: (0, "../traces/public_traces/compute_int/compute_int_31.champsimtrace.xz")
[DUEL] Epoch ended. INSTR misses = 15, DATA misses = 9. Winner = DATA
[DUEL] Epoch ended. INSTR misses = 23, DATA misses = 36. Winner = INSTR
[DUEL] Epoch ended. INSTR misses = 47, DATA misses = 19. Winner = DATA
[DUEL] Epoch ended. INSTR misses = 15, DATA misses = 13. Winner = DATA
[DUEL] Epoch ended. INSTR misses = 4, DATA misses = 1. Winner = DATA
[DUEL] Epoch ended. INSTR misses = 61, DATA misses = 51. Winner = DATA
[DUEL] Epoch ended. INSTR misses = 16, DATA misses = 22. Winner = INSTR
[DUEL] Epoch ended. INSTR misses = 2, DATA misses = 2. Winner = INSTR
[DUEL] Epoch ended. INSTR misses = 42, DATA misses = 17. Winner = DATA
[DUEL] Epoch ended. INSTR misses = 11, DATA misses = 10. Winner = DATA
[DUEL] Epoch ended. INSTR misses = 5, DATA misses = 2. Winner = DATA
[DUEL] Epoch ended. INSTR misses = 4, DATA misses = 1. Winner = DATA
[DUEL] Epoch ended. INSTR misses = 5, DATA misses = 3. Winner = DATA
[DUEL] Epoch ended. INSTR misses = 0, DATA misses = 0. Winner = INSTR
[DUEL] Epoch ended. INSTR misses = 0, DATA misses = 0. Winner = INSTR
[DUEL] Epoch ended. INSTR misses = 7, DATA misses = 3. Winner = DATA
[DUEL] Epoch ended. INSTR misses = 19, DATA misses = 15. Winner = DATA
[DUEL] Epoch ended. INSTR misses = 58, DATA misses = 71. Winner = INSTR
[DUEL] Epoch ended. INSTR misses = 113, DATA misses = 114. Winner = INSTR
Heartbeat CPU 0 instructions: 40000003 cycles: 12407986 heartbeat IPC: 1.677 cumulative IPC: 1.677 (Simulation time: 00 hr 02 min 17 sec)
[DUEL] Epoch ended. INSTR misses = 22, DATA misses = 14. Winner = DATA
[DUEL] Epoch ended. INSTR misses = 25, DATA misses = 30. Winner = INSTR
[DUEL] Epoch ended. INSTR misses = 12, DATA misses = 18. Winner = INSTR
[DUEL] Epoch ended. INSTR misses = 14, DATA misses = 8. Winner = DATA
[DUEL] Epoch ended. INSTR misses = 12, DATA misses = 10. Winner = DATA
[DUEL] Epoch ended. INSTR misses = 30, DATA misses = 7. Winner = DATA
[DUEL] Epoch ended. INSTR misses = 12, DATA misses = 20. Winner = INSTR
[DUEL] Epoch ended. INSTR misses = 18, DATA misses = 2. Winner = DATA
[DUEL] Epoch ended. INSTR misses = 3, DATA misses = 10. Winner = INSTR
[DUEL] Epoch ended. INSTR misses = 22, DATA misses = 7. Winner = DATA
[DUEL] Epoch ended. INSTR misses = 12, DATA misses = 15. Winner = INSTR
[DUEL] Epoch ended. INSTR misses = 3, DATA misses = 12. Winner = INSTR
[DUEL] Epoch ended. INSTR misses = 28, DATA misses = 17. Winner = DATA
[DUEL] Epoch ended. INSTR misses = 25, DATA misses = 21. Winner = DATA
[DUEL] Epoch ended. INSTR misses = 13, DATA misses = 14. Winner = INSTR
[DUEL] Epoch ended. INSTR misses = 31, DATA misses = 33. Winner = INSTR
[DUEL] Epoch ended. INSTR misses = 4, DATA misses = 1. Winner = DATA
[DUEL] Epoch ended. INSTR misses = 12, DATA misses = 3. Winner = DATA
[DUEL] Epoch ended. INSTR misses = 22, DATA misses = 19. Winner = DATA
Heartbeat CPU 0 instructions: 50000000 cycles: 16921142 heartbeat IPC: 2.216 cumulative IPC: 1.909 (Simulation time: 00 hr 02 min 59 sec)
[DUEL] Epoch ended. INSTR misses = 27, DATA misses = 22. Winner = DATA
[DUEL] Epoch ended. INSTR misses = 5, DATA misses = 15. Winner = INSTR
[DUEL] Epoch ended. INSTR misses = 4, DATA misses = 6. Winner = INSTR
[DUEL] Epoch ended. INSTR misses = 9, DATA misses = 4. Winner = DATA
[DUEL] Epoch ended. INSTR misses = 10, DATA misses = 7. Winner = DATA
[DUEL] Epoch ended. INSTR misses = 16, DATA misses = 29. Winner = INSTR
[DUEL] Epoch ended. INSTR misses = 69, DATA misses = 69. Winner = INSTR
[DUEL] Epoch ended. INSTR misses = 58, DATA misses = 70. Winner = INSTR
[DUEL] Epoch ended. INSTR misses = 35, DATA misses = 31. Winner = DATA
[DUEL] Epoch ended. INSTR misses = 44, DATA misses = 59. Winner = INSTR
[DUEL] Epoch ended. INSTR misses = 93, DATA misses = 58. Winner = DATA
[DUEL] Epoch ended. INSTR misses = 79, DATA misses = 42. Winner = DATA
[DUEL] Epoch ended. INSTR misses = 9, DATA misses = 1. Winner = DATA
[DUEL] Epoch ended. INSTR misses = 2, DATA misses = 1. Winner = DATA
[DUEL] Epoch ended. INSTR misses = 0, DATA misses = 1. Winner = INSTR
[DUEL] Epoch ended. INSTR misses = 0, DATA misses = 0. Winner = INSTR
[DUEL] Epoch ended. INSTR misses = 2, DATA misses = 4. Winner = INSTR
[DUEL] Epoch ended. INSTR misses = 21, DATA misses = 4. Winner = DATA
[DUEL] Epoch ended. INSTR misses = 6, DATA misses = 2. Winner = DATA
Heartbeat CPU 0 instructions: 60000001 cycles: 22480130 heartbeat IPC: 1.799 cumulative IPC: 1.871 (Simulation time: 00 hr 03 min 46 sec)
[DUEL] Epoch ended. INSTR misses = 15, DATA misses = 12. Winner = DATA
[DUEL] Epoch ended. INSTR misses = 0, DATA misses = 0. Winner = INSTR
*** Reached end of trace: (0, "../traces/public_traces/compute_int/compute_int_31.champsimtrace.xz")
[DUEL] Epoch ended. INSTR misses = 16, DATA misses = 9. Winner = DATA
[DUEL] Epoch ended. INSTR misses = 24, DATA misses = 36. Winner = INSTR
[DUEL] Epoch ended. INSTR misses = 48, DATA misses = 19. Winner = DATA
[DUEL] Epoch ended. INSTR misses = 15, DATA misses = 14. Winner = DATA
[DUEL] Epoch ended. INSTR misses = 3, DATA misses = 1. Winner = DATA
[DUEL] Epoch ended. INSTR misses = 78, DATA misses = 62. Winner = DATA
[DUEL] Epoch ended. INSTR misses = 30, DATA misses = 27. Winner = DATA
[DUEL] Epoch ended. INSTR misses = 4, DATA misses = 5. Winner = INSTR
[DUEL] Epoch ended. INSTR misses = 49, DATA misses = 20. Winner = DATA
[DUEL] Epoch ended. INSTR misses = 16, DATA misses = 12. Winner = DATA
[DUEL] Epoch ended. INSTR misses = 8, DATA misses = 3. Winner = DATA
[DUEL] Epoch ended. INSTR misses = 3, DATA misses = 3. Winner = INSTR
[DUEL] Epoch ended. INSTR misses = 3, DATA misses = 1. Winner = DATA
[DUEL] Epoch ended. INSTR misses = 0, DATA misses = 0. Winner = INSTR
[DUEL] Epoch ended. INSTR misses = 0, DATA misses = 0. Winner = INSTR
[DUEL] Epoch ended. INSTR misses = 12, DATA misses = 4. Winner = DATA
[DUEL] Epoch ended. INSTR misses = 20, DATA misses = 13. Winner = DATA
[DUEL] Epoch ended. INSTR misses = 61, DATA misses = 76. Winner = INSTR
Heartbeat CPU 0 instructions: 70000001 cycles: 28267279 heartbeat IPC: 1.728 cumulative IPC: 1.833 (Simulation time: 00 hr 04 min 37 sec)
[DUEL] Epoch ended. INSTR misses = 93, DATA misses = 105. Winner = INSTR
[DUEL] Epoch ended. INSTR misses = 27, DATA misses = 15. Winner = DATA
[DUEL] Epoch ended. INSTR misses = 24, DATA misses = 30. Winner = INSTR
[DUEL] Epoch ended. INSTR misses = 10, DATA misses = 22. Winner = INSTR
[DUEL] Epoch ended. INSTR misses = 12, DATA misses = 7. Winner = DATA
[DUEL] Epoch ended. INSTR misses = 14, DATA misses = 9. Winner = DATA
[DUEL] Epoch ended. INSTR misses = 27, DATA misses = 11. Winner = DATA
[DUEL] Epoch ended. INSTR misses = 11, DATA misses = 20. Winner = INSTR
[DUEL] Epoch ended. INSTR misses = 17, DATA misses = 2. Winner = DATA
[DUEL] Epoch ended. INSTR misses = 1, DATA misses = 12. Winner = INSTR
[DUEL] Epoch ended. INSTR misses = 16, DATA misses = 14. Winner = DATA
[DUEL] Epoch ended. INSTR misses = 14, DATA misses = 16. Winner = INSTR
[DUEL] Epoch ended. INSTR misses = 3, DATA misses = 11. Winner = INSTR
[DUEL] Epoch ended. INSTR misses = 24, DATA misses = 15. Winner = DATA
[DUEL] Epoch ended. INSTR misses = 22, DATA misses = 24. Winner = INSTR
[DUEL] Epoch ended. INSTR misses = 12, DATA misses = 12. Winner = INSTR
[DUEL] Epoch ended. INSTR misses = 27, DATA misses = 32. Winner = INSTR
[DUEL] Epoch ended. INSTR misses = 1, DATA misses = 1. Winner = INSTR
[DUEL] Epoch ended. INSTR misses = 9, DATA misses = 3. Winner = DATA
Heartbeat CPU 0 instructions: 80000003 cycles: 32838721 heartbeat IPC: 2.187 cumulative IPC: 1.894 (Simulation time: 00 hr 05 min 20 sec)
[DUEL] Epoch ended. INSTR misses = 23, DATA misses = 19. Winner = DATA
[DUEL] Epoch ended. INSTR misses = 23, DATA misses = 21. Winner = DATA
[DUEL] Epoch ended. INSTR misses = 5, DATA misses = 28. Winner = INSTR
[DUEL] Epoch ended. INSTR misses = 3, DATA misses = 7. Winner = INSTR
[DUEL] Epoch ended. INSTR misses = 8, DATA misses = 5. Winner = DATA
[DUEL] Epoch ended. INSTR misses = 9, DATA misses = 7. Winner = DATA
[DUEL] Epoch ended. INSTR misses = 17, DATA misses = 28. Winner = INSTR
[DUEL] Epoch ended. INSTR misses = 71, DATA misses = 68. Winner = DATA
[DUEL] Epoch ended. INSTR misses = 59, DATA misses = 70. Winner = INSTR
[DUEL] Epoch ended. INSTR misses = 32, DATA misses = 31. Winner = DATA
[DUEL] Epoch ended. INSTR misses = 41, DATA misses = 59. Winner = INSTR
[DUEL] Epoch ended. INSTR misses = 91, DATA misses = 57. Winner = DATA
[DUEL] Epoch ended. INSTR misses = 86, DATA misses = 41. Winner = DATA
[DUEL] Epoch ended. INSTR misses = 9, DATA misses = 1. Winner = DATA
[DUEL] Epoch ended. INSTR misses = 1, DATA misses = 1. Winner = INSTR
[DUEL] Epoch ended. INSTR misses = 0, DATA misses = 1. Winner = INSTR
[DUEL] Epoch ended. INSTR misses = 1, DATA misses = 0. Winner = DATA
[DUEL] Epoch ended. INSTR misses = 4, DATA misses = 5. Winner = INSTR
[DUEL] Epoch ended. INSTR misses = 7, DATA misses = 3. Winner = DATA
[DUEL] Epoch ended. INSTR misses = 10, DATA misses = 3. Winner = DATA
Heartbeat CPU 0 instructions: 90000004 cycles: 38401862 heartbeat IPC: 1.798 cumulative IPC: 1.877 (Simulation time: 00 hr 06 min 07 sec)
[DUEL] Epoch ended. INSTR misses = 10, DATA misses = 12. Winner = INSTR
[DUEL] Epoch ended. INSTR misses = 0, DATA misses = 0. Winner = INSTR
*** Reached end of trace: (0, "../traces/public_traces/compute_int/compute_int_31.champsimtrace.xz")
[DUEL] Epoch ended. INSTR misses = 14, DATA misses = 7. Winner = DATA
[DUEL] Epoch ended. INSTR misses = 25, DATA misses = 34. Winner = INSTR
[DUEL] Epoch ended. INSTR misses = 47, DATA misses = 23. Winner = DATA
[DUEL] Epoch ended. INSTR misses = 18, DATA misses = 13. Winner = DATA
[DUEL] Epoch ended. INSTR misses = 4, DATA misses = 2. Winner = DATA
[DUEL] Epoch ended. INSTR misses = 87, DATA misses = 60. Winner = DATA
[DUEL] Epoch ended. INSTR misses = 51, DATA misses = 24. Winner = DATA
[DUEL] Epoch ended. INSTR misses = 14, DATA misses = 7. Winner = DATA
[DUEL] Epoch ended. INSTR misses = 54, DATA misses = 20. Winner = DATA
[DUEL] Epoch ended. INSTR misses = 10, DATA misses = 11. Winner = INSTR
[DUEL] Epoch ended. INSTR misses = 16, DATA misses = 3. Winner = DATA
[DUEL] Epoch ended. INSTR misses = 5, DATA misses = 3. Winner = DATA
[DUEL] Epoch ended. INSTR misses = 3, DATA misses = 5. Winner = INSTR
[DUEL] Epoch ended. INSTR misses = 0, DATA misses = 0. Winner = INSTR
[DUEL] Epoch ended. INSTR misses = 1, DATA misses = 0. Winner = DATA
[DUEL] Epoch ended. INSTR misses = 7, DATA misses = 3. Winner = DATA
[DUEL] Epoch ended. INSTR misses = 15, DATA misses = 12. Winner = DATA
[DUEL] Epoch ended. INSTR misses = 54, DATA misses = 66. Winner = INSTR
Heartbeat CPU 0 instructions: 100000008 cycles: 44047504 heartbeat IPC: 1.771 cumulative IPC: 1.862 (Simulation time: 00 hr 06 min 57 sec)
[DUEL] Epoch ended. INSTR misses = 100, DATA misses = 98. Winner = DATA
[DUEL] Epoch ended. INSTR misses = 28, DATA misses = 26. Winner = DATA
[DUEL] Epoch ended. INSTR misses = 24, DATA misses = 29. Winner = INSTR
[DUEL] Epoch ended. INSTR misses = 16, DATA misses = 19. Winner = INSTR
[DUEL] Epoch ended. INSTR misses = 14, DATA misses = 5. Winner = DATA
[DUEL] Epoch ended. INSTR misses = 14, DATA misses = 13. Winner = DATA
[DUEL] Epoch ended. INSTR misses = 28, DATA misses = 7. Winner = DATA
[DUEL] Epoch ended. INSTR misses = 15, DATA misses = 23. Winner = INSTR
[DUEL] Epoch ended. INSTR misses = 29, DATA misses = 2. Winner = DATA
[DUEL] Epoch ended. INSTR misses = 0, DATA misses = 11. Winner = INSTR
[DUEL] Epoch ended. INSTR misses = 11, DATA misses = 11. Winner = INSTR
[DUEL] Epoch ended. INSTR misses = 16, DATA misses = 16. Winner = INSTR
[DUEL] Epoch ended. INSTR misses = 2, DATA misses = 14. Winner = INSTR
[DUEL] Epoch ended. INSTR misses = 23, DATA misses = 16. Winner = DATA
[DUEL] Epoch ended. INSTR misses = 18, DATA misses = 22. Winner = INSTR
[DUEL] Epoch ended. INSTR misses = 15, DATA misses = 17. Winner = INSTR
[DUEL] Epoch ended. INSTR misses = 29, DATA misses = 28. Winner = DATA
[DUEL] Epoch ended. INSTR misses = 0, DATA misses = 2. Winner = INSTR
[DUEL] Epoch ended. INSTR misses = 9, DATA misses = 3. Winner = DATA
Heartbeat CPU 0 instructions: 110000005 cycles: 48649025 heartbeat IPC: 2.173 cumulative IPC: 1.896 (Simulation time: 00 hr 07 min 40 sec)
[DUEL] Epoch ended. INSTR misses = 17, DATA misses = 19. Winner = INSTR
[DUEL] Epoch ended. INSTR misses = 20, DATA misses = 21. Winner = INSTR
[DUEL] Epoch ended. INSTR misses = 5, DATA misses = 14. Winner = INSTR
[DUEL] Epoch ended. INSTR misses = 1, DATA misses = 6. Winner = INSTR
[DUEL] Epoch ended. INSTR misses = 5, DATA misses = 2. Winner = DATA
[DUEL] Epoch ended. INSTR misses = 8, DATA misses = 7. Winner = DATA
[DUEL] Epoch ended. INSTR misses = 9, DATA misses = 29. Winner = INSTR
[DUEL] Epoch ended. INSTR misses = 71, DATA misses = 71. Winner = INSTR
[DUEL] Epoch ended. INSTR misses = 63, DATA misses = 70. Winner = INSTR
[DUEL] Epoch ended. INSTR misses = 33, DATA misses = 31. Winner = DATA
[DUEL] Epoch ended. INSTR misses = 45, DATA misses = 53. Winner = INSTR
[DUEL] Epoch ended. INSTR misses = 94, DATA misses = 60. Winner = DATA
[DUEL] Epoch ended. INSTR misses = 86, DATA misses = 49. Winner = DATA
[DUEL] Epoch ended. INSTR misses = 16, DATA misses = 1. Winner = DATA
[DUEL] Epoch ended. INSTR misses = 2, DATA misses = 1. Winner = DATA
[DUEL] Epoch ended. INSTR misses = 0, DATA misses = 1. Winner = INSTR
[DUEL] Epoch ended. INSTR misses = 0, DATA misses = 0. Winner = INSTR
[DUEL] Epoch ended. INSTR misses = 5, DATA misses = 5. Winner = INSTR
[DUEL] Epoch ended. INSTR misses = 0, DATA misses = 0. Winner = INSTR
[DUEL] Epoch ended. INSTR misses = 16, DATA misses = 6. Winner = DATA
Heartbeat CPU 0 instructions: 120000001 cycles: 54243422 heartbeat IPC: 1.788 cumulative IPC: 1.883 (Simulation time: 00 hr 08 min 27 sec)
[DUEL] Epoch ended. INSTR misses = 8, DATA misses = 12. Winner = INSTR
[DUEL] Epoch ended. INSTR misses = 0, DATA misses = 0. Winner = INSTR
*** Reached end of trace: (0, "../traces/public_traces/compute_int/compute_int_31.champsimtrace.xz")
[DUEL] Epoch ended. INSTR misses = 16, DATA misses = 4. Winner = DATA
[DUEL] Epoch ended. INSTR misses = 22, DATA misses = 35. Winner = INSTR
[DUEL] Epoch ended. INSTR misses = 46, DATA misses = 25. Winner = DATA
[DUEL] Epoch ended. INSTR misses = 15, DATA misses = 12. Winner = DATA
[DUEL] Epoch ended. INSTR misses = 3, DATA misses = 2. Winner = DATA
[DUEL] Epoch ended. INSTR misses = 84, DATA misses = 62. Winner = DATA
[DUEL] Epoch ended. INSTR misses = 26, DATA misses = 31. Winner = INSTR
[DUEL] Epoch ended. INSTR misses = 10, DATA misses = 11. Winner = INSTR
[DUEL] Epoch ended. INSTR misses = 37, DATA misses = 17. Winner = DATA
[DUEL] Epoch ended. INSTR misses = 28, DATA misses = 16. Winner = DATA
[DUEL] Epoch ended. INSTR misses = 17, DATA misses = 2. Winner = DATA
[DUEL] Epoch ended. INSTR misses = 9, DATA misses = 1. Winner = DATA
[DUEL] Epoch ended. INSTR misses = 0, DATA misses = 0. Winner = INSTR
[DUEL] Epoch ended. INSTR misses = 0, DATA misses = 0. Winner = INSTR
[DUEL] Epoch ended. INSTR misses = 1, DATA misses = 0. Winner = DATA
[DUEL] Epoch ended. INSTR misses = 12, DATA misses = 4. Winner = DATA
[DUEL] Epoch ended. INSTR misses = 12, DATA misses = 11. Winner = DATA
Heartbeat CPU 0 instructions: 130000004 cycles: 59849712 heartbeat IPC: 1.784 cumulative IPC: 1.872 (Simulation time: 00 hr 09 min 17 sec)
Simulation finished CPU 0 instructions: 100000000 cycles: 53405843 cumulative IPC: 1.872 (Simulation time: 00 hr 09 min 17 sec)
Simulation complete CPU 0 instructions: 100000000 cycles: 53405843 cumulative IPC: 1.872 (Simulation time: 00 hr 09 min 17 sec)

ChampSim completed all CPUs

=== Simulation ===
CPU 0 runs ../traces/public_traces/compute_int/compute_int_31.champsimtrace.xz
Region of Interest Statistics

CPU 0 cumulative IPC: 1.872 instructions: 100000000 cycles: 53405843
CPU 0 Branch Prediction Accuracy: 97.52% MPKI: 6.094 Average ROB Occupancy at Mispredict: 67.19
Branch type MPKI
BRANCH_DIRECT_JUMP: 0
BRANCH_INDIRECT: 5
BRANCH_CONDITIONAL: 1.09
BRANCH_DIRECT_CALL: 0
BRANCH_INDIRECT_CALL: 0.00542
BRANCH_RETURN: 0.00023

LLC TOTAL        ACCESS:    2366250 HIT:    1449257 MISS:     916993
LLC LOAD         ACCESS:     543259 HIT:     307822 MISS:     235437
LLC RFO          ACCESS:     173053 HIT:      54650 MISS:     118403
LLC PREFETCH     ACCESS:    1150854 HIT:     756201 MISS:     394653
LLC WRITE        ACCESS:     473939 HIT:     329273 MISS:     144666
LLC TRANSLATION  ACCESS:      25145 HIT:       1311 MISS:      23834
LLC PREFETCH REQUESTED:          0 ISSUED:          0 USEFUL:          0 USELESS:          0
LLC AVERAGE MISS LATENCY: 195.9 cycles
cpu0_DTLB TOTAL        ACCESS:   20764061 HIT:   20278727 MISS:     485334
cpu0_DTLB LOAD         ACCESS:   20764061 HIT:   20278727 MISS:     485334
cpu0_DTLB RFO          ACCESS:          0 HIT:          0 MISS:          0
cpu0_DTLB PREFETCH     ACCESS:          0 HIT:          0 MISS:          0
cpu0_DTLB WRITE        ACCESS:          0 HIT:          0 MISS:          0
cpu0_DTLB TRANSLATION  ACCESS:          0 HIT:          0 MISS:          0
cpu0_DTLB PREFETCH REQUESTED:          0 ISSUED:          0 USEFUL:          0 USELESS:          0
cpu0_DTLB AVERAGE MISS LATENCY: 15.22 cycles
cpu0_ITLB TOTAL        ACCESS:    1403165 HIT:    1403165 MISS:          0
cpu0_ITLB LOAD         ACCESS:    1403165 HIT:    1403165 MISS:          0
cpu0_ITLB RFO          ACCESS:          0 HIT:          0 MISS:          0
cpu0_ITLB PREFETCH     ACCESS:          0 HIT:          0 MISS:          0
cpu0_ITLB WRITE        ACCESS:          0 HIT:          0 MISS:          0
cpu0_ITLB TRANSLATION  ACCESS:          0 HIT:          0 MISS:          0
cpu0_ITLB PREFETCH REQUESTED:          0 ISSUED:          0 USEFUL:          0 USELESS:          0
cpu0_ITLB AVERAGE MISS LATENCY: -nan cycles
cpu0_L1D TOTAL        ACCESS:   35394712 HIT:   27403078 MISS:    7991634
cpu0_L1D LOAD         ACCESS:   17379012 HIT:   14170366 MISS:    3208646
cpu0_L1D RFO          ACCESS:          0 HIT:          0 MISS:          0
cpu0_L1D PREFETCH     ACCESS:   11325911 HIT:    7227951 MISS:    4097960
cpu0_L1D WRITE        ACCESS:    6649801 HIT:    5998799 MISS:     651002
cpu0_L1D TRANSLATION  ACCESS:      39988 HIT:       5962 MISS:      34026
cpu0_L1D PREFETCH REQUESTED:   23703377 ISSUED:   11325888 USEFUL:     502839 USELESS:     263660
cpu0_L1D AVERAGE MISS LATENCY: 17.96 cycles
cpu0_L1I TOTAL        ACCESS:    2150982 HIT:    2142982 MISS:       8000
cpu0_L1I LOAD         ACCESS:     598652 HIT:     596841 MISS:       1811
cpu0_L1I RFO          ACCESS:          0 HIT:          0 MISS:          0
cpu0_L1I PREFETCH     ACCESS:    1552330 HIT:    1546141 MISS:       6189
cpu0_L1I WRITE        ACCESS:          0 HIT:          0 MISS:          0
cpu0_L1I TRANSLATION  ACCESS:          0 HIT:          0 MISS:          0
cpu0_L1I PREFETCH REQUESTED:    2871165 ISSUED:    1552330 USEFUL:       4485 USELESS:       1150
cpu0_L1I AVERAGE MISS LATENCY: 214.4 cycles
cpu0_L2C TOTAL        ACCESS:   11216733 HIT:    8667101 MISS:    2549632
cpu0_L2C LOAD         ACCESS:    2025152 HIT:    1442799 MISS:     582353
cpu0_L2C RFO          ACCESS:     277036 HIT:      97529 MISS:     179507
cpu0_L2C PREFETCH     ACCESS:    8249741 HIT:    6487393 MISS:    1762348
cpu0_L2C WRITE        ACCESS:     630890 HIT:     630611 MISS:        279
cpu0_L2C TRANSLATION  ACCESS:      33914 HIT:       8769 MISS:      25145
cpu0_L2C PREFETCH REQUESTED:    5656610 ISSUED:    4637921 USEFUL:     332542 USELESS:     349105
cpu0_L2C AVERAGE MISS LATENCY: 83.99 cycles
cpu0_STLB TOTAL        ACCESS:     298026 HIT:     269054 MISS:      28972
cpu0_STLB LOAD         ACCESS:     298026 HIT:     269054 MISS:      28972
cpu0_STLB RFO          ACCESS:          0 HIT:          0 MISS:          0
cpu0_STLB PREFETCH     ACCESS:          0 HIT:          0 MISS:          0
cpu0_STLB WRITE        ACCESS:          0 HIT:          0 MISS:          0
cpu0_STLB TRANSLATION  ACCESS:          0 HIT:          0 MISS:          0
cpu0_STLB PREFETCH REQUESTED:          0 ISSUED:          0 USEFUL:          0 USELESS:          0
cpu0_STLB AVERAGE MISS LATENCY: 224.6 cycles

DRAM Statistics

Channel 0 RQ ROW_BUFFER_HIT:      96439
  ROW_BUFFER_MISS:     291900
 AVG DBUS CONGESTED CYCLE: 3.877
WQ ROW_BUFFER_HIT: Channel 0 
  ROW_BUFFER_MISS:      19047
  FULL:      93347

Channel 1 RQ ROW_BUFFER_HIT:      94992
  ROW_BUFFER_MISS:     288753
 AVG DBUS CONGESTED CYCLE: 3.875
WQ ROW_BUFFER_HIT: Channel 1 
  ROW_BUFFER_MISS:      18754
  FULL:      93569
BERTI TO_L1: 14321403 TO_L2: 17189723 TO_L2_BC_MSHR: 1445287
BERTI AVG_LAT: 43.7158 NUM_TRACK_LATENCY: 3605780 NUM_CANT_TRACK_LATENCY: 55
BERTI CROSS_PAGE 8210150 NO_CROSS_PAGE: 23300976
BERTI FOUND_BERTI: 11953058 NO_FOUND_BERTI: 11548336
BERTI AVERAGE_ISSUED: 3.97124
CPU 0 L1I Entangling prefetcher final stats
IP accesses: 3ebe faf80 17653 / 601785
IP misses: 4cdc 133700 350 / 4944
IP hits: 0 0 0 / 0
IP late: 253c 94f00 21 / 1033
IP wrong: 479 11e40 69 / 1107
miss rate: 0.00821556
coverage: 0
coverage_late: 0.208941
accuracy: 0
accuracy_late: 0.482711
discarded: 0
evicts entangled j table: 0
evicts entangled k table: 201
max bb size: 18
formats: 65 0 211 40 18 64 0 
hist_lookups: 82 117 124 93 64 60 76 63 59 45 43 32 21 8 2 0 0 612 
hist_lookups_evict: 0 %
hist_lookups_shortlat: 40.7729 %
bb_found_hist: 0 86056 71028 46900 46839 21137 18165 15494 14506 15063 16 14888 4574 2865 0 0 2040 0 3241 0 0 0 0 0 0 0 0 0 0 0 0 0 0 0 0 0 0 0 0 0 0 0 0 0 0 0 0 0 0 0 0 0 0 0 0 0 0 0 0 0 0 0 0 0 
bb_found_summary: 1477955 362812 4.07362
entangled_found_hist: 0 55693 37635 67762 4343 7035 0 0 
entangled_found_summary: 386796 172468 2.24272
bb_ent_found_hist: 0 105331 77989 40729 27288 25070 3053 6369 6915 15640 0 0 6254 0 0 0 2197 0 1270 0 0 0 0 0 0 0 0 0 0 0 0 0 0 0 0 0 0 0 0 0 0 0 0 0 0 0 0 0 0 0 0 0 0 0 0 0 0 0 0 0 0 0 0 0 
bb_ent_found_summary: 1010039 318105 3.17518
