WARNING: physical memory size is smaller than virtual memory size.

*** ChampSim Multicore Out-of-Order Simulator ***
Warmup Instructions: 30000000
Simulation Instructions: 100000000
Number of CPUs: 1
Page size: 4096

BTB:
Basic BTB sets: 1024 ways: 8
Indirect:
history lengths: 0 0 10 16 27 44 60 96 109 219 449 487 714 1313 2146 3881 
ITTAGE tables: 64768 bytes;Region table: 240 bytes;IUM: 384 bytes;Total Storage= 65392 bytes;
RAS:
RAS size: 64
[LLC] INSTR Demand IPV: 1 2 2 1 4 Prefetch IPV: 1 2 1 1 4
[LLC] DATA  Demand IPV: 1 1 1 2 4 Prefetch IPV: 1 1 2 2 4
Berti Prefetcher
CPU 0 Entangling prefetcher
Off-chip DRAM Size: 8 GiB Channels: 2 Width: 64-bit Data Race: 6400 MT/s
[DUEL] Epoch ended. INSTR misses = 32, DATA misses = 14. Winner = DATA
[DUEL] Epoch ended. INSTR misses = 12, DATA misses = 10. Winner = DATA
[DUEL] Epoch ended. INSTR misses = 2, DATA misses = 12. Winner = INSTR
[DUEL] Epoch ended. INSTR misses = 18, DATA misses = 13. Winner = DATA
[DUEL] Epoch ended. INSTR misses = 14, DATA misses = 11. Winner = DATA
[DUEL] Epoch ended. INSTR misses = 7, DATA misses = 16. Winner = INSTR
[DUEL] Epoch ended. INSTR misses = 15, DATA misses = 14. Winner = DATA
[DUEL] Epoch ended. INSTR misses = 0, DATA misses = 0. Winner = INSTR
[DUEL] Epoch ended. INSTR misses = 0, DATA misses = 0. Winner = INSTR
[DUEL] Epoch ended. INSTR misses = 0, DATA misses = 1. Winner = INSTR
[DUEL] Epoch ended. INSTR misses = 0, DATA misses = 0. Winner = INSTR
[DUEL] Epoch ended. INSTR misses = 13, DATA misses = 15. Winner = INSTR
[DUEL] Epoch ended. INSTR misses = 0, DATA misses = 0. Winner = INSTR
[DUEL] Epoch ended. INSTR misses = 15, DATA misses = 10. Winner = DATA
[DUEL] Epoch ended. INSTR misses = 18, DATA misses = 4. Winner = DATA
[DUEL] Epoch ended. INSTR misses = 16, DATA misses = 28. Winner = INSTR
[DUEL] Epoch ended. INSTR misses = 0, DATA misses = 1. Winner = INSTR
[DUEL] Epoch ended. INSTR misses = 0, DATA misses = 3. Winner = INSTR
[DUEL] Epoch ended. INSTR misses = 0, DATA misses = 0. Winner = INSTR
Heartbeat CPU 0 instructions: 10000001 cycles: 1689072 heartbeat IPC: 5.92 cumulative IPC: 5.92 (Simulation time: 00 hr 00 min 26 sec)
[DUEL] Epoch ended. INSTR misses = 0, DATA misses = 2. Winner = INSTR
[DUEL] Epoch ended. INSTR misses = 3, DATA misses = 2. Winner = DATA
[DUEL] Epoch ended. INSTR misses = 0, DATA misses = 1. Winner = INSTR
[DUEL] Epoch ended. INSTR misses = 0, DATA misses = 1. Winner = INSTR
[DUEL] Epoch ended. INSTR misses = 5, DATA misses = 10. Winner = INSTR
[DUEL] Epoch ended. INSTR misses = 15, DATA misses = 23. Winner = INSTR
[DUEL] Epoch ended. INSTR misses = 30, DATA misses = 26. Winner = DATA
[DUEL] Epoch ended. INSTR misses = 163, DATA misses = 158. Winner = DATA
[DUEL] Epoch ended. INSTR misses = 335, DATA misses = 281. Winner = DATA
[DUEL] Epoch ended. INSTR misses = 122, DATA misses = 110. Winner = DATA
[DUEL] Epoch ended. INSTR misses = 50, DATA misses = 49. Winner = DATA
[DUEL] Epoch ended. INSTR misses = 49, DATA misses = 47. Winner = DATA
[DUEL] Epoch ended. INSTR misses = 32, DATA misses = 31. Winner = DATA
[DUEL] Epoch ended. INSTR misses = 34, DATA misses = 37. Winner = INSTR
[DUEL] Epoch ended. INSTR misses = 30, DATA misses = 21. Winner = DATA
[DUEL] Epoch ended. INSTR misses = 17, DATA misses = 16. Winner = DATA
[DUEL] Epoch ended. INSTR misses = 26, DATA misses = 16. Winner = DATA
[DUEL] Epoch ended. INSTR misses = 20, DATA misses = 14. Winner = DATA
[DUEL] Epoch ended. INSTR misses = 32, DATA misses = 32. Winner = INSTR
[DUEL] Epoch ended. INSTR misses = 31, DATA misses = 32. Winner = INSTR
Heartbeat CPU 0 instructions: 20000001 cycles: 3474898 heartbeat IPC: 5.6 cumulative IPC: 5.756 (Simulation time: 00 hr 00 min 53 sec)
[DUEL] Epoch ended. INSTR misses = 38, DATA misses = 38. Winner = INSTR
[DUEL] Epoch ended. INSTR misses = 33, DATA misses = 32. Winner = DATA
[DUEL] Epoch ended. INSTR misses = 18, DATA misses = 16. Winner = DATA
[DUEL] Epoch ended. INSTR misses = 20, DATA misses = 18. Winner = DATA
[DUEL] Epoch ended. INSTR misses = 48, DATA misses = 48. Winner = INSTR
[DUEL] Epoch ended. INSTR misses = 56, DATA misses = 44. Winner = DATA
[DUEL] Epoch ended. INSTR misses = 22, DATA misses = 27. Winner = INSTR
[DUEL] Epoch ended. INSTR misses = 3, DATA misses = 0. Winner = DATA
[DUEL] Epoch ended. INSTR misses = 30, DATA misses = 27. Winner = DATA
[DUEL] Epoch ended. INSTR misses = 11, DATA misses = 10. Winner = DATA
[DUEL] Epoch ended. INSTR misses = 3, DATA misses = 2. Winner = DATA
[DUEL] Epoch ended. INSTR misses = 0, DATA misses = 0. Winner = INSTR
[DUEL] Epoch ended. INSTR misses = 1, DATA misses = 1. Winner = INSTR
[DUEL] Epoch ended. INSTR misses = 8, DATA misses = 11. Winner = INSTR
[DUEL] Epoch ended. INSTR misses = 0, DATA misses = 0. Winner = INSTR
[DUEL] Epoch ended. INSTR misses = 0, DATA misses = 1. Winner = INSTR
[DUEL] Epoch ended. INSTR misses = 1, DATA misses = 0. Winner = DATA
[DUEL] Epoch ended. INSTR misses = 0, DATA misses = 0. Winner = INSTR
[DUEL] Epoch ended. INSTR misses = 0, DATA misses = 0. Winner = INSTR
Heartbeat CPU 0 instructions: 30000003 cycles: 5776073 heartbeat IPC: 4.346 cumulative IPC: 5.194 (Simulation time: 00 hr 01 min 22 sec)
Warmup finished CPU 0 instructions: 30000003 cycles: 5776074 cumulative IPC: 5.194 (Simulation time: 00 hr 01 min 22 sec)
Warmup complete CPU 0 instructions: 30000003 cycles: 5776074 cumulative IPC: 5.194 (Simulation time: 00 hr 01 min 22 sec)
[DUEL] Epoch ended. INSTR misses = 14, DATA misses = 10. Winner = DATA
*** Reached end of trace: (0, "../traces/public_traces/compute_int/compute_int_32.champsimtrace.xz")
[DUEL] Epoch ended. INSTR misses = 10, DATA misses = 11. Winner = INSTR
[DUEL] Epoch ended. INSTR misses = 16, DATA misses = 8. Winner = DATA
[DUEL] Epoch ended. INSTR misses = 2, DATA misses = 1. Winner = DATA
[DUEL] Epoch ended. INSTR misses = 1, DATA misses = 12. Winner = INSTR
[DUEL] Epoch ended. INSTR misses = 2, DATA misses = 0. Winner = DATA
[DUEL] Epoch ended. INSTR misses = 18, DATA misses = 8. Winner = DATA
[DUEL] Epoch ended. INSTR misses = 3, DATA misses = 12. Winner = INSTR
[DUEL] Epoch ended. INSTR misses = 2, DATA misses = 2. Winner = INSTR
[DUEL] Epoch ended. INSTR misses = 0, DATA misses = 0. Winner = INSTR
[DUEL] Epoch ended. INSTR misses = 0, DATA misses = 0. Winner = INSTR
[DUEL] Epoch ended. INSTR misses = 0, DATA misses = 1. Winner = INSTR
[DUEL] Epoch ended. INSTR misses = 0, DATA misses = 0. Winner = INSTR
[DUEL] Epoch ended. INSTR misses = 13, DATA misses = 15. Winner = INSTR
[DUEL] Epoch ended. INSTR misses = 0, DATA misses = 0. Winner = INSTR
[DUEL] Epoch ended. INSTR misses = 16, DATA misses = 10. Winner = DATA
[DUEL] Epoch ended. INSTR misses = 5, DATA misses = 0. Winner = DATA
[DUEL] Epoch ended. INSTR misses = 4, DATA misses = 5. Winner = INSTR
[DUEL] Epoch ended. INSTR misses = 0, DATA misses = 0. Winner = INSTR
Heartbeat CPU 0 instructions: 40000004 cycles: 8471591 heartbeat IPC: 3.71 cumulative IPC: 3.71 (Simulation time: 00 hr 02 min 00 sec)
[DUEL] Epoch ended. INSTR misses = 0, DATA misses = 2. Winner = INSTR
[DUEL] Epoch ended. INSTR misses = 0, DATA misses = 0. Winner = INSTR
[DUEL] Epoch ended. INSTR misses = 0, DATA misses = 2. Winner = INSTR
[DUEL] Epoch ended. INSTR misses = 3, DATA misses = 2. Winner = DATA
[DUEL] Epoch ended. INSTR misses = 0, DATA misses = 1. Winner = INSTR
[DUEL] Epoch ended. INSTR misses = 0, DATA misses = 1. Winner = INSTR
[DUEL] Epoch ended. INSTR misses = 5, DATA misses = 14. Winner = INSTR
[DUEL] Epoch ended. INSTR misses = 14, DATA misses = 17. Winner = INSTR
[DUEL] Epoch ended. INSTR misses = 30, DATA misses = 25. Winner = DATA
[DUEL] Epoch ended. INSTR misses = 154, DATA misses = 148. Winner = DATA
[DUEL] Epoch ended. INSTR misses = 257, DATA misses = 238. Winner = DATA
[DUEL] Epoch ended. INSTR misses = 107, DATA misses = 100. Winner = DATA
[DUEL] Epoch ended. INSTR misses = 32, DATA misses = 42. Winner = INSTR
[DUEL] Epoch ended. INSTR misses = 47, DATA misses = 47. Winner = INSTR
[DUEL] Epoch ended. INSTR misses = 28, DATA misses = 26. Winner = DATA
[DUEL] Epoch ended. INSTR misses = 33, DATA misses = 35. Winner = INSTR
[DUEL] Epoch ended. INSTR misses = 26, DATA misses = 21. Winner = DATA
[DUEL] Epoch ended. INSTR misses = 17, DATA misses = 16. Winner = DATA
[DUEL] Epoch ended. INSTR misses = 22, DATA misses = 16. Winner = DATA
[DUEL] Epoch ended. INSTR misses = 18, DATA misses = 14. Winner = DATA
Heartbeat CPU 0 instructions: 50000007 cycles: 15320784 heartbeat IPC: 1.46 cumulative IPC: 2.095 (Simulation time: 00 hr 03 min 03 sec)
[DUEL] Epoch ended. INSTR misses = 29, DATA misses = 30. Winner = INSTR
[DUEL] Epoch ended. INSTR misses = 32, DATA misses = 32. Winner = INSTR
[DUEL] Epoch ended. INSTR misses = 34, DATA misses = 34. Winner = INSTR
[DUEL] Epoch ended. INSTR misses = 32, DATA misses = 32. Winner = INSTR
[DUEL] Epoch ended. INSTR misses = 16, DATA misses = 14. Winner = DATA
[DUEL] Epoch ended. INSTR misses = 14, DATA misses = 16. Winner = INSTR
[DUEL] Epoch ended. INSTR misses = 46, DATA misses = 45. Winner = DATA
[DUEL] Epoch ended. INSTR misses = 48, DATA misses = 43. Winner = DATA
[DUEL] Epoch ended. INSTR misses = 22, DATA misses = 24. Winner = INSTR
[DUEL] Epoch ended. INSTR misses = 2, DATA misses = 0. Winner = DATA
[DUEL] Epoch ended. INSTR misses = 26, DATA misses = 20. Winner = DATA
[DUEL] Epoch ended. INSTR misses = 0, DATA misses = 1. Winner = INSTR
[DUEL] Epoch ended. INSTR misses = 0, DATA misses = 0. Winner = INSTR
[DUEL] Epoch ended. INSTR misses = 0, DATA misses = 0. Winner = INSTR
[DUEL] Epoch ended. INSTR misses = 0, DATA misses = 0. Winner = INSTR
[DUEL] Epoch ended. INSTR misses = 8, DATA misses = 10. Winner = INSTR
[DUEL] Epoch ended. INSTR misses = 0, DATA misses = 0. Winner = INSTR
[DUEL] Epoch ended. INSTR misses = 0, DATA misses = 0. Winner = INSTR
[DUEL] Epoch ended. INSTR misses = 0, DATA misses = 0. Winner = INSTR
Heartbeat CPU 0 instructions: 60000000 cycles: 19122910 heartbeat IPC: 2.63 cumulative IPC: 2.248 (Simulation time: 00 hr 03 min 49 sec)
[DUEL] Epoch ended. INSTR misses = 0, DATA misses = 0. Winner = INSTR
[DUEL] Epoch ended. INSTR misses = 0, DATA misses = 0. Winner = INSTR
[DUEL] Epoch ended. INSTR misses = 7, DATA misses = 11. Winner = INSTR
*** Reached end of trace: (0, "../traces/public_traces/compute_int/compute_int_32.champsimtrace.xz")
[DUEL] Epoch ended. INSTR misses = 24, DATA misses = 16. Winner = DATA
[DUEL] Epoch ended. INSTR misses = 0, DATA misses = 1. Winner = INSTR
[DUEL] Epoch ended. INSTR misses = 2, DATA misses = 0. Winner = DATA
[DUEL] Epoch ended. INSTR misses = 1, DATA misses = 12. Winner = INSTR
[DUEL] Epoch ended. INSTR misses = 2, DATA misses = 1. Winner = DATA
[DUEL] Epoch ended. INSTR misses = 18, DATA misses = 19. Winner = INSTR
[DUEL] Epoch ended. INSTR misses = 3, DATA misses = 0. Winner = DATA
[DUEL] Epoch ended. INSTR misses = 2, DATA misses = 2. Winner = INSTR
[DUEL] Epoch ended. INSTR misses = 0, DATA misses = 0. Winner = INSTR
[DUEL] Epoch ended. INSTR misses = 0, DATA misses = 0. Winner = INSTR
[DUEL] Epoch ended. INSTR misses = 0, DATA misses = 1. Winner = INSTR
[DUEL] Epoch ended. INSTR misses = 9, DATA misses = 1. Winner = DATA
[DUEL] Epoch ended. INSTR misses = 4, DATA misses = 15. Winner = INSTR
[DUEL] Epoch ended. INSTR misses = 0, DATA misses = 0. Winner = INSTR
[DUEL] Epoch ended. INSTR misses = 16, DATA misses = 10. Winner = DATA
[DUEL] Epoch ended. INSTR misses = 5, DATA misses = 3. Winner = DATA
[DUEL] Epoch ended. INSTR misses = 3, DATA misses = 2. Winner = DATA
Heartbeat CPU 0 instructions: 70000009 cycles: 21791199 heartbeat IPC: 3.748 cumulative IPC: 2.498 (Simulation time: 00 hr 04 min 27 sec)
[DUEL] Epoch ended. INSTR misses = 0, DATA misses = 0. Winner = INSTR
[DUEL] Epoch ended. INSTR misses = 0, DATA misses = 2. Winner = INSTR
[DUEL] Epoch ended. INSTR misses = 0, DATA misses = 0. Winner = INSTR
[DUEL] Epoch ended. INSTR misses = 0, DATA misses = 2. Winner = INSTR
[DUEL] Epoch ended. INSTR misses = 3, DATA misses = 2. Winner = DATA
[DUEL] Epoch ended. INSTR misses = 0, DATA misses = 1. Winner = INSTR
[DUEL] Epoch ended. INSTR misses = 0, DATA misses = 1. Winner = INSTR
[DUEL] Epoch ended. INSTR misses = 11, DATA misses = 22. Winner = INSTR
[DUEL] Epoch ended. INSTR misses = 12, DATA misses = 10. Winner = DATA
[DUEL] Epoch ended. INSTR misses = 28, DATA misses = 25. Winner = DATA
[DUEL] Epoch ended. INSTR misses = 168, DATA misses = 141. Winner = DATA
[DUEL] Epoch ended. INSTR misses = 285, DATA misses = 272. Winner = DATA
[DUEL] Epoch ended. INSTR misses = 54, DATA misses = 56. Winner = INSTR
[DUEL] Epoch ended. INSTR misses = 23, DATA misses = 24. Winner = INSTR
[DUEL] Epoch ended. INSTR misses = 46, DATA misses = 48. Winner = INSTR
[DUEL] Epoch ended. INSTR misses = 26, DATA misses = 24. Winner = DATA
[DUEL] Epoch ended. INSTR misses = 33, DATA misses = 35. Winner = INSTR
[DUEL] Epoch ended. INSTR misses = 24, DATA misses = 21. Winner = DATA
[DUEL] Epoch ended. INSTR misses = 17, DATA misses = 16. Winner = DATA
Heartbeat CPU 0 instructions: 80000009 cycles: 28200060 heartbeat IPC: 1.56 cumulative IPC: 2.23 (Simulation time: 00 hr 05 min 28 sec)
[DUEL] Epoch ended. INSTR misses = 22, DATA misses = 16. Winner = DATA
[DUEL] Epoch ended. INSTR misses = 20, DATA misses = 14. Winner = DATA
[DUEL] Epoch ended. INSTR misses = 30, DATA misses = 28. Winner = DATA
[DUEL] Epoch ended. INSTR misses = 33, DATA misses = 32. Winner = DATA
[DUEL] Epoch ended. INSTR misses = 34, DATA misses = 33. Winner = DATA
[DUEL] Epoch ended. INSTR misses = 32, DATA misses = 32. Winner = INSTR
[DUEL] Epoch ended. INSTR misses = 15, DATA misses = 13. Winner = DATA
[DUEL] Epoch ended. INSTR misses = 27, DATA misses = 28. Winner = INSTR
[DUEL] Epoch ended. INSTR misses = 31, DATA misses = 32. Winner = INSTR
[DUEL] Epoch ended. INSTR misses = 44, DATA misses = 39. Winner = DATA
[DUEL] Epoch ended. INSTR misses = 21, DATA misses = 23. Winner = INSTR
[DUEL] Epoch ended. INSTR misses = 3, DATA misses = 0. Winner = DATA
[DUEL] Epoch ended. INSTR misses = 23, DATA misses = 20. Winner = DATA
[DUEL] Epoch ended. INSTR misses = 0, DATA misses = 1. Winner = INSTR
[DUEL] Epoch ended. INSTR misses = 0, DATA misses = 0. Winner = INSTR
[DUEL] Epoch ended. INSTR misses = 0, DATA misses = 0. Winner = INSTR
[DUEL] Epoch ended. INSTR misses = 0, DATA misses = 0. Winner = INSTR
[DUEL] Epoch ended. INSTR misses = 8, DATA misses = 10. Winner = INSTR
[DUEL] Epoch ended. INSTR misses = 0, DATA misses = 0. Winner = INSTR
[DUEL] Epoch ended. INSTR misses = 0, DATA misses = 0. Winner = INSTR
Heartbeat CPU 0 instructions: 90000008 cycles: 31883409 heartbeat IPC: 2.715 cumulative IPC: 2.298 (Simulation time: 00 hr 06 min 13 sec)
[DUEL] Epoch ended. INSTR misses = 0, DATA misses = 0. Winner = INSTR
[DUEL] Epoch ended. INSTR misses = 0, DATA misses = 0. Winner = INSTR
[DUEL] Epoch ended. INSTR misses = 0, DATA misses = 0. Winner = INSTR
[DUEL] Epoch ended. INSTR misses = 7, DATA misses = 9. Winner = INSTR
*** Reached end of trace: (0, "../traces/public_traces/compute_int/compute_int_32.champsimtrace.xz")
[DUEL] Epoch ended. INSTR misses = 24, DATA misses = 16. Winner = DATA
[DUEL] Epoch ended. INSTR misses = 0, DATA misses = 1. Winner = INSTR
[DUEL] Epoch ended. INSTR misses = 2, DATA misses = 0. Winner = DATA
[DUEL] Epoch ended. INSTR misses = 1, DATA misses = 13. Winner = INSTR
[DUEL] Epoch ended. INSTR misses = 2, DATA misses = 0. Winner = DATA
[DUEL] Epoch ended. INSTR misses = 18, DATA misses = 19. Winner = INSTR
[DUEL] Epoch ended. INSTR misses = 2, DATA misses = 0. Winner = DATA
[DUEL] Epoch ended. INSTR misses = 1, DATA misses = 1. Winner = INSTR
[DUEL] Epoch ended. INSTR misses = 0, DATA misses = 0. Winner = INSTR
[DUEL] Epoch ended. INSTR misses = 0, DATA misses = 1. Winner = INSTR
[DUEL] Epoch ended. INSTR misses = 0, DATA misses = 0. Winner = INSTR
[DUEL] Epoch ended. INSTR misses = 11, DATA misses = 9. Winner = DATA
[DUEL] Epoch ended. INSTR misses = 2, DATA misses = 6. Winner = INSTR
[DUEL] Epoch ended. INSTR misses = 0, DATA misses = 0. Winner = INSTR
[DUEL] Epoch ended. INSTR misses = 16, DATA misses = 10. Winner = DATA
Heartbeat CPU 0 instructions: 100000000 cycles: 34557313 heartbeat IPC: 3.74 cumulative IPC: 2.432 (Simulation time: 00 hr 06 min 52 sec)
[DUEL] Epoch ended. INSTR misses = 3, DATA misses = 4. Winner = INSTR
[DUEL] Epoch ended. INSTR misses = 3, DATA misses = 2. Winner = DATA
[DUEL] Epoch ended. INSTR misses = 0, DATA misses = 0. Winner = INSTR
[DUEL] Epoch ended. INSTR misses = 0, DATA misses = 2. Winner = INSTR
[DUEL] Epoch ended. INSTR misses = 0, DATA misses = 2. Winner = INSTR
[DUEL] Epoch ended. INSTR misses = 0, DATA misses = 0. Winner = INSTR
[DUEL] Epoch ended. INSTR misses = 3, DATA misses = 3. Winner = INSTR
[DUEL] Epoch ended. INSTR misses = 0, DATA misses = 1. Winner = INSTR
[DUEL] Epoch ended. INSTR misses = 0, DATA misses = 0. Winner = INSTR
[DUEL] Epoch ended. INSTR misses = 12, DATA misses = 19. Winner = INSTR
[DUEL] Epoch ended. INSTR misses = 11, DATA misses = 9. Winner = DATA
[DUEL] Epoch ended. INSTR misses = 28, DATA misses = 25. Winner = DATA
[DUEL] Epoch ended. INSTR misses = 176, DATA misses = 154. Winner = DATA
[DUEL] Epoch ended. INSTR misses = 306, DATA misses = 289. Winner = DATA
[DUEL] Epoch ended. INSTR misses = 19, DATA misses = 17. Winner = DATA
[DUEL] Epoch ended. INSTR misses = 40, DATA misses = 38. Winner = DATA
[DUEL] Epoch ended. INSTR misses = 30, DATA misses = 31. Winner = INSTR
[DUEL] Epoch ended. INSTR misses = 41, DATA misses = 40. Winner = DATA
[DUEL] Epoch ended. INSTR misses = 16, DATA misses = 18. Winner = INSTR
[DUEL] Epoch ended. INSTR misses = 25, DATA misses = 20. Winner = DATA
Heartbeat CPU 0 instructions: 110000006 cycles: 40660881 heartbeat IPC: 1.638 cumulative IPC: 2.293 (Simulation time: 00 hr 07 min 52 sec)
[DUEL] Epoch ended. INSTR misses = 23, DATA misses = 16. Winner = DATA
[DUEL] Epoch ended. INSTR misses = 16, DATA misses = 16. Winner = INSTR
[DUEL] Epoch ended. INSTR misses = 32, DATA misses = 26. Winner = DATA
[DUEL] Epoch ended. INSTR misses = 16, DATA misses = 16. Winner = INSTR
[DUEL] Epoch ended. INSTR misses = 33, DATA misses = 32. Winner = DATA
[DUEL] Epoch ended. INSTR misses = 50, DATA misses = 49. Winner = DATA
[DUEL] Epoch ended. INSTR misses = 16, DATA misses = 16. Winner = INSTR
[DUEL] Epoch ended. INSTR misses = 15, DATA misses = 10. Winner = DATA
[DUEL] Epoch ended. INSTR misses = 24, DATA misses = 26. Winner = INSTR
[DUEL] Epoch ended. INSTR misses = 31, DATA misses = 32. Winner = INSTR
[DUEL] Epoch ended. INSTR misses = 76, DATA misses = 63. Winner = DATA
[DUEL] Epoch ended. INSTR misses = 2, DATA misses = 0. Winner = DATA
[DUEL] Epoch ended. INSTR misses = 3, DATA misses = 0. Winner = DATA
[DUEL] Epoch ended. INSTR misses = 28, DATA misses = 20. Winner = DATA
[DUEL] Epoch ended. INSTR misses = 0, DATA misses = 0. Winner = INSTR
[DUEL] Epoch ended. INSTR misses = 0, DATA misses = 0. Winner = INSTR
[DUEL] Epoch ended. INSTR misses = 0, DATA misses = 0. Winner = INSTR
[DUEL] Epoch ended. INSTR misses = 0, DATA misses = 0. Winner = INSTR
[DUEL] Epoch ended. INSTR misses = 8, DATA misses = 10. Winner = INSTR
Heartbeat CPU 0 instructions: 120000009 cycles: 44309097 heartbeat IPC: 2.741 cumulative IPC: 2.336 (Simulation time: 00 hr 08 min 36 sec)
[DUEL] Epoch ended. INSTR misses = 0, DATA misses = 0. Winner = INSTR
[DUEL] Epoch ended. INSTR misses = 0, DATA misses = 0. Winner = INSTR
[DUEL] Epoch ended. INSTR misses = 0, DATA misses = 0. Winner = INSTR
[DUEL] Epoch ended. INSTR misses = 0, DATA misses = 0. Winner = INSTR
[DUEL] Epoch ended. INSTR misses = 0, DATA misses = 0. Winner = INSTR
[DUEL] Epoch ended. INSTR misses = 7, DATA misses = 8. Winner = INSTR
*** Reached end of trace: (0, "../traces/public_traces/compute_int/compute_int_32.champsimtrace.xz")
[DUEL] Epoch ended. INSTR misses = 21, DATA misses = 14. Winner = DATA
[DUEL] Epoch ended. INSTR misses = 0, DATA misses = 1. Winner = INSTR
[DUEL] Epoch ended. INSTR misses = 2, DATA misses = 1. Winner = DATA
[DUEL] Epoch ended. INSTR misses = 3, DATA misses = 14. Winner = INSTR
[DUEL] Epoch ended. INSTR misses = 0, DATA misses = 0. Winner = INSTR
[DUEL] Epoch ended. INSTR misses = 18, DATA misses = 19. Winner = INSTR
[DUEL] Epoch ended. INSTR misses = 2, DATA misses = 0. Winner = DATA
[DUEL] Epoch ended. INSTR misses = 2, DATA misses = 2. Winner = INSTR
[DUEL] Epoch ended. INSTR misses = 0, DATA misses = 0. Winner = INSTR
[DUEL] Epoch ended. INSTR misses = 0, DATA misses = 1. Winner = INSTR
[DUEL] Epoch ended. INSTR misses = 0, DATA misses = 0. Winner = INSTR
[DUEL] Epoch ended. INSTR misses = 11, DATA misses = 15. Winner = INSTR
[DUEL] Epoch ended. INSTR misses = 2, DATA misses = 0. Winner = DATA
[DUEL] Epoch ended. INSTR misses = 0, DATA misses = 0. Winner = INSTR
Heartbeat CPU 0 instructions: 130000001 cycles: 47004108 heartbeat IPC: 3.711 cumulative IPC: 2.426 (Simulation time: 00 hr 09 min 15 sec)
Simulation finished CPU 0 instructions: 100000010 cycles: 41228036 cumulative IPC: 2.426 (Simulation time: 00 hr 09 min 15 sec)
Simulation complete CPU 0 instructions: 100000010 cycles: 41228036 cumulative IPC: 2.426 (Simulation time: 00 hr 09 min 15 sec)

ChampSim completed all CPUs

=== Simulation ===
CPU 0 runs ../traces/public_traces/compute_int/compute_int_32.champsimtrace.xz
Region of Interest Statistics

CPU 0 cumulative IPC: 2.426 instructions: 100000010 cycles: 41228036
CPU 0 Branch Prediction Accuracy: 99.8% MPKI: 0.4428 Average ROB Occupancy at Mispredict: 209.2
Branch type MPKI
BRANCH_DIRECT_JUMP: 0.00109
BRANCH_INDIRECT: 0.276
BRANCH_CONDITIONAL: 0.161
BRANCH_DIRECT_CALL: 0.00148
BRANCH_INDIRECT_CALL: 0.00108
BRANCH_RETURN: 0.00193

LLC TOTAL        ACCESS:    1496741 HIT:     321441 MISS:    1175300
LLC LOAD         ACCESS:     251285 HIT:      44304 MISS:     206981
LLC RFO          ACCESS:     106205 HIT:      34662 MISS:      71543
LLC PREFETCH     ACCESS:     852959 HIT:     107305 MISS:     745654
LLC WRITE        ACCESS:     271068 HIT:     134310 MISS:     136758
LLC TRANSLATION  ACCESS:      15224 HIT:        860 MISS:      14364
LLC PREFETCH REQUESTED:          0 ISSUED:          0 USEFUL:          0 USELESS:          0
LLC AVERAGE MISS LATENCY: 310.8 cycles
cpu0_DTLB TOTAL        ACCESS:   18279611 HIT:   17251758 MISS:    1027853
cpu0_DTLB LOAD         ACCESS:   18279611 HIT:   17251758 MISS:    1027853
cpu0_DTLB RFO          ACCESS:          0 HIT:          0 MISS:          0
cpu0_DTLB PREFETCH     ACCESS:          0 HIT:          0 MISS:          0
cpu0_DTLB WRITE        ACCESS:          0 HIT:          0 MISS:          0
cpu0_DTLB TRANSLATION  ACCESS:          0 HIT:          0 MISS:          0
cpu0_DTLB PREFETCH REQUESTED:          0 ISSUED:          0 USEFUL:          0 USELESS:          0
cpu0_DTLB AVERAGE MISS LATENCY: 9.254 cycles
cpu0_ITLB TOTAL        ACCESS:    8334454 HIT:    8329466 MISS:       4988
cpu0_ITLB LOAD         ACCESS:    8334454 HIT:    8329466 MISS:       4988
cpu0_ITLB RFO          ACCESS:          0 HIT:          0 MISS:          0
cpu0_ITLB PREFETCH     ACCESS:          0 HIT:          0 MISS:          0
cpu0_ITLB WRITE        ACCESS:          0 HIT:          0 MISS:          0
cpu0_ITLB TRANSLATION  ACCESS:          0 HIT:          0 MISS:          0
cpu0_ITLB PREFETCH REQUESTED:          0 ISSUED:          0 USEFUL:          0 USELESS:          0
cpu0_ITLB AVERAGE MISS LATENCY: 43.9 cycles
cpu0_L1D TOTAL        ACCESS:   32155954 HIT:   27225278 MISS:    4930676
cpu0_L1D LOAD         ACCESS:   15517216 HIT:   12897955 MISS:    2619261
cpu0_L1D RFO          ACCESS:          0 HIT:          0 MISS:          0
cpu0_L1D PREFETCH     ACCESS:    7321763 HIT:    5451320 MISS:    1870443
cpu0_L1D WRITE        ACCESS:    9281335 HIT:    8862002 MISS:     419333
cpu0_L1D TRANSLATION  ACCESS:      35640 HIT:      14001 MISS:      21639
cpu0_L1D PREFETCH REQUESTED:   29104042 ISSUED:    7321763 USEFUL:     229935 USELESS:      24920
cpu0_L1D AVERAGE MISS LATENCY: 36.92 cycles
cpu0_L1I TOTAL        ACCESS:   12319478 HIT:    9160919 MISS:    3158559
cpu0_L1I LOAD         ACCESS:    5635861 HIT:    3899018 MISS:    1736843
cpu0_L1I RFO          ACCESS:          0 HIT:          0 MISS:          0
cpu0_L1I PREFETCH     ACCESS:    6683617 HIT:    5261901 MISS:    1421716
cpu0_L1I WRITE        ACCESS:          0 HIT:          0 MISS:          0
cpu0_L1I TRANSLATION  ACCESS:          0 HIT:          0 MISS:          0
cpu0_L1I PREFETCH REQUESTED:   26736619 ISSUED:    6683644 USEFUL:     882815 USELESS:     445068
cpu0_L1I AVERAGE MISS LATENCY: 10.48 cycles
cpu0_L2C TOTAL        ACCESS:   12195211 HIT:    9436223 MISS:    2758988
cpu0_L2C LOAD         ACCESS:    3096176 HIT:    2669060 MISS:     427116
cpu0_L2C RFO          ACCESS:     138580 HIT:      30703 MISS:     107877
cpu0_L2C PREFETCH     ACCESS:    8621349 HIT:    6412770 MISS:    2208579
cpu0_L2C WRITE        ACCESS:     317690 HIT:     317504 MISS:        186
cpu0_L2C TRANSLATION  ACCESS:      21416 HIT:       6186 MISS:      15230
cpu0_L2C PREFETCH REQUESTED:    6125310 ISSUED:    5612556 USEFUL:     406463 USELESS:     180442
cpu0_L2C AVERAGE MISS LATENCY: 131.6 cycles
cpu0_STLB TOTAL        ACCESS:     720512 HIT:     688143 MISS:      32369
cpu0_STLB LOAD         ACCESS:     720512 HIT:     688143 MISS:      32369
cpu0_STLB RFO          ACCESS:          0 HIT:          0 MISS:          0
cpu0_STLB PREFETCH     ACCESS:          0 HIT:          0 MISS:          0
cpu0_STLB WRITE        ACCESS:          0 HIT:          0 MISS:          0
cpu0_STLB TRANSLATION  ACCESS:          0 HIT:          0 MISS:          0
cpu0_STLB PREFETCH REQUESTED:          0 ISSUED:          0 USEFUL:          0 USELESS:          0
cpu0_STLB AVERAGE MISS LATENCY: 208 cycles

DRAM Statistics

Channel 0 RQ ROW_BUFFER_HIT:     163308
  ROW_BUFFER_MISS:     358570
 AVG DBUS CONGESTED CYCLE: 3.924
WQ ROW_BUFFER_HIT: Channel 0 
  ROW_BUFFER_MISS:       5387
  FULL:      79814

Channel 1 RQ ROW_BUFFER_HIT:     161762
  ROW_BUFFER_MISS:     354883
 AVG DBUS CONGESTED CYCLE: 3.919
WQ ROW_BUFFER_HIT: Channel 1 
  ROW_BUFFER_MISS:       5559
  FULL:      79316
BERTI TO_L1: 15182116 TO_L2: 19209289 TO_L2_BC_MSHR: 5422740
BERTI AVG_LAT: 72.728 NUM_TRACK_LATENCY: 2632182 NUM_CANT_TRACK_LATENCY: 23
BERTI CROSS_PAGE 4526277 NO_CROSS_PAGE: 29865128
BERTI FOUND_BERTI: 10499446 NO_FOUND_BERTI: 14936368
BERTI AVERAGE_ISSUED: 4.27744
CPU 0 L1I Entangling prefetcher final stats
IP accesses: 9b7f 26dfc0 55076 / 5682050
IP misses: 6fcd 1bf340 10417 / 1783032
IP hits: 0 0 0 / 0
IP late: 6fcd 1bf340 2970 / 727288
IP wrong: 2abc aaf00 3311 / 436820
miss rate: 0.313801
coverage: 0
coverage_late: 0.407894
accuracy: 0
accuracy_late: 0.62476
discarded: 0
evicts entangled j table: 0
evicts entangled k table: 205309
max bb size: 14
formats: 118 0 171236 29974 12644 35391 0 
hist_lookups: 48990 99481 143362 168608 134975 105539 86325 67161 43852 30443 21673 15016 10790 5948 2125 0 75 122021 
hist_lookups_evict: 0.00677884 %
hist_lookups_shortlat: 11.0289 %
bb_found_hist: 0 1168771 678905 391246 172385 154426 100878 37531 20032 8 4399 5185 1203 6109 1628 0 0 0 0 0 0 0 0 0 0 0 0 0 0 0 0 0 0 0 0 0 0 0 0 0 0 0 0 0 0 0 0 0 0 0 0 0 0 0 0 0 0 0 0 0 0 0 0 0 
bb_found_summary: 6407972 2742706 2.33637
entangled_found_hist: 0 407987 476524 1781496 128099 27984 8000 0 
entangled_found_summary: 7405839 2830090 2.61683
bb_ent_found_hist: 0 2142360 1462280 750698 392488 389546 258172 132171 95931 5 38793 28820 11293 25438 6496 0 0 0 0 0 0 0 0 0 0 0 0 0 0 0 0 0 0 0 0 0 0 0 0 0 0 0 0 0 0 0 0 0 0 0 0 0 0 0 0 0 0 0 0 0 0 0 0 0 
bb_ent_found_summary: 15340522 5734491 2.67514
