WARNING: physical memory size is smaller than virtual memory size.

*** ChampSim Multicore Out-of-Order Simulator ***
Warmup Instructions: 30000000
Simulation Instructions: 100000000
Number of CPUs: 1
Page size: 4096

BTB:
Basic BTB sets: 1024 ways: 8
Indirect:
history lengths: 0 0 10 16 27 44 60 96 109 219 449 487 714 1313 2146 3881 
ITTAGE tables: 64768 bytes;Region table: 240 bytes;IUM: 384 bytes;Total Storage= 65392 bytes;
RAS:
RAS size: 64
[LLC] INSTR Demand IPV: 1 2 2 1 4 Prefetch IPV: 1 2 1 1 4
[LLC] DATA  Demand IPV: 1 1 1 2 4 Prefetch IPV: 1 1 2 2 4
Berti Prefetcher
CPU 0 Entangling prefetcher
Off-chip DRAM Size: 8 GiB Channels: 2 Width: 64-bit Data Race: 6400 MT/s
[DUEL] Epoch ended. INSTR misses = 1, DATA misses = 0. Winner = DATA
[DUEL] Epoch ended. INSTR misses = 0, DATA misses = 0. Winner = INSTR
[DUEL] Epoch ended. INSTR misses = 0, DATA misses = 0. Winner = INSTR
[DUEL] Epoch ended. INSTR misses = 0, DATA misses = 0. Winner = INSTR
[DUEL] Epoch ended. INSTR misses = 16, DATA misses = 16. Winner = INSTR
[DUEL] Epoch ended. INSTR misses = 10, DATA misses = 8. Winner = DATA
[DUEL] Epoch ended. INSTR misses = 36, DATA misses = 36. Winner = INSTR
[DUEL] Epoch ended. INSTR misses = 0, DATA misses = 0. Winner = INSTR
[DUEL] Epoch ended. INSTR misses = 0, DATA misses = 0. Winner = INSTR
[DUEL] Epoch ended. INSTR misses = 32, DATA misses = 34. Winner = INSTR
Heartbeat CPU 0 instructions: 10000001 cycles: 1697382 heartbeat IPC: 5.891 cumulative IPC: 5.891 (Simulation time: 00 hr 00 min 17 sec)
[DUEL] Epoch ended. INSTR misses = 16, DATA misses = 16. Winner = INSTR
[DUEL] Epoch ended. INSTR misses = 32, DATA misses = 32. Winner = INSTR
[DUEL] Epoch ended. INSTR misses = 0, DATA misses = 0. Winner = INSTR
[DUEL] Epoch ended. INSTR misses = 16, DATA misses = 16. Winner = INSTR
[DUEL] Epoch ended. INSTR misses = 16, DATA misses = 16. Winner = INSTR
Heartbeat CPU 0 instructions: 20000002 cycles: 3403452 heartbeat IPC: 5.861 cumulative IPC: 5.876 (Simulation time: 00 hr 00 min 34 sec)
[DUEL] Epoch ended. INSTR misses = 3, DATA misses = 0. Winner = DATA
[DUEL] Epoch ended. INSTR misses = 3, DATA misses = 0. Winner = DATA
[DUEL] Epoch ended. INSTR misses = 16, DATA misses = 16. Winner = INSTR
[DUEL] Epoch ended. INSTR misses = 1, DATA misses = 0. Winner = DATA
[DUEL] Epoch ended. INSTR misses = 0, DATA misses = 0. Winner = INSTR
[DUEL] Epoch ended. INSTR misses = 0, DATA misses = 7. Winner = INSTR
[DUEL] Epoch ended. INSTR misses = 36, DATA misses = 38. Winner = INSTR
[DUEL] Epoch ended. INSTR misses = 0, DATA misses = 0. Winner = INSTR
Heartbeat CPU 0 instructions: 30000002 cycles: 5110874 heartbeat IPC: 5.857 cumulative IPC: 5.87 (Simulation time: 00 hr 00 min 52 sec)
Warmup finished CPU 0 instructions: 30000002 cycles: 5110875 cumulative IPC: 5.87 (Simulation time: 00 hr 00 min 52 sec)
Warmup complete CPU 0 instructions: 30000002 cycles: 5110875 cumulative IPC: 5.87 (Simulation time: 00 hr 00 min 52 sec)
*** Reached end of trace: (0, "../traces/public_traces/compute_int/compute_int_11.champsimtrace.xz")
[DUEL] Epoch ended. INSTR misses = 0, DATA misses = 0. Winner = INSTR
[DUEL] Epoch ended. INSTR misses = 1, DATA misses = 1. Winner = INSTR
[DUEL] Epoch ended. INSTR misses = 3, DATA misses = 8. Winner = INSTR
[DUEL] Epoch ended. INSTR misses = 6, DATA misses = 4. Winner = DATA
Heartbeat CPU 0 instructions: 40000000 cycles: 10396801 heartbeat IPC: 1.892 cumulative IPC: 1.892 (Simulation time: 00 hr 01 min 40 sec)
[DUEL] Epoch ended. INSTR misses = 2, DATA misses = 5. Winner = INSTR
[DUEL] Epoch ended. INSTR misses = 15, DATA misses = 8. Winner = DATA
[DUEL] Epoch ended. INSTR misses = 0, DATA misses = 0. Winner = INSTR
[DUEL] Epoch ended. INSTR misses = 7, DATA misses = 9. Winner = INSTR
[DUEL] Epoch ended. INSTR misses = 5, DATA misses = 10. Winner = INSTR
Heartbeat CPU 0 instructions: 50000006 cycles: 15685256 heartbeat IPC: 1.891 cumulative IPC: 1.891 (Simulation time: 00 hr 02 min 29 sec)
[DUEL] Epoch ended. INSTR misses = 1, DATA misses = 0. Winner = DATA
[DUEL] Epoch ended. INSTR misses = 1, DATA misses = 0. Winner = DATA
[DUEL] Epoch ended. INSTR misses = 10, DATA misses = 11. Winner = INSTR
[DUEL] Epoch ended. INSTR misses = 0, DATA misses = 0. Winner = INSTR
[DUEL] Epoch ended. INSTR misses = 0, DATA misses = 0. Winner = INSTR
[DUEL] Epoch ended. INSTR misses = 0, DATA misses = 2. Winner = INSTR
[DUEL] Epoch ended. INSTR misses = 19, DATA misses = 18. Winner = DATA
Heartbeat CPU 0 instructions: 60000000 cycles: 20970188 heartbeat IPC: 1.892 cumulative IPC: 1.892 (Simulation time: 00 hr 03 min 17 sec)
[DUEL] Epoch ended. INSTR misses = 0, DATA misses = 0. Winner = INSTR
*** Reached end of trace: (0, "../traces/public_traces/compute_int/compute_int_11.champsimtrace.xz")
[DUEL] Epoch ended. INSTR misses = 0, DATA misses = 0. Winner = INSTR
[DUEL] Epoch ended. INSTR misses = 1, DATA misses = 4. Winner = INSTR
[DUEL] Epoch ended. INSTR misses = 2, DATA misses = 5. Winner = INSTR
[DUEL] Epoch ended. INSTR misses = 2, DATA misses = 4. Winner = INSTR
Heartbeat CPU 0 instructions: 70000001 cycles: 26253325 heartbeat IPC: 1.893 cumulative IPC: 1.892 (Simulation time: 00 hr 04 min 06 sec)
[DUEL] Epoch ended. INSTR misses = 2, DATA misses = 3. Winner = INSTR
[DUEL] Epoch ended. INSTR misses = 11, DATA misses = 6. Winner = DATA
[DUEL] Epoch ended. INSTR misses = 0, DATA misses = 0. Winner = INSTR
[DUEL] Epoch ended. INSTR misses = 5, DATA misses = 4. Winner = DATA
[DUEL] Epoch ended. INSTR misses = 3, DATA misses = 10. Winner = INSTR
Heartbeat CPU 0 instructions: 80000000 cycles: 31540939 heartbeat IPC: 1.891 cumulative IPC: 1.892 (Simulation time: 00 hr 04 min 54 sec)
[DUEL] Epoch ended. INSTR misses = 1, DATA misses = 0. Winner = DATA
[DUEL] Epoch ended. INSTR misses = 1, DATA misses = 0. Winner = DATA
[DUEL] Epoch ended. INSTR misses = 6, DATA misses = 8. Winner = INSTR
[DUEL] Epoch ended. INSTR misses = 0, DATA misses = 0. Winner = INSTR
[DUEL] Epoch ended. INSTR misses = 0, DATA misses = 0. Winner = INSTR
[DUEL] Epoch ended. INSTR misses = 0, DATA misses = 1. Winner = INSTR
[DUEL] Epoch ended. INSTR misses = 15, DATA misses = 15. Winner = INSTR
Heartbeat CPU 0 instructions: 90000002 cycles: 36821476 heartbeat IPC: 1.894 cumulative IPC: 1.892 (Simulation time: 00 hr 05 min 43 sec)
[DUEL] Epoch ended. INSTR misses = 0, DATA misses = 0. Winner = INSTR
*** Reached end of trace: (0, "../traces/public_traces/compute_int/compute_int_11.champsimtrace.xz")
[DUEL] Epoch ended. INSTR misses = 0, DATA misses = 0. Winner = INSTR
[DUEL] Epoch ended. INSTR misses = 1, DATA misses = 1. Winner = INSTR
[DUEL] Epoch ended. INSTR misses = 1, DATA misses = 4. Winner = INSTR
[DUEL] Epoch ended. INSTR misses = 1, DATA misses = 3. Winner = INSTR
Heartbeat CPU 0 instructions: 100000000 cycles: 42104761 heartbeat IPC: 1.893 cumulative IPC: 1.892 (Simulation time: 00 hr 06 min 31 sec)
[DUEL] Epoch ended. INSTR misses = 2, DATA misses = 3. Winner = INSTR
[DUEL] Epoch ended. INSTR misses = 10, DATA misses = 5. Winner = DATA
[DUEL] Epoch ended. INSTR misses = 0, DATA misses = 0. Winner = INSTR
[DUEL] Epoch ended. INSTR misses = 4, DATA misses = 2. Winner = DATA
[DUEL] Epoch ended. INSTR misses = 3, DATA misses = 10. Winner = INSTR
Heartbeat CPU 0 instructions: 110000003 cycles: 47391896 heartbeat IPC: 1.891 cumulative IPC: 1.892 (Simulation time: 00 hr 07 min 20 sec)
[DUEL] Epoch ended. INSTR misses = 1, DATA misses = 0. Winner = DATA
[DUEL] Epoch ended. INSTR misses = 1, DATA misses = 0. Winner = DATA
[DUEL] Epoch ended. INSTR misses = 4, DATA misses = 8. Winner = INSTR
[DUEL] Epoch ended. INSTR misses = 0, DATA misses = 0. Winner = INSTR
[DUEL] Epoch ended. INSTR misses = 0, DATA misses = 0. Winner = INSTR
[DUEL] Epoch ended. INSTR misses = 0, DATA misses = 1. Winner = INSTR
[DUEL] Epoch ended. INSTR misses = 14, DATA misses = 12. Winner = DATA
Heartbeat CPU 0 instructions: 120000000 cycles: 52671263 heartbeat IPC: 1.894 cumulative IPC: 1.892 (Simulation time: 00 hr 08 min 08 sec)
[DUEL] Epoch ended. INSTR misses = 0, DATA misses = 0. Winner = INSTR
*** Reached end of trace: (0, "../traces/public_traces/compute_int/compute_int_11.champsimtrace.xz")
[DUEL] Epoch ended. INSTR misses = 0, DATA misses = 0. Winner = INSTR
[DUEL] Epoch ended. INSTR misses = 1, DATA misses = 1. Winner = INSTR
[DUEL] Epoch ended. INSTR misses = 1, DATA misses = 3. Winner = INSTR
[DUEL] Epoch ended. INSTR misses = 1, DATA misses = 3. Winner = INSTR
Heartbeat CPU 0 instructions: 130000000 cycles: 57952563 heartbeat IPC: 1.893 cumulative IPC: 1.892 (Simulation time: 00 hr 08 min 57 sec)
Simulation finished CPU 0 instructions: 100000001 cycles: 52841691 cumulative IPC: 1.892 (Simulation time: 00 hr 08 min 57 sec)
Simulation complete CPU 0 instructions: 100000001 cycles: 52841691 cumulative IPC: 1.892 (Simulation time: 00 hr 08 min 57 sec)

ChampSim completed all CPUs

=== Simulation ===
CPU 0 runs ../traces/public_traces/compute_int/compute_int_11.champsimtrace.xz
Region of Interest Statistics

CPU 0 cumulative IPC: 1.892 instructions: 100000001 cycles: 52841691
CPU 0 Branch Prediction Accuracy: 99.89% MPKI: 0.00466 Average ROB Occupancy at Mispredict: 227.7
Branch type MPKI
BRANCH_DIRECT_JUMP: 0
BRANCH_INDIRECT: 0.00084
BRANCH_CONDITIONAL: 0.00382
BRANCH_DIRECT_CALL: 0
BRANCH_INDIRECT_CALL: 0
BRANCH_RETURN: 0

LLC TOTAL        ACCESS:     155328 HIT:     139103 MISS:      16225
LLC LOAD         ACCESS:      16671 HIT:      14566 MISS:       2105
LLC RFO          ACCESS:       8193 HIT:       8154 MISS:         39
LLC PREFETCH     ACCESS:     121718 HIT:     107902 MISS:      13816
LLC WRITE        ACCESS:       8703 HIT:       8463 MISS:        240
LLC TRANSLATION  ACCESS:         43 HIT:         18 MISS:         25
LLC PREFETCH REQUESTED:          0 ISSUED:          0 USEFUL:          0 USELESS:          0
LLC AVERAGE MISS LATENCY: 87.09 cycles
cpu0_DTLB TOTAL        ACCESS:    7907104 HIT:    7876627 MISS:      30477
cpu0_DTLB LOAD         ACCESS:    7907104 HIT:    7876627 MISS:      30477
cpu0_DTLB RFO          ACCESS:          0 HIT:          0 MISS:          0
cpu0_DTLB PREFETCH     ACCESS:          0 HIT:          0 MISS:          0
cpu0_DTLB WRITE        ACCESS:          0 HIT:          0 MISS:          0
cpu0_DTLB TRANSLATION  ACCESS:          0 HIT:          0 MISS:          0
cpu0_DTLB PREFETCH REQUESTED:          0 ISSUED:          0 USEFUL:          0 USELESS:          0
cpu0_DTLB AVERAGE MISS LATENCY: 2.201 cycles
cpu0_ITLB TOTAL        ACCESS:      89427 HIT:      89376 MISS:         51
cpu0_ITLB LOAD         ACCESS:      89427 HIT:      89376 MISS:         51
cpu0_ITLB RFO          ACCESS:          0 HIT:          0 MISS:          0
cpu0_ITLB PREFETCH     ACCESS:          0 HIT:          0 MISS:          0
cpu0_ITLB WRITE        ACCESS:          0 HIT:          0 MISS:          0
cpu0_ITLB TRANSLATION  ACCESS:          0 HIT:          0 MISS:          0
cpu0_ITLB PREFETCH REQUESTED:          0 ISSUED:          0 USEFUL:          0 USELESS:          0
cpu0_ITLB AVERAGE MISS LATENCY: 74.65 cycles
cpu0_L1D TOTAL        ACCESS:    9084905 HIT:    7352873 MISS:    1732032
cpu0_L1D LOAD         ACCESS:    7914322 HIT:    7014938 MISS:     899384
cpu0_L1D RFO          ACCESS:          0 HIT:          0 MISS:          0
cpu0_L1D PREFETCH     ACCESS:     456522 HIT:     235758 MISS:     220764
cpu0_L1D WRITE        ACCESS:     714014 HIT:     102176 MISS:     611838
cpu0_L1D TRANSLATION  ACCESS:         47 HIT:          1 MISS:         46
cpu0_L1D PREFETCH REQUESTED:     584473 ISSUED:     456522 USEFUL:     108881 USELESS:       2107
cpu0_L1D AVERAGE MISS LATENCY: 2.931 cycles
cpu0_L1I TOTAL        ACCESS:     131756 HIT:     102895 MISS:      28861
cpu0_L1I LOAD         ACCESS:      61707 HIT:      45440 MISS:      16267
cpu0_L1I RFO          ACCESS:          0 HIT:          0 MISS:          0
cpu0_L1I PREFETCH     ACCESS:      70049 HIT:      57455 MISS:      12594
cpu0_L1I WRITE        ACCESS:          0 HIT:          0 MISS:          0
cpu0_L1I TRANSLATION  ACCESS:          0 HIT:          0 MISS:          0
cpu0_L1I PREFETCH REQUESTED:     126889 ISSUED:      70049 USEFUL:       9825 USELESS:        554
cpu0_L1I AVERAGE MISS LATENCY: 10.61 cycles
cpu0_L2C TOTAL        ACCESS:     890983 HIT:     650140 MISS:     240843
cpu0_L2C LOAD         ACCESS:     174744 HIT:     154756 MISS:      19988
cpu0_L2C RFO          ACCESS:     124761 HIT:     116565 MISS:       8196
cpu0_L2C PREFETCH     ACCESS:     463183 HIT:     250567 MISS:     212616
cpu0_L2C WRITE        ACCESS:     128249 HIT:     128249 MISS:          0
cpu0_L2C TRANSLATION  ACCESS:         46 HIT:          3 MISS:         43
cpu0_L2C PREFETCH REQUESTED:     361678 ISSUED:     276249 USEFUL:       1096 USELESS:       5596
cpu0_L2C AVERAGE MISS LATENCY: 17.82 cycles
cpu0_STLB TOTAL        ACCESS:      13068 HIT:      13040 MISS:         28
cpu0_STLB LOAD         ACCESS:      13068 HIT:      13040 MISS:         28
cpu0_STLB RFO          ACCESS:          0 HIT:          0 MISS:          0
cpu0_STLB PREFETCH     ACCESS:          0 HIT:          0 MISS:          0
cpu0_STLB WRITE        ACCESS:          0 HIT:          0 MISS:          0
cpu0_STLB TRANSLATION  ACCESS:          0 HIT:          0 MISS:          0
cpu0_STLB PREFETCH REQUESTED:          0 ISSUED:          0 USEFUL:          0 USELESS:          0
cpu0_STLB AVERAGE MISS LATENCY: 353.1 cycles

DRAM Statistics

Channel 0 RQ ROW_BUFFER_HIT:       6369
  ROW_BUFFER_MISS:       1799
 AVG DBUS CONGESTED CYCLE: 3.613
WQ ROW_BUFFER_HIT: Channel 0 
  ROW_BUFFER_MISS:         60
  FULL:         79

Channel 1 RQ ROW_BUFFER_HIT:       6148
  ROW_BUFFER_MISS:       1669
 AVG DBUS CONGESTED CYCLE: 3.585
WQ ROW_BUFFER_HIT: Channel 1 
  ROW_BUFFER_MISS:         50
  FULL:         64
BERTI TO_L1: 1583971 TO_L2: 385477 TO_L2_BC_MSHR: 86820
BERTI AVG_LAT: 27.042 NUM_TRACK_LATENCY: 360680 NUM_CANT_TRACK_LATENCY: 0
BERTI CROSS_PAGE 434253 NO_CROSS_PAGE: 1535195
BERTI FOUND_BERTI: 679367 NO_FOUND_BERTI: 8619429
BERTI AVERAGE_ISSUED: 5.35699
CPU 0 L1I Entangling prefetcher final stats
IP accesses: 390a e4280 1104 / 62229
IP misses: 390a e4280 342 / 16789
IP hits: 0 0 0 / 0
IP late: 1a4d 69340 54 / 8768
IP wrong: 215 8540 54 / 548
miss rate: 0.269794
coverage: 0
coverage_late: 0.522247
accuracy: 0
accuracy_late: 0.941177
discarded: 0
evicts entangled j table: 0
evicts entangled k table: 749
max bb size: 47
formats: 77 0 665 358 245 132 0 
hist_lookups: 237 287 392 512 527 453 392 407 330 310 298 156 113 60 7 0 18 5458 
hist_lookups_evict: 0.180778 %
hist_lookups_shortlat: 54.8158 %
bb_found_hist: 0 9455 3407 2748 481 294 104 0 108 108 64 10 0 0 0 0 0 0 0 0 0 0 0 0 68 0 67 0 0 0 0 0 64 0 0 74 0 0 0 0 0 0 0 0 0 0 0 64 0 0 0 0 0 0 0 0 0 0 0 0 0 0 0 0 
bb_found_summary: 42137 17116 2.46185
entangled_found_hist: 0 4588 3912 7516 1725 502 43 0 
entangled_found_summary: 44628 18286 2.44056
bb_ent_found_hist: 0 15648 5524 5051 878 845 366 0 486 216 0 10 0 0 0 0 0 0 0 0 0 0 0 0 0 0 0 0 0 0 0 0 0 0 0 64 0 0 0 0 0 0 0 0 0 0 0 64 0 0 0 0 0 0 0 0 0 0 0 0 0 0 0 0 
bb_ent_found_summary: 62972 29152 2.16013
