WARNING: physical memory size is smaller than virtual memory size.

*** ChampSim Multicore Out-of-Order Simulator ***
Warmup Instructions: 30000000
Simulation Instructions: 100000000
Number of CPUs: 1
Page size: 4096

BTB:
Basic BTB sets: 1024 ways: 8
Indirect:
history lengths: 0 0 10 16 27 44 60 96 109 219 449 487 714 1313 2146 3881 
ITTAGE tables: 64768 bytes;Region table: 240 bytes;IUM: 384 bytes;Total Storage= 65392 bytes;
RAS:
RAS size: 64
[LLC] INSTR Demand IPV: 1 2 2 1 4 Prefetch IPV: 1 2 1 1 4
[LLC] DATA  Demand IPV: 1 1 1 2 4 Prefetch IPV: 1 1 2 2 4
Berti Prefetcher
CPU 0 Entangling prefetcher
Off-chip DRAM Size: 8 GiB Channels: 2 Width: 64-bit Data Race: 6400 MT/s
[DUEL] Epoch ended. INSTR misses = 28, DATA misses = 27. Winner = DATA
[DUEL] Epoch ended. INSTR misses = 11, DATA misses = 11. Winner = INSTR
[DUEL] Epoch ended. INSTR misses = 26, DATA misses = 27. Winner = INSTR
[DUEL] Epoch ended. INSTR misses = 56, DATA misses = 57. Winner = INSTR
[DUEL] Epoch ended. INSTR misses = 147, DATA misses = 142. Winner = DATA
[DUEL] Epoch ended. INSTR misses = 109, DATA misses = 79. Winner = DATA
[DUEL] Epoch ended. INSTR misses = 49, DATA misses = 33. Winner = DATA
[DUEL] Epoch ended. INSTR misses = 17, DATA misses = 16. Winner = DATA
[DUEL] Epoch ended. INSTR misses = 14, DATA misses = 17. Winner = INSTR
[DUEL] Epoch ended. INSTR misses = 22, DATA misses = 21. Winner = DATA
[DUEL] Epoch ended. INSTR misses = 0, DATA misses = 0. Winner = INSTR
[DUEL] Epoch ended. INSTR misses = 37, DATA misses = 13. Winner = DATA
[DUEL] Epoch ended. INSTR misses = 3, DATA misses = 7. Winner = INSTR
[DUEL] Epoch ended. INSTR misses = 29, DATA misses = 29. Winner = INSTR
[DUEL] Epoch ended. INSTR misses = 95, DATA misses = 25. Winner = DATA
[DUEL] Epoch ended. INSTR misses = 62, DATA misses = 33. Winner = DATA
[DUEL] Epoch ended. INSTR misses = 40, DATA misses = 50. Winner = INSTR
[DUEL] Epoch ended. INSTR misses = 12, DATA misses = 5. Winner = DATA
[DUEL] Epoch ended. INSTR misses = 11, DATA misses = 16. Winner = INSTR
Heartbeat CPU 0 instructions: 10000003 cycles: 2026473 heartbeat IPC: 4.935 cumulative IPC: 4.935 (Simulation time: 00 hr 00 min 29 sec)
[DUEL] Epoch ended. INSTR misses = 9, DATA misses = 9. Winner = INSTR
[DUEL] Epoch ended. INSTR misses = 27, DATA misses = 25. Winner = DATA
[DUEL] Epoch ended. INSTR misses = 16, DATA misses = 28. Winner = INSTR
[DUEL] Epoch ended. INSTR misses = 3, DATA misses = 10. Winner = INSTR
[DUEL] Epoch ended. INSTR misses = 55, DATA misses = 51. Winner = DATA
[DUEL] Epoch ended. INSTR misses = 101, DATA misses = 71. Winner = DATA
[DUEL] Epoch ended. INSTR misses = 28, DATA misses = 27. Winner = DATA
[DUEL] Epoch ended. INSTR misses = 24, DATA misses = 26. Winner = INSTR
[DUEL] Epoch ended. INSTR misses = 13, DATA misses = 12. Winner = DATA
[DUEL] Epoch ended. INSTR misses = 22, DATA misses = 23. Winner = INSTR
[DUEL] Epoch ended. INSTR misses = 28, DATA misses = 24. Winner = DATA
[DUEL] Epoch ended. INSTR misses = 6, DATA misses = 7. Winner = INSTR
[DUEL] Epoch ended. INSTR misses = 57, DATA misses = 44. Winner = DATA
[DUEL] Epoch ended. INSTR misses = 80, DATA misses = 45. Winner = DATA
[DUEL] Epoch ended. INSTR misses = 51, DATA misses = 35. Winner = DATA
[DUEL] Epoch ended. INSTR misses = 18, DATA misses = 10. Winner = DATA
[DUEL] Epoch ended. INSTR misses = 7, DATA misses = 5. Winner = DATA
[DUEL] Epoch ended. INSTR misses = 11, DATA misses = 4. Winner = DATA
[DUEL] Epoch ended. INSTR misses = 38, DATA misses = 27. Winner = DATA
[DUEL] Epoch ended. INSTR misses = 42, DATA misses = 33. Winner = DATA
Heartbeat CPU 0 instructions: 20000000 cycles: 4092099 heartbeat IPC: 4.841 cumulative IPC: 4.887 (Simulation time: 00 hr 00 min 56 sec)
[DUEL] Epoch ended. INSTR misses = 59, DATA misses = 46. Winner = DATA
[DUEL] Epoch ended. INSTR misses = 19, DATA misses = 17. Winner = DATA
[DUEL] Epoch ended. INSTR misses = 17, DATA misses = 16. Winner = DATA
[DUEL] Epoch ended. INSTR misses = 17, DATA misses = 20. Winner = INSTR
[DUEL] Epoch ended. INSTR misses = 17, DATA misses = 17. Winner = INSTR
[DUEL] Epoch ended. INSTR misses = 7, DATA misses = 5. Winner = DATA
[DUEL] Epoch ended. INSTR misses = 43, DATA misses = 50. Winner = INSTR
[DUEL] Epoch ended. INSTR misses = 61, DATA misses = 36. Winner = DATA
[DUEL] Epoch ended. INSTR misses = 79, DATA misses = 36. Winner = DATA
[DUEL] Epoch ended. INSTR misses = 63, DATA misses = 25. Winner = DATA
[DUEL] Epoch ended. INSTR misses = 28, DATA misses = 22. Winner = DATA
[DUEL] Epoch ended. INSTR misses = 3, DATA misses = 5. Winner = INSTR
[DUEL] Epoch ended. INSTR misses = 15, DATA misses = 13. Winner = DATA
[DUEL] Epoch ended. INSTR misses = 16, DATA misses = 9. Winner = DATA
[DUEL] Epoch ended. INSTR misses = 11, DATA misses = 10. Winner = DATA
[DUEL] Epoch ended. INSTR misses = 16, DATA misses = 16. Winner = INSTR
[DUEL] Epoch ended. INSTR misses = 23, DATA misses = 22. Winner = DATA
[DUEL] Epoch ended. INSTR misses = 76, DATA misses = 42. Winner = DATA
[DUEL] Epoch ended. INSTR misses = 68, DATA misses = 33. Winner = DATA
Heartbeat CPU 0 instructions: 30000005 cycles: 6120867 heartbeat IPC: 4.929 cumulative IPC: 4.901 (Simulation time: 00 hr 01 min 26 sec)
Warmup finished CPU 0 instructions: 30000005 cycles: 6120868 cumulative IPC: 4.901 (Simulation time: 00 hr 01 min 26 sec)
Warmup complete CPU 0 instructions: 30000005 cycles: 6120868 cumulative IPC: 4.901 (Simulation time: 00 hr 01 min 26 sec)
[DUEL] Epoch ended. INSTR misses = 31, DATA misses = 18. Winner = DATA
[DUEL] Epoch ended. INSTR misses = 26, DATA misses = 26. Winner = INSTR
*** Reached end of trace: (0, "../traces/public_traces/compute_int/compute_int_7.champsimtrace.xz")
[DUEL] Epoch ended. INSTR misses = 1, DATA misses = 1. Winner = INSTR
[DUEL] Epoch ended. INSTR misses = 4, DATA misses = 5. Winner = INSTR
[DUEL] Epoch ended. INSTR misses = 15, DATA misses = 15. Winner = INSTR
[DUEL] Epoch ended. INSTR misses = 39, DATA misses = 35. Winner = DATA
[DUEL] Epoch ended. INSTR misses = 146, DATA misses = 132. Winner = DATA
[DUEL] Epoch ended. INSTR misses = 244, DATA misses = 216. Winner = DATA
[DUEL] Epoch ended. INSTR misses = 240, DATA misses = 220. Winner = DATA
[DUEL] Epoch ended. INSTR misses = 100, DATA misses = 84. Winner = DATA
[DUEL] Epoch ended. INSTR misses = 9, DATA misses = 13. Winner = INSTR
[DUEL] Epoch ended. INSTR misses = 18, DATA misses = 21. Winner = INSTR
[DUEL] Epoch ended. INSTR misses = 0, DATA misses = 0. Winner = INSTR
[DUEL] Epoch ended. INSTR misses = 22, DATA misses = 10. Winner = DATA
[DUEL] Epoch ended. INSTR misses = 9, DATA misses = 12. Winner = INSTR
[DUEL] Epoch ended. INSTR misses = 25, DATA misses = 29. Winner = INSTR
[DUEL] Epoch ended. INSTR misses = 225, DATA misses = 177. Winner = DATA
[DUEL] Epoch ended. INSTR misses = 262, DATA misses = 229. Winner = DATA
[DUEL] Epoch ended. INSTR misses = 267, DATA misses = 247. Winner = DATA
[DUEL] Epoch ended. INSTR misses = 13, DATA misses = 5. Winner = DATA
Heartbeat CPU 0 instructions: 40000009 cycles: 11984591 heartbeat IPC: 1.705 cumulative IPC: 1.705 (Simulation time: 00 hr 02 min 32 sec)
[DUEL] Epoch ended. INSTR misses = 10, DATA misses = 16. Winner = INSTR
[DUEL] Epoch ended. INSTR misses = 7, DATA misses = 6. Winner = DATA
[DUEL] Epoch ended. INSTR misses = 10, DATA misses = 19. Winner = INSTR
[DUEL] Epoch ended. INSTR misses = 25, DATA misses = 32. Winner = INSTR
[DUEL] Epoch ended. INSTR misses = 3, DATA misses = 11. Winner = INSTR
[DUEL] Epoch ended. INSTR misses = 46, DATA misses = 48. Winner = INSTR
[DUEL] Epoch ended. INSTR misses = 146, DATA misses = 130. Winner = DATA
[DUEL] Epoch ended. INSTR misses = 25, DATA misses = 27. Winner = INSTR
[DUEL] Epoch ended. INSTR misses = 23, DATA misses = 24. Winner = INSTR
[DUEL] Epoch ended. INSTR misses = 14, DATA misses = 16. Winner = INSTR
[DUEL] Epoch ended. INSTR misses = 22, DATA misses = 22. Winner = INSTR
[DUEL] Epoch ended. INSTR misses = 27, DATA misses = 25. Winner = DATA
[DUEL] Epoch ended. INSTR misses = 4, DATA misses = 6. Winner = INSTR
[DUEL] Epoch ended. INSTR misses = 64, DATA misses = 66. Winner = INSTR
[DUEL] Epoch ended. INSTR misses = 250, DATA misses = 224. Winner = DATA
[DUEL] Epoch ended. INSTR misses = 138, DATA misses = 119. Winner = DATA
[DUEL] Epoch ended. INSTR misses = 17, DATA misses = 12. Winner = DATA
[DUEL] Epoch ended. INSTR misses = 7, DATA misses = 6. Winner = DATA
[DUEL] Epoch ended. INSTR misses = 11, DATA misses = 9. Winner = DATA
Heartbeat CPU 0 instructions: 50000001 cycles: 16504489 heartbeat IPC: 2.212 cumulative IPC: 1.926 (Simulation time: 00 hr 03 min 20 sec)
[DUEL] Epoch ended. INSTR misses = 37, DATA misses = 32. Winner = DATA
[DUEL] Epoch ended. INSTR misses = 21, DATA misses = 27. Winner = INSTR
[DUEL] Epoch ended. INSTR misses = 139, DATA misses = 125. Winner = DATA
[DUEL] Epoch ended. INSTR misses = 24, DATA misses = 23. Winner = DATA
[DUEL] Epoch ended. INSTR misses = 21, DATA misses = 16. Winner = DATA
[DUEL] Epoch ended. INSTR misses = 16, DATA misses = 17. Winner = INSTR
[DUEL] Epoch ended. INSTR misses = 18, DATA misses = 19. Winner = INSTR
[DUEL] Epoch ended. INSTR misses = 6, DATA misses = 4. Winner = DATA
[DUEL] Epoch ended. INSTR misses = 45, DATA misses = 47. Winner = INSTR
[DUEL] Epoch ended. INSTR misses = 167, DATA misses = 148. Winner = DATA
[DUEL] Epoch ended. INSTR misses = 269, DATA misses = 236. Winner = DATA
[DUEL] Epoch ended. INSTR misses = 229, DATA misses = 208. Winner = DATA
[DUEL] Epoch ended. INSTR misses = 67, DATA misses = 54. Winner = DATA
[DUEL] Epoch ended. INSTR misses = 10, DATA misses = 13. Winner = INSTR
[DUEL] Epoch ended. INSTR misses = 13, DATA misses = 14. Winner = INSTR
[DUEL] Epoch ended. INSTR misses = 11, DATA misses = 8. Winner = DATA
[DUEL] Epoch ended. INSTR misses = 11, DATA misses = 11. Winner = INSTR
[DUEL] Epoch ended. INSTR misses = 18, DATA misses = 16. Winner = DATA
[DUEL] Epoch ended. INSTR misses = 23, DATA misses = 21. Winner = DATA
[DUEL] Epoch ended. INSTR misses = 200, DATA misses = 188. Winner = DATA
Heartbeat CPU 0 instructions: 60000001 cycles: 21690659 heartbeat IPC: 1.928 cumulative IPC: 1.927 (Simulation time: 00 hr 04 min 18 sec)
[DUEL] Epoch ended. INSTR misses = 242, DATA misses = 211. Winner = DATA
[DUEL] Epoch ended. INSTR misses = 130, DATA misses = 112. Winner = DATA
[DUEL] Epoch ended. INSTR misses = 26, DATA misses = 25. Winner = DATA
*** Reached end of trace: (0, "../traces/public_traces/compute_int/compute_int_7.champsimtrace.xz")
[DUEL] Epoch ended. INSTR misses = 2, DATA misses = 1. Winner = DATA
[DUEL] Epoch ended. INSTR misses = 5, DATA misses = 5. Winner = INSTR
[DUEL] Epoch ended. INSTR misses = 15, DATA misses = 15. Winner = INSTR
[DUEL] Epoch ended. INSTR misses = 34, DATA misses = 29. Winner = DATA
[DUEL] Epoch ended. INSTR misses = 144, DATA misses = 123. Winner = DATA
[DUEL] Epoch ended. INSTR misses = 231, DATA misses = 206. Winner = DATA
[DUEL] Epoch ended. INSTR misses = 252, DATA misses = 227. Winner = DATA
[DUEL] Epoch ended. INSTR misses = 105, DATA misses = 89. Winner = DATA
[DUEL] Epoch ended. INSTR misses = 15, DATA misses = 17. Winner = INSTR
[DUEL] Epoch ended. INSTR misses = 19, DATA misses = 21. Winner = INSTR
[DUEL] Epoch ended. INSTR misses = 0, DATA misses = 0. Winner = INSTR
[DUEL] Epoch ended. INSTR misses = 15, DATA misses = 10. Winner = DATA
[DUEL] Epoch ended. INSTR misses = 16, DATA misses = 11. Winner = DATA
[DUEL] Epoch ended. INSTR misses = 25, DATA misses = 30. Winner = INSTR
[DUEL] Epoch ended. INSTR misses = 204, DATA misses = 165. Winner = DATA
[DUEL] Epoch ended. INSTR misses = 260, DATA misses = 232. Winner = DATA
Heartbeat CPU 0 instructions: 70000001 cycles: 28048821 heartbeat IPC: 1.573 cumulative IPC: 1.824 (Simulation time: 00 hr 05 min 29 sec)
[DUEL] Epoch ended. INSTR misses = 271, DATA misses = 247. Winner = DATA
[DUEL] Epoch ended. INSTR misses = 15, DATA misses = 13. Winner = DATA
[DUEL] Epoch ended. INSTR misses = 10, DATA misses = 16. Winner = INSTR
[DUEL] Epoch ended. INSTR misses = 7, DATA misses = 6. Winner = DATA
[DUEL] Epoch ended. INSTR misses = 15, DATA misses = 17. Winner = INSTR
[DUEL] Epoch ended. INSTR misses = 26, DATA misses = 35. Winner = INSTR
[DUEL] Epoch ended. INSTR misses = 3, DATA misses = 11. Winner = INSTR
[DUEL] Epoch ended. INSTR misses = 46, DATA misses = 47. Winner = INSTR
[DUEL] Epoch ended. INSTR misses = 145, DATA misses = 131. Winner = DATA
[DUEL] Epoch ended. INSTR misses = 24, DATA misses = 27. Winner = INSTR
[DUEL] Epoch ended. INSTR misses = 21, DATA misses = 23. Winner = INSTR
[DUEL] Epoch ended. INSTR misses = 16, DATA misses = 17. Winner = INSTR
[DUEL] Epoch ended. INSTR misses = 22, DATA misses = 22. Winner = INSTR
[DUEL] Epoch ended. INSTR misses = 25, DATA misses = 24. Winner = DATA
[DUEL] Epoch ended. INSTR misses = 4, DATA misses = 6. Winner = INSTR
[DUEL] Epoch ended. INSTR misses = 57, DATA misses = 60. Winner = INSTR
[DUEL] Epoch ended. INSTR misses = 252, DATA misses = 225. Winner = DATA
[DUEL] Epoch ended. INSTR misses = 143, DATA misses = 124. Winner = DATA
[DUEL] Epoch ended. INSTR misses = 16, DATA misses = 15. Winner = DATA
[DUEL] Epoch ended. INSTR misses = 7, DATA misses = 6. Winner = DATA
Heartbeat CPU 0 instructions: 80000006 cycles: 32726866 heartbeat IPC: 2.138 cumulative IPC: 1.879 (Simulation time: 00 hr 06 min 19 sec)
[DUEL] Epoch ended. INSTR misses = 10, DATA misses = 10. Winner = INSTR
[DUEL] Epoch ended. INSTR misses = 34, DATA misses = 34. Winner = INSTR
[DUEL] Epoch ended. INSTR misses = 27, DATA misses = 26. Winner = DATA
[DUEL] Epoch ended. INSTR misses = 140, DATA misses = 124. Winner = DATA
[DUEL] Epoch ended. INSTR misses = 24, DATA misses = 23. Winner = DATA
[DUEL] Epoch ended. INSTR misses = 17, DATA misses = 16. Winner = DATA
[DUEL] Epoch ended. INSTR misses = 15, DATA misses = 16. Winner = INSTR
[DUEL] Epoch ended. INSTR misses = 22, DATA misses = 20. Winner = DATA
[DUEL] Epoch ended. INSTR misses = 6, DATA misses = 4. Winner = DATA
[DUEL] Epoch ended. INSTR misses = 47, DATA misses = 45. Winner = DATA
[DUEL] Epoch ended. INSTR misses = 157, DATA misses = 143. Winner = DATA
[DUEL] Epoch ended. INSTR misses = 275, DATA misses = 244. Winner = DATA
[DUEL] Epoch ended. INSTR misses = 219, DATA misses = 200. Winner = DATA
[DUEL] Epoch ended. INSTR misses = 74, DATA misses = 60. Winner = DATA
[DUEL] Epoch ended. INSTR misses = 10, DATA misses = 10. Winner = INSTR
[DUEL] Epoch ended. INSTR misses = 13, DATA misses = 13. Winner = INSTR
[DUEL] Epoch ended. INSTR misses = 16, DATA misses = 8. Winner = DATA
[DUEL] Epoch ended. INSTR misses = 11, DATA misses = 11. Winner = INSTR
[DUEL] Epoch ended. INSTR misses = 18, DATA misses = 16. Winner = DATA
Heartbeat CPU 0 instructions: 90000005 cycles: 37332797 heartbeat IPC: 2.171 cumulative IPC: 1.922 (Simulation time: 00 hr 07 min 10 sec)
[DUEL] Epoch ended. INSTR misses = 23, DATA misses = 21. Winner = DATA
[DUEL] Epoch ended. INSTR misses = 194, DATA misses = 178. Winner = DATA
[DUEL] Epoch ended. INSTR misses = 241, DATA misses = 214. Winner = DATA
[DUEL] Epoch ended. INSTR misses = 136, DATA misses = 121. Winner = DATA
[DUEL] Epoch ended. INSTR misses = 23, DATA misses = 21. Winner = DATA
*** Reached end of trace: (0, "../traces/public_traces/compute_int/compute_int_7.champsimtrace.xz")
[DUEL] Epoch ended. INSTR misses = 7, DATA misses = 6. Winner = DATA
[DUEL] Epoch ended. INSTR misses = 5, DATA misses = 5. Winner = INSTR
[DUEL] Epoch ended. INSTR misses = 15, DATA misses = 15. Winner = INSTR
[DUEL] Epoch ended. INSTR misses = 39, DATA misses = 33. Winner = DATA
[DUEL] Epoch ended. INSTR misses = 138, DATA misses = 121. Winner = DATA
[DUEL] Epoch ended. INSTR misses = 224, DATA misses = 201. Winner = DATA
[DUEL] Epoch ended. INSTR misses = 252, DATA misses = 227. Winner = DATA
[DUEL] Epoch ended. INSTR misses = 117, DATA misses = 100. Winner = DATA
[DUEL] Epoch ended. INSTR misses = 12, DATA misses = 17. Winner = INSTR
[DUEL] Epoch ended. INSTR misses = 19, DATA misses = 21. Winner = INSTR
[DUEL] Epoch ended. INSTR misses = 0, DATA misses = 0. Winner = INSTR
[DUEL] Epoch ended. INSTR misses = 15, DATA misses = 10. Winner = DATA
[DUEL] Epoch ended. INSTR misses = 15, DATA misses = 12. Winner = DATA
[DUEL] Epoch ended. INSTR misses = 19, DATA misses = 24. Winner = INSTR
[DUEL] Epoch ended. INSTR misses = 205, DATA misses = 165. Winner = DATA
Heartbeat CPU 0 instructions: 100000000 cycles: 43679386 heartbeat IPC: 1.576 cumulative IPC: 1.864 (Simulation time: 00 hr 08 min 19 sec)
[DUEL] Epoch ended. INSTR misses = 262, DATA misses = 232. Winner = DATA
[DUEL] Epoch ended. INSTR misses = 271, DATA misses = 243. Winner = DATA
[DUEL] Epoch ended. INSTR misses = 22, DATA misses = 22. Winner = INSTR
[DUEL] Epoch ended. INSTR misses = 10, DATA misses = 16. Winner = INSTR
[DUEL] Epoch ended. INSTR misses = 7, DATA misses = 6. Winner = DATA
[DUEL] Epoch ended. INSTR misses = 13, DATA misses = 17. Winner = INSTR
[DUEL] Epoch ended. INSTR misses = 26, DATA misses = 33. Winner = INSTR
[DUEL] Epoch ended. INSTR misses = 3, DATA misses = 11. Winner = INSTR
[DUEL] Epoch ended. INSTR misses = 43, DATA misses = 46. Winner = INSTR
[DUEL] Epoch ended. INSTR misses = 133, DATA misses = 120. Winner = DATA
[DUEL] Epoch ended. INSTR misses = 38, DATA misses = 38. Winner = INSTR
[DUEL] Epoch ended. INSTR misses = 19, DATA misses = 23. Winner = INSTR
[DUEL] Epoch ended. INSTR misses = 16, DATA misses = 17. Winner = INSTR
[DUEL] Epoch ended. INSTR misses = 21, DATA misses = 22. Winner = INSTR
[DUEL] Epoch ended. INSTR misses = 28, DATA misses = 24. Winner = DATA
[DUEL] Epoch ended. INSTR misses = 4, DATA misses = 6. Winner = INSTR
[DUEL] Epoch ended. INSTR misses = 51, DATA misses = 54. Winner = INSTR
[DUEL] Epoch ended. INSTR misses = 253, DATA misses = 225. Winner = DATA
[DUEL] Epoch ended. INSTR misses = 146, DATA misses = 130. Winner = DATA
Heartbeat CPU 0 instructions: 110000002 cycles: 49075738 heartbeat IPC: 1.853 cumulative IPC: 1.862 (Simulation time: 00 hr 09 min 18 sec)
[DUEL] Epoch ended. INSTR misses = 13, DATA misses = 15. Winner = INSTR
[DUEL] Epoch ended. INSTR misses = 7, DATA misses = 6. Winner = DATA
[DUEL] Epoch ended. INSTR misses = 9, DATA misses = 7. Winner = DATA
[DUEL] Epoch ended. INSTR misses = 36, DATA misses = 33. Winner = DATA
[DUEL] Epoch ended. INSTR misses = 27, DATA misses = 27. Winner = INSTR
[DUEL] Epoch ended. INSTR misses = 137, DATA misses = 124. Winner = DATA
[DUEL] Epoch ended. INSTR misses = 25, DATA misses = 21. Winner = DATA
[DUEL] Epoch ended. INSTR misses = 17, DATA misses = 14. Winner = DATA
[DUEL] Epoch ended. INSTR misses = 19, DATA misses = 21. Winner = INSTR
[DUEL] Epoch ended. INSTR misses = 21, DATA misses = 20. Winner = DATA
[DUEL] Epoch ended. INSTR misses = 6, DATA misses = 4. Winner = DATA
[DUEL] Epoch ended. INSTR misses = 47, DATA misses = 46. Winner = DATA
[DUEL] Epoch ended. INSTR misses = 147, DATA misses = 133. Winner = DATA
[DUEL] Epoch ended. INSTR misses = 282, DATA misses = 249. Winner = DATA
[DUEL] Epoch ended. INSTR misses = 217, DATA misses = 199. Winner = DATA
[DUEL] Epoch ended. INSTR misses = 80, DATA misses = 66. Winner = DATA
[DUEL] Epoch ended. INSTR misses = 9, DATA misses = 11. Winner = INSTR
[DUEL] Epoch ended. INSTR misses = 14, DATA misses = 16. Winner = INSTR
[DUEL] Epoch ended. INSTR misses = 15, DATA misses = 9. Winner = DATA
[DUEL] Epoch ended. INSTR misses = 9, DATA misses = 11. Winner = INSTR
Heartbeat CPU 0 instructions: 120000005 cycles: 53659662 heartbeat IPC: 2.182 cumulative IPC: 1.893 (Simulation time: 00 hr 10 min 09 sec)
[DUEL] Epoch ended. INSTR misses = 20, DATA misses = 16. Winner = DATA
[DUEL] Epoch ended. INSTR misses = 15, DATA misses = 15. Winner = INSTR
[DUEL] Epoch ended. INSTR misses = 196, DATA misses = 176. Winner = DATA
[DUEL] Epoch ended. INSTR misses = 249, DATA misses = 220. Winner = DATA
[DUEL] Epoch ended. INSTR misses = 138, DATA misses = 121. Winner = DATA
[DUEL] Epoch ended. INSTR misses = 23, DATA misses = 21. Winner = DATA
*** Reached end of trace: (0, "../traces/public_traces/compute_int/compute_int_7.champsimtrace.xz")
[DUEL] Epoch ended. INSTR misses = 5, DATA misses = 6. Winner = INSTR
[DUEL] Epoch ended. INSTR misses = 5, DATA misses = 5. Winner = INSTR
[DUEL] Epoch ended. INSTR misses = 15, DATA misses = 15. Winner = INSTR
[DUEL] Epoch ended. INSTR misses = 38, DATA misses = 33. Winner = DATA
[DUEL] Epoch ended. INSTR misses = 135, DATA misses = 112. Winner = DATA
[DUEL] Epoch ended. INSTR misses = 220, DATA misses = 203. Winner = DATA
[DUEL] Epoch ended. INSTR misses = 257, DATA misses = 226. Winner = DATA
[DUEL] Epoch ended. INSTR misses = 123, DATA misses = 104. Winner = DATA
[DUEL] Epoch ended. INSTR misses = 13, DATA misses = 15. Winner = INSTR
[DUEL] Epoch ended. INSTR misses = 19, DATA misses = 21. Winner = INSTR
[DUEL] Epoch ended. INSTR misses = 0, DATA misses = 0. Winner = INSTR
[DUEL] Epoch ended. INSTR misses = 17, DATA misses = 10. Winner = DATA
[DUEL] Epoch ended. INSTR misses = 13, DATA misses = 12. Winner = DATA
Heartbeat CPU 0 instructions: 130000000 cycles: 59308424 heartbeat IPC: 1.77 cumulative IPC: 1.88 (Simulation time: 00 hr 11 min 11 sec)
Simulation finished CPU 0 instructions: 100000007 cycles: 53187558 cumulative IPC: 1.88 (Simulation time: 00 hr 11 min 11 sec)
Simulation complete CPU 0 instructions: 100000007 cycles: 53187558 cumulative IPC: 1.88 (Simulation time: 00 hr 11 min 11 sec)

ChampSim completed all CPUs

=== Simulation ===
CPU 0 runs ../traces/public_traces/compute_int/compute_int_7.champsimtrace.xz
Region of Interest Statistics

CPU 0 cumulative IPC: 1.88 instructions: 100000007 cycles: 53187558
CPU 0 Branch Prediction Accuracy: 98.71% MPKI: 1.656 Average ROB Occupancy at Mispredict: 69.92
Branch type MPKI
BRANCH_DIRECT_JUMP: 0
BRANCH_INDIRECT: 0.839
BRANCH_CONDITIONAL: 0.817
BRANCH_DIRECT_CALL: 0
BRANCH_INDIRECT_CALL: 0
BRANCH_RETURN: 0

LLC TOTAL        ACCESS:    6572322 HIT:    2867219 MISS:    3705103
LLC LOAD         ACCESS:    2961038 HIT:    1554491 MISS:    1406547
LLC RFO          ACCESS:        219 HIT:         42 MISS:        177
LLC PREFETCH     ACCESS:    3456126 HIT:    1266903 MISS:    2189223
LLC WRITE        ACCESS:     151200 HIT:      45436 MISS:     105764
LLC TRANSLATION  ACCESS:       3739 HIT:        347 MISS:       3392
LLC PREFETCH REQUESTED:          0 ISSUED:          0 USEFUL:          0 USELESS:          0
LLC AVERAGE MISS LATENCY: 205.4 cycles
cpu0_DTLB TOTAL        ACCESS:   22117574 HIT:   21832703 MISS:     284871
cpu0_DTLB LOAD         ACCESS:   22117574 HIT:   21832703 MISS:     284871
cpu0_DTLB RFO          ACCESS:          0 HIT:          0 MISS:          0
cpu0_DTLB PREFETCH     ACCESS:          0 HIT:          0 MISS:          0
cpu0_DTLB WRITE        ACCESS:          0 HIT:          0 MISS:          0
cpu0_DTLB TRANSLATION  ACCESS:          0 HIT:          0 MISS:          0
cpu0_DTLB PREFETCH REQUESTED:          0 ISSUED:          0 USEFUL:          0 USELESS:          0
cpu0_DTLB AVERAGE MISS LATENCY: 7.023 cycles
cpu0_ITLB TOTAL        ACCESS:      10003 HIT:      10003 MISS:          0
cpu0_ITLB LOAD         ACCESS:      10003 HIT:      10003 MISS:          0
cpu0_ITLB RFO          ACCESS:          0 HIT:          0 MISS:          0
cpu0_ITLB PREFETCH     ACCESS:          0 HIT:          0 MISS:          0
cpu0_ITLB WRITE        ACCESS:          0 HIT:          0 MISS:          0
cpu0_ITLB TRANSLATION  ACCESS:          0 HIT:          0 MISS:          0
cpu0_ITLB PREFETCH REQUESTED:          0 ISSUED:          0 USEFUL:          0 USELESS:          0
cpu0_ITLB AVERAGE MISS LATENCY: -nan cycles
cpu0_L1D TOTAL        ACCESS:   44608559 HIT:   35995305 MISS:    8613254
cpu0_L1D LOAD         ACCESS:   14863610 HIT:   11017886 MISS:    3845724
cpu0_L1D RFO          ACCESS:          0 HIT:          0 MISS:          0
cpu0_L1D PREFETCH     ACCESS:   13111893 HIT:    8355368 MISS:    4756525
cpu0_L1D WRITE        ACCESS:   16612597 HIT:   16611524 MISS:       1073
cpu0_L1D TRANSLATION  ACCESS:      20459 HIT:      10527 MISS:       9932
cpu0_L1D PREFETCH REQUESTED:  277040433 ISSUED:   13111889 USEFUL:     991358 USELESS:      60031
cpu0_L1D AVERAGE MISS LATENCY: 52.93 cycles
cpu0_L1I TOTAL        ACCESS:      14094 HIT:      14094 MISS:          0
cpu0_L1I LOAD         ACCESS:       7176 HIT:       7176 MISS:          0
cpu0_L1I RFO          ACCESS:          0 HIT:          0 MISS:          0
cpu0_L1I PREFETCH     ACCESS:       6918 HIT:       6918 MISS:          0
cpu0_L1I WRITE        ACCESS:          0 HIT:          0 MISS:          0
cpu0_L1I TRANSLATION  ACCESS:          0 HIT:          0 MISS:          0
cpu0_L1I PREFETCH REQUESTED:       8191 ISSUED:       6918 USEFUL:          0 USELESS:          0
cpu0_L1I AVERAGE MISS LATENCY: -nan cycles
cpu0_L2C TOTAL        ACCESS:   16208156 HIT:    8163323 MISS:    8044833
cpu0_L2C LOAD         ACCESS:    3469473 HIT:     385925 MISS:    3083548
cpu0_L2C RFO          ACCESS:        308 HIT:         79 MISS:        229
cpu0_L2C PREFETCH     ACCESS:   12561647 HIT:    7604733 MISS:    4956914
cpu0_L2C WRITE        ACCESS:     166796 HIT:     166393 MISS:        403
cpu0_L2C TRANSLATION  ACCESS:       9932 HIT:       6193 MISS:       3739
cpu0_L2C PREFETCH REQUESTED:    8174515 ISSUED:    7888228 USEFUL:     542597 USELESS:    1878537
cpu0_L2C AVERAGE MISS LATENCY: 110.3 cycles
cpu0_STLB TOTAL        ACCESS:     142617 HIT:     122258 MISS:      20359
cpu0_STLB LOAD         ACCESS:     142617 HIT:     122258 MISS:      20359
cpu0_STLB RFO          ACCESS:          0 HIT:          0 MISS:          0
cpu0_STLB PREFETCH     ACCESS:          0 HIT:          0 MISS:          0
cpu0_STLB WRITE        ACCESS:          0 HIT:          0 MISS:          0
cpu0_STLB TRANSLATION  ACCESS:          0 HIT:          0 MISS:          0
cpu0_STLB PREFETCH REQUESTED:          0 ISSUED:          0 USEFUL:          0 USELESS:          0
cpu0_STLB AVERAGE MISS LATENCY: 98.4 cycles

DRAM Statistics

Channel 0 RQ ROW_BUFFER_HIT:    1507046
  ROW_BUFFER_MISS:     296168
 AVG DBUS CONGESTED CYCLE: 3.961
WQ ROW_BUFFER_HIT: Channel 0 
  ROW_BUFFER_MISS:       8771
  FULL:      48449

Channel 1 RQ ROW_BUFFER_HIT:    1507595
  ROW_BUFFER_MISS:     288074
 AVG DBUS CONGESTED CYCLE: 3.962
WQ ROW_BUFFER_HIT: Channel 1 
  ROW_BUFFER_MISS:      10459
  FULL:      63843
BERTI TO_L1: 15111360 TO_L2: 277690675 TO_L2_BC_MSHR: 172959694
BERTI AVG_LAT: 103.782 NUM_TRACK_LATENCY: 5892814 NUM_CANT_TRACK_LATENCY: 169
BERTI CROSS_PAGE 95329182 NO_CROSS_PAGE: 197472853
BERTI FOUND_BERTI: 41131091 NO_FOUND_BERTI: 1765706
BERTI AVERAGE_ISSUED: 3.00915
CPU 0 L1I Entangling prefetcher final stats
IP accesses: 92 2480 273 / 7176
IP misses: 0 0 0 / 0
IP hits: 0 0 0 / 0
IP late: 0 0 0 / 0
IP wrong: 0 0 0 / 0
miss rate: 0
coverage: -nan
coverage_late: -nan
accuracy: -nan
accuracy_late: -nan
discarded: 0
evicts entangled j table: 0
evicts entangled k table: 0
max bb size: 11
formats: 0 0 0 0 0 0 0 
hist_lookups: 0 0 0 0 0 0 0 0 0 0 0 0 0 0 0 0 0 95 
hist_lookups_evict: 0 %
hist_lookups_shortlat: 100 %
bb_found_hist: 0 1299 450 355 40 20 50 0 0 0 0 10 0 0 0 0 0 0 0 0 0 0 0 0 0 0 0 0 0 0 0 0 0 0 0 0 0 0 0 0 0 0 0 0 0 0 0 0 0 0 0 0 0 0 0 0 0 0 0 0 0 0 0 0 
bb_found_summary: 3934 2224 1.76889
entangled_found_hist: 0 524 324 200 50 10 0 0 
entangled_found_summary: 2022 1108 1.82491
bb_ent_found_hist: 0 725 270 180 20 0 40 0 0 0 0 10 0 0 0 0 0 0 0 0 0 0 0 0 0 0 0 0 0 0 0 0 0 0 0 0 0 0 0 0 0 0 0 0 0 0 0 0 0 0 0 0 0 0 0 0 0 0 0 0 0 0 0 0 
bb_ent_found_summary: 2235 1245 1.79519
