WARNING: physical memory size is smaller than virtual memory size.

*** ChampSim Multicore Out-of-Order Simulator ***
Warmup Instructions: 30000000
Simulation Instructions: 100000000
Number of CPUs: 1
Page size: 4096

BTB:
Basic BTB sets: 1024 ways: 8
Indirect:
history lengths: 0 0 10 16 27 44 60 96 109 219 449 487 714 1313 2146 3881 
ITTAGE tables: 64768 bytes;Region table: 240 bytes;IUM: 384 bytes;Total Storage= 65392 bytes;
RAS:
RAS size: 64
[LLC] INSTR Demand IPV: 1 2 2 1 4 Prefetch IPV: 1 2 1 1 4
[LLC] DATA  Demand IPV: 1 1 1 2 4 Prefetch IPV: 1 1 2 2 4
Berti Prefetcher
CPU 0 Entangling prefetcher
Off-chip DRAM Size: 8 GiB Channels: 2 Width: 64-bit Data Race: 6400 MT/s
[DUEL] Epoch ended. INSTR misses = 38, DATA misses = 44. Winner = INSTR
[DUEL] Epoch ended. INSTR misses = 18, DATA misses = 16. Winner = DATA
[DUEL] Epoch ended. INSTR misses = 16, DATA misses = 16. Winner = INSTR
[DUEL] Epoch ended. INSTR misses = 16, DATA misses = 29. Winner = INSTR
[DUEL] Epoch ended. INSTR misses = 32, DATA misses = 16. Winner = DATA
[DUEL] Epoch ended. INSTR misses = 16, DATA misses = 15. Winner = DATA
[DUEL] Epoch ended. INSTR misses = 29, DATA misses = 16. Winner = DATA
[DUEL] Epoch ended. INSTR misses = 18, DATA misses = 16. Winner = DATA
[DUEL] Epoch ended. INSTR misses = 16, DATA misses = 16. Winner = INSTR
[DUEL] Epoch ended. INSTR misses = 39, DATA misses = 38. Winner = DATA
[DUEL] Epoch ended. INSTR misses = 49, DATA misses = 52. Winner = INSTR
[DUEL] Epoch ended. INSTR misses = 24, DATA misses = 30. Winner = INSTR
[DUEL] Epoch ended. INSTR misses = 42, DATA misses = 36. Winner = DATA
[DUEL] Epoch ended. INSTR misses = 33, DATA misses = 34. Winner = INSTR
[DUEL] Epoch ended. INSTR misses = 35, DATA misses = 36. Winner = INSTR
[DUEL] Epoch ended. INSTR misses = 37, DATA misses = 31. Winner = DATA
[DUEL] Epoch ended. INSTR misses = 34, DATA misses = 37. Winner = INSTR
[DUEL] Epoch ended. INSTR misses = 44, DATA misses = 36. Winner = DATA
[DUEL] Epoch ended. INSTR misses = 18, DATA misses = 24. Winner = INSTR
Heartbeat CPU 0 instructions: 10000003 cycles: 1945225 heartbeat IPC: 5.141 cumulative IPC: 5.141 (Simulation time: 00 hr 00 min 25 sec)
[DUEL] Epoch ended. INSTR misses = 42, DATA misses = 41. Winner = DATA
[DUEL] Epoch ended. INSTR misses = 31, DATA misses = 28. Winner = DATA
[DUEL] Epoch ended. INSTR misses = 31, DATA misses = 34. Winner = INSTR
[DUEL] Epoch ended. INSTR misses = 52, DATA misses = 42. Winner = DATA
[DUEL] Epoch ended. INSTR misses = 20, DATA misses = 5. Winner = DATA
[DUEL] Epoch ended. INSTR misses = 30, DATA misses = 52. Winner = INSTR
[DUEL] Epoch ended. INSTR misses = 38, DATA misses = 33. Winner = DATA
[DUEL] Epoch ended. INSTR misses = 34, DATA misses = 25. Winner = DATA
[DUEL] Epoch ended. INSTR misses = 9, DATA misses = 6. Winner = DATA
[DUEL] Epoch ended. INSTR misses = 34, DATA misses = 34. Winner = INSTR
[DUEL] Epoch ended. INSTR misses = 48, DATA misses = 47. Winner = DATA
[DUEL] Epoch ended. INSTR misses = 9, DATA misses = 20. Winner = INSTR
[DUEL] Epoch ended. INSTR misses = 24, DATA misses = 14. Winner = DATA
[DUEL] Epoch ended. INSTR misses = 40, DATA misses = 35. Winner = DATA
[DUEL] Epoch ended. INSTR misses = 37, DATA misses = 58. Winner = INSTR
[DUEL] Epoch ended. INSTR misses = 54, DATA misses = 40. Winner = DATA
[DUEL] Epoch ended. INSTR misses = 13, DATA misses = 14. Winner = INSTR
[DUEL] Epoch ended. INSTR misses = 41, DATA misses = 27. Winner = DATA
[DUEL] Epoch ended. INSTR misses = 20, DATA misses = 18. Winner = DATA
Heartbeat CPU 0 instructions: 20000000 cycles: 3890316 heartbeat IPC: 5.141 cumulative IPC: 5.141 (Simulation time: 00 hr 00 min 51 sec)
[DUEL] Epoch ended. INSTR misses = 35, DATA misses = 30. Winner = DATA
[DUEL] Epoch ended. INSTR misses = 24, DATA misses = 33. Winner = INSTR
[DUEL] Epoch ended. INSTR misses = 41, DATA misses = 67. Winner = INSTR
[DUEL] Epoch ended. INSTR misses = 32, DATA misses = 21. Winner = DATA
[DUEL] Epoch ended. INSTR misses = 56, DATA misses = 56. Winner = INSTR
[DUEL] Epoch ended. INSTR misses = 42, DATA misses = 61. Winner = INSTR
[DUEL] Epoch ended. INSTR misses = 53, DATA misses = 23. Winner = DATA
[DUEL] Epoch ended. INSTR misses = 20, DATA misses = 25. Winner = INSTR
[DUEL] Epoch ended. INSTR misses = 48, DATA misses = 42. Winner = DATA
[DUEL] Epoch ended. INSTR misses = 22, DATA misses = 28. Winner = INSTR
[DUEL] Epoch ended. INSTR misses = 29, DATA misses = 31. Winner = INSTR
[DUEL] Epoch ended. INSTR misses = 6, DATA misses = 5. Winner = DATA
[DUEL] Epoch ended. INSTR misses = 40, DATA misses = 57. Winner = INSTR
[DUEL] Epoch ended. INSTR misses = 29, DATA misses = 34. Winner = INSTR
[DUEL] Epoch ended. INSTR misses = 44, DATA misses = 31. Winner = DATA
[DUEL] Epoch ended. INSTR misses = 24, DATA misses = 24. Winner = INSTR
[DUEL] Epoch ended. INSTR misses = 44, DATA misses = 41. Winner = DATA
[DUEL] Epoch ended. INSTR misses = 14, DATA misses = 12. Winner = DATA
[DUEL] Epoch ended. INSTR misses = 57, DATA misses = 39. Winner = DATA
[DUEL] Epoch ended. INSTR misses = 59, DATA misses = 58. Winner = DATA
Heartbeat CPU 0 instructions: 30000001 cycles: 5832866 heartbeat IPC: 5.148 cumulative IPC: 5.143 (Simulation time: 00 hr 01 min 17 sec)
Warmup finished CPU 0 instructions: 30000001 cycles: 5832867 cumulative IPC: 5.143 (Simulation time: 00 hr 01 min 17 sec)
Warmup complete CPU 0 instructions: 30000001 cycles: 5832867 cumulative IPC: 5.143 (Simulation time: 00 hr 01 min 17 sec)
[DUEL] Epoch ended. INSTR misses = 31, DATA misses = 49. Winner = INSTR
[DUEL] Epoch ended. INSTR misses = 19, DATA misses = 24. Winner = INSTR
*** Reached end of trace: (0, "../traces/public_traces/compute_int/compute_int_21.champsimtrace.xz")
[DUEL] Epoch ended. INSTR misses = 117, DATA misses = 117. Winner = INSTR
[DUEL] Epoch ended. INSTR misses = 8, DATA misses = 6. Winner = DATA
[DUEL] Epoch ended. INSTR misses = 2, DATA misses = 0. Winner = DATA
[DUEL] Epoch ended. INSTR misses = 1, DATA misses = 0. Winner = DATA
[DUEL] Epoch ended. INSTR misses = 1, DATA misses = 4. Winner = INSTR
[DUEL] Epoch ended. INSTR misses = 12, DATA misses = 9. Winner = DATA
[DUEL] Epoch ended. INSTR misses = 12, DATA misses = 10. Winner = DATA
[DUEL] Epoch ended. INSTR misses = 15, DATA misses = 10. Winner = DATA
[DUEL] Epoch ended. INSTR misses = 18, DATA misses = 13. Winner = DATA
[DUEL] Epoch ended. INSTR misses = 31, DATA misses = 40. Winner = INSTR
[DUEL] Epoch ended. INSTR misses = 43, DATA misses = 53. Winner = INSTR
[DUEL] Epoch ended. INSTR misses = 23, DATA misses = 21. Winner = DATA
[DUEL] Epoch ended. INSTR misses = 46, DATA misses = 48. Winner = INSTR
[DUEL] Epoch ended. INSTR misses = 23, DATA misses = 31. Winner = INSTR
[DUEL] Epoch ended. INSTR misses = 37, DATA misses = 42. Winner = INSTR
[DUEL] Epoch ended. INSTR misses = 27, DATA misses = 22. Winner = DATA
[DUEL] Epoch ended. INSTR misses = 32, DATA misses = 28. Winner = DATA
Heartbeat CPU 0 instructions: 40000011 cycles: 11697096 heartbeat IPC: 1.705 cumulative IPC: 1.705 (Simulation time: 00 hr 02 min 17 sec)
[DUEL] Epoch ended. INSTR misses = 42, DATA misses = 33. Winner = DATA
[DUEL] Epoch ended. INSTR misses = 19, DATA misses = 19. Winner = INSTR
[DUEL] Epoch ended. INSTR misses = 38, DATA misses = 36. Winner = DATA
[DUEL] Epoch ended. INSTR misses = 31, DATA misses = 28. Winner = DATA
[DUEL] Epoch ended. INSTR misses = 35, DATA misses = 24. Winner = DATA
[DUEL] Epoch ended. INSTR misses = 44, DATA misses = 46. Winner = INSTR
[DUEL] Epoch ended. INSTR misses = 16, DATA misses = 8. Winner = DATA
[DUEL] Epoch ended. INSTR misses = 11, DATA misses = 34. Winner = INSTR
[DUEL] Epoch ended. INSTR misses = 52, DATA misses = 43. Winner = DATA
[DUEL] Epoch ended. INSTR misses = 37, DATA misses = 29. Winner = DATA
[DUEL] Epoch ended. INSTR misses = 10, DATA misses = 3. Winner = DATA
[DUEL] Epoch ended. INSTR misses = 33, DATA misses = 38. Winner = INSTR
[DUEL] Epoch ended. INSTR misses = 47, DATA misses = 43. Winner = DATA
[DUEL] Epoch ended. INSTR misses = 14, DATA misses = 22. Winner = INSTR
[DUEL] Epoch ended. INSTR misses = 28, DATA misses = 19. Winner = DATA
[DUEL] Epoch ended. INSTR misses = 41, DATA misses = 39. Winner = DATA
[DUEL] Epoch ended. INSTR misses = 31, DATA misses = 54. Winner = INSTR
[DUEL] Epoch ended. INSTR misses = 49, DATA misses = 38. Winner = DATA
[DUEL] Epoch ended. INSTR misses = 12, DATA misses = 15. Winner = INSTR
[DUEL] Epoch ended. INSTR misses = 31, DATA misses = 23. Winner = DATA
Heartbeat CPU 0 instructions: 50000001 cycles: 16892733 heartbeat IPC: 1.925 cumulative IPC: 1.808 (Simulation time: 00 hr 03 min 13 sec)
[DUEL] Epoch ended. INSTR misses = 23, DATA misses = 22. Winner = DATA
[DUEL] Epoch ended. INSTR misses = 35, DATA misses = 30. Winner = DATA
[DUEL] Epoch ended. INSTR misses = 25, DATA misses = 28. Winner = INSTR
[DUEL] Epoch ended. INSTR misses = 49, DATA misses = 66. Winner = INSTR
[DUEL] Epoch ended. INSTR misses = 32, DATA misses = 24. Winner = DATA
[DUEL] Epoch ended. INSTR misses = 55, DATA misses = 52. Winner = DATA
[DUEL] Epoch ended. INSTR misses = 34, DATA misses = 38. Winner = INSTR
[DUEL] Epoch ended. INSTR misses = 54, DATA misses = 48. Winner = DATA
[DUEL] Epoch ended. INSTR misses = 26, DATA misses = 26. Winner = INSTR
[DUEL] Epoch ended. INSTR misses = 46, DATA misses = 53. Winner = INSTR
[DUEL] Epoch ended. INSTR misses = 18, DATA misses = 24. Winner = INSTR
[DUEL] Epoch ended. INSTR misses = 34, DATA misses = 27. Winner = DATA
[DUEL] Epoch ended. INSTR misses = 8, DATA misses = 8. Winner = INSTR
[DUEL] Epoch ended. INSTR misses = 44, DATA misses = 49. Winner = INSTR
[DUEL] Epoch ended. INSTR misses = 24, DATA misses = 38. Winner = INSTR
[DUEL] Epoch ended. INSTR misses = 41, DATA misses = 31. Winner = DATA
[DUEL] Epoch ended. INSTR misses = 20, DATA misses = 6. Winner = DATA
[DUEL] Epoch ended. INSTR misses = 44, DATA misses = 42. Winner = DATA
[DUEL] Epoch ended. INSTR misses = 19, DATA misses = 33. Winner = INSTR
Heartbeat CPU 0 instructions: 60000009 cycles: 22274242 heartbeat IPC: 1.858 cumulative IPC: 1.825 (Simulation time: 00 hr 04 min 09 sec)
[DUEL] Epoch ended. INSTR misses = 66, DATA misses = 42. Winner = DATA
[DUEL] Epoch ended. INSTR misses = 48, DATA misses = 54. Winner = INSTR
[DUEL] Epoch ended. INSTR misses = 22, DATA misses = 34. Winner = INSTR
[DUEL] Epoch ended. INSTR misses = 25, DATA misses = 33. Winner = INSTR
*** Reached end of trace: (0, "../traces/public_traces/compute_int/compute_int_21.champsimtrace.xz")
[DUEL] Epoch ended. INSTR misses = 62, DATA misses = 64. Winner = INSTR
[DUEL] Epoch ended. INSTR misses = 64, DATA misses = 61. Winner = DATA
[DUEL] Epoch ended. INSTR misses = 2, DATA misses = 0. Winner = DATA
[DUEL] Epoch ended. INSTR misses = 2, DATA misses = 0. Winner = DATA
[DUEL] Epoch ended. INSTR misses = 1, DATA misses = 3. Winner = INSTR
[DUEL] Epoch ended. INSTR misses = 1, DATA misses = 1. Winner = INSTR
[DUEL] Epoch ended. INSTR misses = 21, DATA misses = 19. Winner = DATA
[DUEL] Epoch ended. INSTR misses = 14, DATA misses = 10. Winner = DATA
[DUEL] Epoch ended. INSTR misses = 15, DATA misses = 13. Winner = DATA
[DUEL] Epoch ended. INSTR misses = 32, DATA misses = 39. Winner = INSTR
[DUEL] Epoch ended. INSTR misses = 30, DATA misses = 33. Winner = INSTR
[DUEL] Epoch ended. INSTR misses = 32, DATA misses = 41. Winner = INSTR
[DUEL] Epoch ended. INSTR misses = 46, DATA misses = 49. Winner = INSTR
[DUEL] Epoch ended. INSTR misses = 5, DATA misses = 23. Winner = INSTR
[DUEL] Epoch ended. INSTR misses = 52, DATA misses = 47. Winner = DATA
[DUEL] Epoch ended. INSTR misses = 29, DATA misses = 23. Winner = DATA
Heartbeat CPU 0 instructions: 70000004 cycles: 27973505 heartbeat IPC: 1.755 cumulative IPC: 1.807 (Simulation time: 00 hr 05 min 08 sec)
[DUEL] Epoch ended. INSTR misses = 32, DATA misses = 33. Winner = INSTR
[DUEL] Epoch ended. INSTR misses = 19, DATA misses = 15. Winner = DATA
[DUEL] Epoch ended. INSTR misses = 24, DATA misses = 25. Winner = INSTR
[DUEL] Epoch ended. INSTR misses = 54, DATA misses = 42. Winner = DATA
[DUEL] Epoch ended. INSTR misses = 12, DATA misses = 18. Winner = INSTR
[DUEL] Epoch ended. INSTR misses = 52, DATA misses = 37. Winner = DATA
[DUEL] Epoch ended. INSTR misses = 45, DATA misses = 47. Winner = INSTR
[DUEL] Epoch ended. INSTR misses = 16, DATA misses = 5. Winner = DATA
[DUEL] Epoch ended. INSTR misses = 7, DATA misses = 27. Winner = INSTR
[DUEL] Epoch ended. INSTR misses = 55, DATA misses = 50. Winner = DATA
[DUEL] Epoch ended. INSTR misses = 23, DATA misses = 29. Winner = INSTR
[DUEL] Epoch ended. INSTR misses = 24, DATA misses = 4. Winner = DATA
[DUEL] Epoch ended. INSTR misses = 26, DATA misses = 29. Winner = INSTR
[DUEL] Epoch ended. INSTR misses = 36, DATA misses = 31. Winner = DATA
[DUEL] Epoch ended. INSTR misses = 23, DATA misses = 27. Winner = INSTR
[DUEL] Epoch ended. INSTR misses = 23, DATA misses = 21. Winner = DATA
[DUEL] Epoch ended. INSTR misses = 37, DATA misses = 37. Winner = INSTR
[DUEL] Epoch ended. INSTR misses = 21, DATA misses = 38. Winner = INSTR
[DUEL] Epoch ended. INSTR misses = 56, DATA misses = 45. Winner = DATA
Heartbeat CPU 0 instructions: 80000000 cycles: 33062253 heartbeat IPC: 1.965 cumulative IPC: 1.836 (Simulation time: 00 hr 06 min 03 sec)
[DUEL] Epoch ended. INSTR misses = 32, DATA misses = 33. Winner = INSTR
[DUEL] Epoch ended. INSTR misses = 20, DATA misses = 3. Winner = DATA
[DUEL] Epoch ended. INSTR misses = 42, DATA misses = 39. Winner = DATA
[DUEL] Epoch ended. INSTR misses = 30, DATA misses = 29. Winner = DATA
[DUEL] Epoch ended. INSTR misses = 26, DATA misses = 31. Winner = INSTR
[DUEL] Epoch ended. INSTR misses = 39, DATA misses = 53. Winner = INSTR
[DUEL] Epoch ended. INSTR misses = 37, DATA misses = 21. Winner = DATA
[DUEL] Epoch ended. INSTR misses = 42, DATA misses = 55. Winner = INSTR
[DUEL] Epoch ended. INSTR misses = 55, DATA misses = 45. Winner = DATA
[DUEL] Epoch ended. INSTR misses = 28, DATA misses = 33. Winner = INSTR
[DUEL] Epoch ended. INSTR misses = 48, DATA misses = 43. Winner = DATA
[DUEL] Epoch ended. INSTR misses = 55, DATA misses = 56. Winner = INSTR
[DUEL] Epoch ended. INSTR misses = 5, DATA misses = 4. Winner = DATA
[DUEL] Epoch ended. INSTR misses = 21, DATA misses = 34. Winner = INSTR
[DUEL] Epoch ended. INSTR misses = 28, DATA misses = 20. Winner = DATA
[DUEL] Epoch ended. INSTR misses = 26, DATA misses = 25. Winner = DATA
[DUEL] Epoch ended. INSTR misses = 44, DATA misses = 65. Winner = INSTR
[DUEL] Epoch ended. INSTR misses = 25, DATA misses = 19. Winner = DATA
[DUEL] Epoch ended. INSTR misses = 35, DATA misses = 18. Winner = DATA
[DUEL] Epoch ended. INSTR misses = 34, DATA misses = 41. Winner = INSTR
Heartbeat CPU 0 instructions: 90000003 cycles: 38294444 heartbeat IPC: 1.911 cumulative IPC: 1.848 (Simulation time: 00 hr 06 min 59 sec)
[DUEL] Epoch ended. INSTR misses = 27, DATA misses = 30. Winner = INSTR
[DUEL] Epoch ended. INSTR misses = 25, DATA misses = 17. Winner = DATA
[DUEL] Epoch ended. INSTR misses = 61, DATA misses = 76. Winner = INSTR
[DUEL] Epoch ended. INSTR misses = 51, DATA misses = 40. Winner = DATA
[DUEL] Epoch ended. INSTR misses = 9, DATA misses = 14. Winner = INSTR
*** Reached end of trace: (0, "../traces/public_traces/compute_int/compute_int_21.champsimtrace.xz")
[DUEL] Epoch ended. INSTR misses = 53, DATA misses = 60. Winner = INSTR
[DUEL] Epoch ended. INSTR misses = 89, DATA misses = 85. Winner = DATA
[DUEL] Epoch ended. INSTR misses = 1, DATA misses = 0. Winner = DATA
[DUEL] Epoch ended. INSTR misses = 1, DATA misses = 0. Winner = DATA
[DUEL] Epoch ended. INSTR misses = 2, DATA misses = 3. Winner = INSTR
[DUEL] Epoch ended. INSTR misses = 1, DATA misses = 1. Winner = INSTR
[DUEL] Epoch ended. INSTR misses = 18, DATA misses = 17. Winner = DATA
[DUEL] Epoch ended. INSTR misses = 6, DATA misses = 11. Winner = INSTR
[DUEL] Epoch ended. INSTR misses = 28, DATA misses = 14. Winner = DATA
[DUEL] Epoch ended. INSTR misses = 18, DATA misses = 17. Winner = DATA
[DUEL] Epoch ended. INSTR misses = 32, DATA misses = 42. Winner = INSTR
[DUEL] Epoch ended. INSTR misses = 40, DATA misses = 51. Winner = INSTR
[DUEL] Epoch ended. INSTR misses = 41, DATA misses = 44. Winner = INSTR
[DUEL] Epoch ended. INSTR misses = 8, DATA misses = 19. Winner = INSTR
Heartbeat CPU 0 instructions: 100000000 cycles: 44009521 heartbeat IPC: 1.75 cumulative IPC: 1.834 (Simulation time: 00 hr 07 min 58 sec)
[DUEL] Epoch ended. INSTR misses = 64, DATA misses = 63. Winner = DATA
[DUEL] Epoch ended. INSTR misses = 10, DATA misses = 4. Winner = DATA
[DUEL] Epoch ended. INSTR misses = 44, DATA misses = 45. Winner = INSTR
[DUEL] Epoch ended. INSTR misses = 18, DATA misses = 23. Winner = INSTR
[DUEL] Epoch ended. INSTR misses = 27, DATA misses = 24. Winner = DATA
[DUEL] Epoch ended. INSTR misses = 32, DATA misses = 36. Winner = INSTR
[DUEL] Epoch ended. INSTR misses = 30, DATA misses = 15. Winner = DATA
[DUEL] Epoch ended. INSTR misses = 57, DATA misses = 47. Winner = DATA
[DUEL] Epoch ended. INSTR misses = 25, DATA misses = 28. Winner = INSTR
[DUEL] Epoch ended. INSTR misses = 39, DATA misses = 23. Winner = DATA
[DUEL] Epoch ended. INSTR misses = 0, DATA misses = 15. Winner = INSTR
[DUEL] Epoch ended. INSTR misses = 57, DATA misses = 61. Winner = INSTR
[DUEL] Epoch ended. INSTR misses = 20, DATA misses = 11. Winner = DATA
[DUEL] Epoch ended. INSTR misses = 28, DATA misses = 22. Winner = DATA
[DUEL] Epoch ended. INSTR misses = 23, DATA misses = 27. Winner = INSTR
[DUEL] Epoch ended. INSTR misses = 40, DATA misses = 32. Winner = DATA
[DUEL] Epoch ended. INSTR misses = 23, DATA misses = 27. Winner = INSTR
[DUEL] Epoch ended. INSTR misses = 13, DATA misses = 18. Winner = INSTR
[DUEL] Epoch ended. INSTR misses = 44, DATA misses = 31. Winner = DATA
[DUEL] Epoch ended. INSTR misses = 25, DATA misses = 34. Winner = INSTR
Heartbeat CPU 0 instructions: 110000000 cycles: 49076575 heartbeat IPC: 1.974 cumulative IPC: 1.85 (Simulation time: 00 hr 08 min 53 sec)
[DUEL] Epoch ended. INSTR misses = 39, DATA misses = 41. Winner = INSTR
[DUEL] Epoch ended. INSTR misses = 43, DATA misses = 44. Winner = INSTR
[DUEL] Epoch ended. INSTR misses = 14, DATA misses = 10. Winner = DATA
[DUEL] Epoch ended. INSTR misses = 39, DATA misses = 41. Winner = INSTR
[DUEL] Epoch ended. INSTR misses = 30, DATA misses = 20. Winner = DATA
[DUEL] Epoch ended. INSTR misses = 12, DATA misses = 12. Winner = INSTR
[DUEL] Epoch ended. INSTR misses = 41, DATA misses = 58. Winner = INSTR
[DUEL] Epoch ended. INSTR misses = 50, DATA misses = 47. Winner = DATA
[DUEL] Epoch ended. INSTR misses = 35, DATA misses = 37. Winner = INSTR
[DUEL] Epoch ended. INSTR misses = 68, DATA misses = 60. Winner = DATA
[DUEL] Epoch ended. INSTR misses = 25, DATA misses = 34. Winner = INSTR
[DUEL] Epoch ended. INSTR misses = 38, DATA misses = 42. Winner = INSTR
[DUEL] Epoch ended. INSTR misses = 44, DATA misses = 38. Winner = DATA
[DUEL] Epoch ended. INSTR misses = 29, DATA misses = 23. Winner = DATA
[DUEL] Epoch ended. INSTR misses = 28, DATA misses = 34. Winner = INSTR
[DUEL] Epoch ended. INSTR misses = 25, DATA misses = 22. Winner = DATA
[DUEL] Epoch ended. INSTR misses = 23, DATA misses = 20. Winner = DATA
[DUEL] Epoch ended. INSTR misses = 28, DATA misses = 48. Winner = INSTR
[DUEL] Epoch ended. INSTR misses = 39, DATA misses = 24. Winner = DATA
Heartbeat CPU 0 instructions: 120000009 cycles: 54261112 heartbeat IPC: 1.929 cumulative IPC: 1.858 (Simulation time: 00 hr 09 min 48 sec)
[DUEL] Epoch ended. INSTR misses = 29, DATA misses = 29. Winner = INSTR
[DUEL] Epoch ended. INSTR misses = 39, DATA misses = 40. Winner = INSTR
[DUEL] Epoch ended. INSTR misses = 29, DATA misses = 33. Winner = INSTR
[DUEL] Epoch ended. INSTR misses = 28, DATA misses = 15. Winner = DATA
[DUEL] Epoch ended. INSTR misses = 53, DATA misses = 42. Winner = DATA
[DUEL] Epoch ended. INSTR misses = 58, DATA misses = 77. Winner = INSTR
[DUEL] Epoch ended. INSTR misses = 8, DATA misses = 12. Winner = INSTR
*** Reached end of trace: (0, "../traces/public_traces/compute_int/compute_int_21.champsimtrace.xz")
[DUEL] Epoch ended. INSTR misses = 46, DATA misses = 52. Winner = INSTR
[DUEL] Epoch ended. INSTR misses = 89, DATA misses = 88. Winner = DATA
[DUEL] Epoch ended. INSTR misses = 9, DATA misses = 5. Winner = DATA
[DUEL] Epoch ended. INSTR misses = 1, DATA misses = 0. Winner = DATA
[DUEL] Epoch ended. INSTR misses = 2, DATA misses = 3. Winner = INSTR
[DUEL] Epoch ended. INSTR misses = 1, DATA misses = 1. Winner = INSTR
[DUEL] Epoch ended. INSTR misses = 18, DATA misses = 17. Winner = DATA
[DUEL] Epoch ended. INSTR misses = 5, DATA misses = 2. Winner = DATA
[DUEL] Epoch ended. INSTR misses = 28, DATA misses = 23. Winner = DATA
[DUEL] Epoch ended. INSTR misses = 15, DATA misses = 16. Winner = INSTR
[DUEL] Epoch ended. INSTR misses = 35, DATA misses = 45. Winner = INSTR
[DUEL] Epoch ended. INSTR misses = 23, DATA misses = 50. Winner = INSTR
[DUEL] Epoch ended. INSTR misses = 56, DATA misses = 40. Winner = DATA
Heartbeat CPU 0 instructions: 130000010 cycles: 59731015 heartbeat IPC: 1.828 cumulative IPC: 1.855 (Simulation time: 00 hr 10 min 46 sec)
Simulation finished CPU 0 instructions: 100000009 cycles: 53898149 cumulative IPC: 1.855 (Simulation time: 00 hr 10 min 46 sec)
Simulation complete CPU 0 instructions: 100000009 cycles: 53898149 cumulative IPC: 1.855 (Simulation time: 00 hr 10 min 46 sec)

ChampSim completed all CPUs

=== Simulation ===
CPU 0 runs ../traces/public_traces/compute_int/compute_int_21.champsimtrace.xz
Region of Interest Statistics

CPU 0 cumulative IPC: 1.855 instructions: 100000009 cycles: 53898149
CPU 0 Branch Prediction Accuracy: 99.89% MPKI: 0.2134 Average ROB Occupancy at Mispredict: 312.9
Branch type MPKI
BRANCH_DIRECT_JUMP: 0
BRANCH_INDIRECT: 0.148
BRANCH_CONDITIONAL: 0.0112
BRANCH_DIRECT_CALL: 0
BRANCH_INDIRECT_CALL: 0.0534
BRANCH_RETURN: 0.00057

LLC TOTAL        ACCESS:    1930695 HIT:     326779 MISS:    1603916
LLC LOAD         ACCESS:     627772 HIT:      82779 MISS:     544993
LLC RFO          ACCESS:     211770 HIT:      27058 MISS:     184712
LLC PREFETCH     ACCESS:     284224 HIT:      21563 MISS:     262661
LLC WRITE        ACCESS:     793970 HIT:     194019 MISS:     599951
LLC TRANSLATION  ACCESS:      12959 HIT:       1360 MISS:      11599
LLC PREFETCH REQUESTED:          0 ISSUED:          0 USEFUL:          0 USELESS:          0
LLC AVERAGE MISS LATENCY: 197.2 cycles
cpu0_DTLB TOTAL        ACCESS:   18002122 HIT:   17793952 MISS:     208170
cpu0_DTLB LOAD         ACCESS:   18002122 HIT:   17793952 MISS:     208170
cpu0_DTLB RFO          ACCESS:          0 HIT:          0 MISS:          0
cpu0_DTLB PREFETCH     ACCESS:          0 HIT:          0 MISS:          0
cpu0_DTLB WRITE        ACCESS:          0 HIT:          0 MISS:          0
cpu0_DTLB TRANSLATION  ACCESS:          0 HIT:          0 MISS:          0
cpu0_DTLB PREFETCH REQUESTED:          0 ISSUED:          0 USEFUL:          0 USELESS:          0
cpu0_DTLB AVERAGE MISS LATENCY: 44.5 cycles
cpu0_ITLB TOTAL        ACCESS:     856210 HIT:     856210 MISS:          0
cpu0_ITLB LOAD         ACCESS:     856210 HIT:     856210 MISS:          0
cpu0_ITLB RFO          ACCESS:          0 HIT:          0 MISS:          0
cpu0_ITLB PREFETCH     ACCESS:          0 HIT:          0 MISS:          0
cpu0_ITLB WRITE        ACCESS:          0 HIT:          0 MISS:          0
cpu0_ITLB TRANSLATION  ACCESS:          0 HIT:          0 MISS:          0
cpu0_ITLB PREFETCH REQUESTED:          0 ISSUED:          0 USEFUL:          0 USELESS:          0
cpu0_ITLB AVERAGE MISS LATENCY: -nan cycles
cpu0_L1D TOTAL        ACCESS:   26408431 HIT:   23015496 MISS:    3392935
cpu0_L1D LOAD         ACCESS:   13336803 HIT:   10873676 MISS:    2463127
cpu0_L1D RFO          ACCESS:          0 HIT:          0 MISS:          0
cpu0_L1D PREFETCH     ACCESS:     441961 HIT:     125014 MISS:     316947
cpu0_L1D WRITE        ACCESS:   12596998 HIT:   12009408 MISS:     587590
cpu0_L1D TRANSLATION  ACCESS:      32669 HIT:       7398 MISS:      25271
cpu0_L1D PREFETCH REQUESTED:    8948505 ISSUED:     441961 USEFUL:      22054 USELESS:      12717
cpu0_L1D AVERAGE MISS LATENCY: 64.25 cycles
cpu0_L1I TOTAL        ACCESS:    1260372 HIT:    1256774 MISS:       3598
cpu0_L1I LOAD         ACCESS:     338221 HIT:     336697 MISS:       1524
cpu0_L1I RFO          ACCESS:          0 HIT:          0 MISS:          0
cpu0_L1I PREFETCH     ACCESS:     922151 HIT:     920077 MISS:       2074
cpu0_L1I WRITE        ACCESS:          0 HIT:          0 MISS:          0
cpu0_L1I TRANSLATION  ACCESS:          0 HIT:          0 MISS:          0
cpu0_L1I PREFETCH REQUESTED:    1080745 ISSUED:     922151 USEFUL:       1601 USELESS:         85
cpu0_L1I AVERAGE MISS LATENCY: 378.8 cycles
cpu0_L2C TOTAL        ACCESS:    3849466 HIT:    2255669 MISS:    1593797
cpu0_L2C LOAD         ACCESS:    1204338 HIT:     545026 MISS:     659312
cpu0_L2C RFO          ACCESS:     243504 HIT:      30656 MISS:     212848
cpu0_L2C PREFETCH     ACCESS:    1233745 HIT:     525087 MISS:     708658
cpu0_L2C WRITE        ACCESS:    1142743 HIT:    1142723 MISS:         20
cpu0_L2C TRANSLATION  ACCESS:      25136 HIT:      12177 MISS:      12959
cpu0_L2C PREFETCH REQUESTED:    1546619 ISSUED:    1053459 USEFUL:      93071 USELESS:     129011
cpu0_L2C AVERAGE MISS LATENCY: 211.4 cycles
cpu0_STLB TOTAL        ACCESS:     103959 HIT:      72352 MISS:      31607
cpu0_STLB LOAD         ACCESS:     103959 HIT:      72352 MISS:      31607
cpu0_STLB RFO          ACCESS:          0 HIT:          0 MISS:          0
cpu0_STLB PREFETCH     ACCESS:          0 HIT:          0 MISS:          0
cpu0_STLB WRITE        ACCESS:          0 HIT:          0 MISS:          0
cpu0_STLB TRANSLATION  ACCESS:          0 HIT:          0 MISS:          0
cpu0_STLB PREFETCH REQUESTED:          0 ISSUED:          0 USEFUL:          0 USELESS:          0
cpu0_STLB AVERAGE MISS LATENCY: 305.7 cycles

DRAM Statistics

Channel 0 RQ ROW_BUFFER_HIT:     118530
  ROW_BUFFER_MISS:     386812
 AVG DBUS CONGESTED CYCLE: 3.97
WQ ROW_BUFFER_HIT: Channel 0 
  ROW_BUFFER_MISS:      15082
  FULL:     357309

Channel 1 RQ ROW_BUFFER_HIT:     116512
  ROW_BUFFER_MISS:     382023
 AVG DBUS CONGESTED CYCLE: 3.945
WQ ROW_BUFFER_HIT: Channel 1 
  ROW_BUFFER_MISS:      17629
  FULL:     292983
BERTI TO_L1: 389975 TO_L2: 9583689 TO_L2_BC_MSHR: 2408817
BERTI AVG_LAT: 140.5 NUM_TRACK_LATENCY: 1562623 NUM_CANT_TRACK_LATENCY: 483
BERTI CROSS_PAGE 1718906 NO_CROSS_PAGE: 8254758
BERTI FOUND_BERTI: 7991719 NO_FOUND_BERTI: 15174611
BERTI AVERAGE_ISSUED: 2.02639
CPU 0 L1I Entangling prefetcher final stats
IP accesses: 23fb 8fec0 17437 / 343714
IP misses: 48ab 122ac0 747 / 7017
IP hits: 0 0 0 / 0
IP late: 4a86 12a180 8 / 804
IP wrong: 3c21 f0840 6 / 85
miss rate: 0.0204153
coverage: 0
coverage_late: 0.114579
accuracy: 0
accuracy_late: 0.904387
discarded: 0
evicts entangled j table: 0
evicts entangled k table: 60
max bb size: 13
formats: 25 0 65 29 22 32 0 
hist_lookups: 16 35 35 35 42 32 35 34 23 22 16 19 13 1 0 0 24 1195 
hist_lookups_evict: 1.52188 %
hist_lookups_shortlat: 75.7768 %
bb_found_hist: 0 60803 49050 9790 19135 44 1838 1958 0 6 3175 6 4361 12034 0 0 0 0 0 0 0 0 0 0 0 0 0 0 0 0 0 0 0 0 0 0 0 0 0 0 0 0 0 0 0 0 0 0 0 0 0 0 0 0 0 0 0 0 0 0 0 0 0 0 
bb_found_summary: 530411 162200 3.27011
entangled_found_hist: 0 45726 17353 29638 2831 4310 0 0 
entangled_found_summary: 202220 99858 2.02508
bb_ent_found_hist: 0 56358 48129 22081 1382 8628 7641 31 0 0 0 16 1817 1085 0 0 0 0 0 0 0 0 0 0 0 0 0 0 0 0 0 0 0 0 0 0 0 0 0 0 0 0 0 0 0 0 0 0 0 0 0 0 0 0 0 0 0 0 0 0 0 0 0 0 
bb_ent_found_summary: 349675 147168 2.37603
