WARNING: physical memory size is smaller than virtual memory size.

*** ChampSim Multicore Out-of-Order Simulator ***
Warmup Instructions: 25000000
Simulation Instructions: 100000000
Number of CPUs: 1
Page size: 4096

Off-chip DRAM Size: 4 GiB Channels: 1 Width: 64-bit Data Race: 3200 MT/s
Heartbeat CPU 0 instructions: 10000003 cycles: 2505098 heartbeat IPC: 3.992 cumulative IPC: 3.992 (Simulation time: 00 hr 00 min 18 sec)
Heartbeat CPU 0 instructions: 20000002 cycles: 5011883 heartbeat IPC: 3.989 cumulative IPC: 3.991 (Simulation time: 00 hr 00 min 37 sec)
Warmup finished CPU 0 instructions: 25000001 cycles: 6263368 cumulative IPC: 3.991 (Simulation time: 00 hr 00 min 46 sec)
Warmup complete CPU 0 instructions: 25000001 cycles: 6263368 cumulative IPC: 3.991 (Simulation time: 00 hr 00 min 46 sec)
Heartbeat CPU 0 instructions: 30000001 cycles: 7805765 heartbeat IPC: 3.579 cumulative IPC: 3.242 (Simulation time: 00 hr 00 min 58 sec)
*** Reached end of trace: (0, "../traces/public_traces/compute_int/compute_int_24.champsimtrace.xz")
Heartbeat CPU 0 instructions: 40000003 cycles: 12614078 heartbeat IPC: 2.08 cumulative IPC: 2.362 (Simulation time: 00 hr 01 min 30 sec)
Heartbeat CPU 0 instructions: 50000000 cycles: 17611010 heartbeat IPC: 2.001 cumulative IPC: 2.203 (Simulation time: 00 hr 02 min 01 sec)
Heartbeat CPU 0 instructions: 60000002 cycles: 21262465 heartbeat IPC: 2.739 cumulative IPC: 2.333 (Simulation time: 00 hr 02 min 28 sec)
*** Reached end of trace: (0, "../traces/public_traces/compute_int/compute_int_24.champsimtrace.xz")
Heartbeat CPU 0 instructions: 70000000 cycles: 26024155 heartbeat IPC: 2.1 cumulative IPC: 2.277 (Simulation time: 00 hr 02 min 59 sec)
Heartbeat CPU 0 instructions: 80000001 cycles: 31019528 heartbeat IPC: 2.002 cumulative IPC: 2.222 (Simulation time: 00 hr 03 min 31 sec)
Heartbeat CPU 0 instructions: 90000001 cycles: 34729070 heartbeat IPC: 2.696 cumulative IPC: 2.283 (Simulation time: 00 hr 03 min 58 sec)
*** Reached end of trace: (0, "../traces/public_traces/compute_int/compute_int_24.champsimtrace.xz")
Heartbeat CPU 0 instructions: 100000000 cycles: 39436852 heartbeat IPC: 2.124 cumulative IPC: 2.261 (Simulation time: 00 hr 04 min 29 sec)
Heartbeat CPU 0 instructions: 110000000 cycles: 44423490 heartbeat IPC: 2.005 cumulative IPC: 2.227 (Simulation time: 00 hr 05 min 01 sec)
Heartbeat CPU 0 instructions: 120000000 cycles: 48196661 heartbeat IPC: 2.65 cumulative IPC: 2.266 (Simulation time: 00 hr 05 min 29 sec)
*** Reached end of trace: (0, "../traces/public_traces/compute_int/compute_int_24.champsimtrace.xz")
Simulation finished CPU 0 instructions: 100000001 cycles: 44189459 cumulative IPC: 2.263 (Simulation time: 00 hr 05 min 44 sec)
Simulation complete CPU 0 instructions: 100000001 cycles: 44189459 cumulative IPC: 2.263 (Simulation time: 00 hr 05 min 44 sec)

ChampSim completed all CPUs

=== Simulation ===
CPU 0 runs ../traces/public_traces/compute_int/compute_int_24.champsimtrace.xz
Region of Interest Statistics

CPU 0 cumulative IPC: 2.263 instructions: 100000001 cycles: 44189459
CPU 0 Branch Prediction Accuracy: 98.37% MPKI: 4.437 Average ROB Occupancy at Mispredict: 25.78
Branch type MPKI
BRANCH_DIRECT_JUMP: 0
BRANCH_INDIRECT: 2.61
BRANCH_CONDITIONAL: 1.19
BRANCH_DIRECT_CALL: 0
BRANCH_INDIRECT_CALL: 0.638
BRANCH_RETURN: 0.00012

LLC TOTAL        ACCESS:     521859 HIT:     330427 MISS:     191432
LLC LOAD         ACCESS:     161622 HIT:     142842 MISS:      18780
LLC RFO          ACCESS:     168605 HIT:       1965 MISS:     166640
LLC PREFETCH     ACCESS:          0 HIT:          0 MISS:          0
LLC WRITE        ACCESS:     176944 HIT:     176365 MISS:        579
LLC TRANSLATION  ACCESS:      14688 HIT:       9255 MISS:       5433
LLC PREFETCH REQUESTED:          0 ISSUED:          0 USEFUL:          0 USELESS:          0
LLC AVERAGE MISS LATENCY: 416.4 cycles
cpu0_DTLB TOTAL        ACCESS:   19264565 HIT:   17430143 MISS:    1834422
cpu0_DTLB LOAD         ACCESS:   19264565 HIT:   17430143 MISS:    1834422
cpu0_DTLB RFO          ACCESS:          0 HIT:          0 MISS:          0
cpu0_DTLB PREFETCH     ACCESS:          0 HIT:          0 MISS:          0
cpu0_DTLB WRITE        ACCESS:          0 HIT:          0 MISS:          0
cpu0_DTLB TRANSLATION  ACCESS:          0 HIT:          0 MISS:          0
cpu0_DTLB PREFETCH REQUESTED:          0 ISSUED:          0 USEFUL:          0 USELESS:          0
cpu0_DTLB AVERAGE MISS LATENCY: 7.146 cycles
cpu0_ITLB TOTAL        ACCESS:    1946189 HIT:    1851861 MISS:      94328
cpu0_ITLB LOAD         ACCESS:    1946189 HIT:    1851861 MISS:      94328
cpu0_ITLB RFO          ACCESS:          0 HIT:          0 MISS:          0
cpu0_ITLB PREFETCH     ACCESS:          0 HIT:          0 MISS:          0
cpu0_ITLB WRITE        ACCESS:          0 HIT:          0 MISS:          0
cpu0_ITLB TRANSLATION  ACCESS:          0 HIT:          0 MISS:          0
cpu0_ITLB PREFETCH REQUESTED:          0 ISSUED:          0 USEFUL:          0 USELESS:          0
cpu0_ITLB AVERAGE MISS LATENCY: 3.14 cycles
cpu0_L1D TOTAL        ACCESS:   21050338 HIT:    6699913 MISS:   14350425
cpu0_L1D LOAD         ACCESS:   18485727 HIT:    4827045 MISS:   13658682
cpu0_L1D RFO          ACCESS:          0 HIT:          0 MISS:          0
cpu0_L1D PREFETCH     ACCESS:          0 HIT:          0 MISS:          0
cpu0_L1D WRITE        ACCESS:    2491364 HIT:    1869575 MISS:     621789
cpu0_L1D TRANSLATION  ACCESS:      73247 HIT:       3293 MISS:      69954
cpu0_L1D PREFETCH REQUESTED:          0 ISSUED:          0 USEFUL:          0 USELESS:          0
cpu0_L1D AVERAGE MISS LATENCY: 8.024 cycles
cpu0_L1I TOTAL        ACCESS:    2179241 HIT:    2035846 MISS:     143395
cpu0_L1I LOAD         ACCESS:    2179241 HIT:    2035846 MISS:     143395
cpu0_L1I RFO          ACCESS:          0 HIT:          0 MISS:          0
cpu0_L1I PREFETCH     ACCESS:          0 HIT:          0 MISS:          0
cpu0_L1I WRITE        ACCESS:          0 HIT:          0 MISS:          0
cpu0_L1I TRANSLATION  ACCESS:          0 HIT:          0 MISS:          0
cpu0_L1I PREFETCH REQUESTED:          0 ISSUED:          0 USEFUL:          0 USELESS:          0
cpu0_L1I AVERAGE MISS LATENCY: 11.83 cycles
cpu0_L2C TOTAL        ACCESS:    4684765 HIT:    4339850 MISS:     344915
cpu0_L2C LOAD         ACCESS:    4077473 HIT:    3915851 MISS:     161622
cpu0_L2C RFO          ACCESS:     222742 HIT:      54137 MISS:     168605
cpu0_L2C PREFETCH     ACCESS:          0 HIT:          0 MISS:          0
cpu0_L2C WRITE        ACCESS:     314679 HIT:     314679 MISS:          0
cpu0_L2C TRANSLATION  ACCESS:      69871 HIT:      55183 MISS:      14688
cpu0_L2C PREFETCH REQUESTED:          0 ISSUED:          0 USEFUL:          0 USELESS:          0
cpu0_L2C AVERAGE MISS LATENCY: 251.7 cycles
cpu0_STLB TOTAL        ACCESS:    1000782 HIT:     929308 MISS:      71474
cpu0_STLB LOAD         ACCESS:    1000782 HIT:     929308 MISS:      71474
cpu0_STLB RFO          ACCESS:          0 HIT:          0 MISS:          0
cpu0_STLB PREFETCH     ACCESS:          0 HIT:          0 MISS:          0
cpu0_STLB WRITE        ACCESS:          0 HIT:          0 MISS:          0
cpu0_STLB TRANSLATION  ACCESS:          0 HIT:          0 MISS:          0
cpu0_STLB PREFETCH REQUESTED:          0 ISSUED:          0 USEFUL:          0 USELESS:          0
cpu0_STLB AVERAGE MISS LATENCY: 110 cycles

DRAM Statistics

Channel 0 RQ ROW_BUFFER_HIT:     103156
  ROW_BUFFER_MISS:      87697
 AVG DBUS CONGESTED CYCLE: 3.985
WQ ROW_BUFFER_HIT: Channel 0 
  ROW_BUFFER_MISS:      15647
  FULL:     156793
