WARNING: physical memory size is smaller than virtual memory size.

*** ChampSim Multicore Out-of-Order Simulator ***
Warmup Instructions: 25000000
Simulation Instructions: 100000000
Number of CPUs: 1
Page size: 4096

Off-chip DRAM Size: 4 GiB Channels: 1 Width: 64-bit Data Race: 3200 MT/s
Heartbeat CPU 0 instructions: 10000000 cycles: 2626671 heartbeat IPC: 3.807 cumulative IPC: 3.807 (Simulation time: 00 hr 00 min 20 sec)
Heartbeat CPU 0 instructions: 20000002 cycles: 5223376 heartbeat IPC: 3.851 cumulative IPC: 3.829 (Simulation time: 00 hr 00 min 38 sec)
Warmup finished CPU 0 instructions: 25000001 cycles: 6499594 cumulative IPC: 3.846 (Simulation time: 00 hr 00 min 47 sec)
Warmup complete CPU 0 instructions: 25000001 cycles: 6499594 cumulative IPC: 3.846 (Simulation time: 00 hr 00 min 47 sec)
Heartbeat CPU 0 instructions: 30000003 cycles: 11050634 heartbeat IPC: 1.716 cumulative IPC: 1.099 (Simulation time: 00 hr 01 min 09 sec)
*** Reached end of trace: (0, "../traces/public_traces/compute_int/compute_int_31.champsimtrace.xz")
Heartbeat CPU 0 instructions: 40000002 cycles: 26123049 heartbeat IPC: 0.6635 cumulative IPC: 0.7644 (Simulation time: 00 hr 02 min 12 sec)
Heartbeat CPU 0 instructions: 50000000 cycles: 37320378 heartbeat IPC: 0.8931 cumulative IPC: 0.8111 (Simulation time: 00 hr 03 min 01 sec)
Heartbeat CPU 0 instructions: 60000000 cycles: 50858495 heartbeat IPC: 0.7387 cumulative IPC: 0.789 (Simulation time: 00 hr 03 min 56 sec)
*** Reached end of trace: (0, "../traces/public_traces/compute_int/compute_int_31.champsimtrace.xz")
Heartbeat CPU 0 instructions: 70000001 cycles: 65273263 heartbeat IPC: 0.6937 cumulative IPC: 0.7656 (Simulation time: 00 hr 04 min 56 sec)
Heartbeat CPU 0 instructions: 80000002 cycles: 77069268 heartbeat IPC: 0.8477 cumulative IPC: 0.7794 (Simulation time: 00 hr 05 min 48 sec)
Heartbeat CPU 0 instructions: 90000000 cycles: 90651034 heartbeat IPC: 0.7363 cumulative IPC: 0.7724 (Simulation time: 00 hr 06 min 43 sec)
*** Reached end of trace: (0, "../traces/public_traces/compute_int/compute_int_31.champsimtrace.xz")
Heartbeat CPU 0 instructions: 100000000 cycles: 104538110 heartbeat IPC: 0.7201 cumulative IPC: 0.765 (Simulation time: 00 hr 07 min 41 sec)
Heartbeat CPU 0 instructions: 110000000 cycles: 116777848 heartbeat IPC: 0.817 cumulative IPC: 0.7708 (Simulation time: 00 hr 08 min 34 sec)
Heartbeat CPU 0 instructions: 120000004 cycles: 130390854 heartbeat IPC: 0.7346 cumulative IPC: 0.7668 (Simulation time: 00 hr 09 min 29 sec)
*** Reached end of trace: (0, "../traces/public_traces/compute_int/compute_int_31.champsimtrace.xz")
Simulation finished CPU 0 instructions: 100000003 cycles: 131768190 cumulative IPC: 0.7589 (Simulation time: 00 hr 10 min 00 sec)
Simulation complete CPU 0 instructions: 100000003 cycles: 131768190 cumulative IPC: 0.7589 (Simulation time: 00 hr 10 min 00 sec)

ChampSim completed all CPUs

=== Simulation ===
CPU 0 runs ../traces/public_traces/compute_int/compute_int_31.champsimtrace.xz
Region of Interest Statistics

CPU 0 cumulative IPC: 0.7589 instructions: 100000003 cycles: 131768190
CPU 0 Branch Prediction Accuracy: 89.48% MPKI: 25.87 Average ROB Occupancy at Mispredict: 31.21
Branch type MPKI
BRANCH_DIRECT_JUMP: 0.00046
BRANCH_INDIRECT: 18.1
BRANCH_CONDITIONAL: 7.5
BRANCH_DIRECT_CALL: 0.00016
BRANCH_INDIRECT_CALL: 0.231
BRANCH_RETURN: 0.00027

LLC TOTAL        ACCESS:    2137894 HIT:    1290537 MISS:     847357
LLC LOAD         ACCESS:    1359638 HIT:     733216 MISS:     626422
LLC RFO          ACCESS:     241505 HIT:      46441 MISS:     195064
LLC PREFETCH     ACCESS:          0 HIT:          0 MISS:          0
LLC WRITE        ACCESS:     508081 HIT:     507699 MISS:        382
LLC TRANSLATION  ACCESS:      28670 HIT:       3181 MISS:      25489
LLC PREFETCH REQUESTED:          0 ISSUED:          0 USEFUL:          0 USELESS:          0
LLC AVERAGE MISS LATENCY: 281.1 cycles
cpu0_DTLB TOTAL        ACCESS:   21481217 HIT:   20792845 MISS:     688372
cpu0_DTLB LOAD         ACCESS:   21481217 HIT:   20792845 MISS:     688372
cpu0_DTLB RFO          ACCESS:          0 HIT:          0 MISS:          0
cpu0_DTLB PREFETCH     ACCESS:          0 HIT:          0 MISS:          0
cpu0_DTLB WRITE        ACCESS:          0 HIT:          0 MISS:          0
cpu0_DTLB TRANSLATION  ACCESS:          0 HIT:          0 MISS:          0
cpu0_DTLB PREFETCH REQUESTED:          0 ISSUED:          0 USEFUL:          0 USELESS:          0
cpu0_DTLB AVERAGE MISS LATENCY: 14.62 cycles
cpu0_ITLB TOTAL        ACCESS:     476942 HIT:     476179 MISS:        763
cpu0_ITLB LOAD         ACCESS:     476942 HIT:     476179 MISS:        763
cpu0_ITLB RFO          ACCESS:          0 HIT:          0 MISS:          0
cpu0_ITLB PREFETCH     ACCESS:          0 HIT:          0 MISS:          0
cpu0_ITLB WRITE        ACCESS:          0 HIT:          0 MISS:          0
cpu0_ITLB TRANSLATION  ACCESS:          0 HIT:          0 MISS:          0
cpu0_ITLB PREFETCH REQUESTED:          0 ISSUED:          0 USEFUL:          0 USELESS:          0
cpu0_ITLB AVERAGE MISS LATENCY: 120.9 cycles
cpu0_L1D TOTAL        ACCESS:   25514319 HIT:   21051086 MISS:    4463233
cpu0_L1D LOAD         ACCESS:   19051303 HIT:   15300140 MISS:    3751163
cpu0_L1D RFO          ACCESS:          0 HIT:          0 MISS:          0
cpu0_L1D PREFETCH     ACCESS:          0 HIT:          0 MISS:          0
cpu0_L1D WRITE        ACCESS:    6418792 HIT:    5743854 MISS:     674938
cpu0_L1D TRANSLATION  ACCESS:      44224 HIT:       7092 MISS:      37132
cpu0_L1D PREFETCH REQUESTED:          0 ISSUED:          0 USEFUL:          0 USELESS:          0
cpu0_L1D AVERAGE MISS LATENCY: 63.9 cycles
cpu0_L1I TOTAL        ACCESS:     514800 HIT:     509338 MISS:       5462
cpu0_L1I LOAD         ACCESS:     514800 HIT:     509338 MISS:       5462
cpu0_L1I RFO          ACCESS:          0 HIT:          0 MISS:          0
cpu0_L1I PREFETCH     ACCESS:          0 HIT:          0 MISS:          0
cpu0_L1I WRITE        ACCESS:          0 HIT:          0 MISS:          0
cpu0_L1I TRANSLATION  ACCESS:          0 HIT:          0 MISS:          0
cpu0_L1I PREFETCH REQUESTED:          0 ISSUED:          0 USEFUL:          0 USELESS:          0
cpu0_L1I AVERAGE MISS LATENCY: 175.6 cycles
cpu0_L2C TOTAL        ACCESS:    3333118 HIT:    1702709 MISS:    1630409
cpu0_L2C LOAD         ACCESS:    2438306 HIT:    1078663 MISS:    1359643
cpu0_L2C RFO          ACCESS:     269250 HIT:      27745 MISS:     241505
cpu0_L2C PREFETCH     ACCESS:          0 HIT:          0 MISS:          0
cpu0_L2C WRITE        ACCESS:     588507 HIT:     587916 MISS:        591
cpu0_L2C TRANSLATION  ACCESS:      37055 HIT:       8385 MISS:      28670
cpu0_L2C PREFETCH REQUESTED:          0 ISSUED:          0 USEFUL:          0 USELESS:          0
cpu0_L2C AVERAGE MISS LATENCY: 166.7 cycles
cpu0_STLB TOTAL        ACCESS:     472033 HIT:     439843 MISS:      32190
cpu0_STLB LOAD         ACCESS:     472033 HIT:     439843 MISS:      32190
cpu0_STLB RFO          ACCESS:          0 HIT:          0 MISS:          0
cpu0_STLB PREFETCH     ACCESS:          0 HIT:          0 MISS:          0
cpu0_STLB WRITE        ACCESS:          0 HIT:          0 MISS:          0
cpu0_STLB TRANSLATION  ACCESS:          0 HIT:          0 MISS:          0
cpu0_STLB PREFETCH REQUESTED:          0 ISSUED:          0 USEFUL:          0 USELESS:          0
cpu0_STLB AVERAGE MISS LATENCY: 238 cycles

DRAM Statistics

Channel 0 RQ ROW_BUFFER_HIT:     174568
  ROW_BUFFER_MISS:     672104
 AVG DBUS CONGESTED CYCLE: 3.898
WQ ROW_BUFFER_HIT: Channel 0 
  ROW_BUFFER_MISS:      65402
  FULL:     299160
