WARNING: physical memory size is smaller than virtual memory size.

*** ChampSim Multicore Out-of-Order Simulator ***
Warmup Instructions: 25000000
Simulation Instructions: 100000000
Number of CPUs: 1
Page size: 4096

Off-chip DRAM Size: 4 GiB Channels: 1 Width: 64-bit Data Race: 3200 MT/s
Heartbeat CPU 0 instructions: 10000001 cycles: 2500046 heartbeat IPC: 4 cumulative IPC: 4 (Simulation time: 00 hr 00 min 21 sec)
Heartbeat CPU 0 instructions: 20000001 cycles: 5000046 heartbeat IPC: 4 cumulative IPC: 4 (Simulation time: 00 hr 00 min 42 sec)
Warmup finished CPU 0 instructions: 25000002 cycles: 6659164 cumulative IPC: 3.754 (Simulation time: 00 hr 00 min 55 sec)
Warmup complete CPU 0 instructions: 25000002 cycles: 6659164 cumulative IPC: 3.754 (Simulation time: 00 hr 00 min 55 sec)
Heartbeat CPU 0 instructions: 30000002 cycles: 27201948 heartbeat IPC: 0.4504 cumulative IPC: 0.2434 (Simulation time: 00 hr 02 min 33 sec)
*** Reached end of trace: (0, "../traces/public_traces/compute_int/compute_int_37.champsimtrace.xz")
Heartbeat CPU 0 instructions: 40000000 cycles: 74956298 heartbeat IPC: 0.2094 cumulative IPC: 0.2196 (Simulation time: 00 hr 06 min 12 sec)
Heartbeat CPU 0 instructions: 50000001 cycles: 125932873 heartbeat IPC: 0.1962 cumulative IPC: 0.2096 (Simulation time: 00 hr 10 min 04 sec)
Heartbeat CPU 0 instructions: 60000001 cycles: 180420354 heartbeat IPC: 0.1835 cumulative IPC: 0.2014 (Simulation time: 00 hr 14 min 08 sec)
*** Reached end of trace: (0, "../traces/public_traces/compute_int/compute_int_37.champsimtrace.xz")
Heartbeat CPU 0 instructions: 70000004 cycles: 228137652 heartbeat IPC: 0.2096 cumulative IPC: 0.2032 (Simulation time: 00 hr 17 min 47 sec)
Heartbeat CPU 0 instructions: 80000002 cycles: 279158027 heartbeat IPC: 0.196 cumulative IPC: 0.2018 (Simulation time: 00 hr 21 min 39 sec)
Heartbeat CPU 0 instructions: 90000002 cycles: 333732521 heartbeat IPC: 0.1832 cumulative IPC: 0.1987 (Simulation time: 00 hr 25 min 44 sec)
*** Reached end of trace: (0, "../traces/public_traces/compute_int/compute_int_37.champsimtrace.xz")
Heartbeat CPU 0 instructions: 100000000 cycles: 381408840 heartbeat IPC: 0.2097 cumulative IPC: 0.2001 (Simulation time: 00 hr 29 min 22 sec)
Heartbeat CPU 0 instructions: 110000000 cycles: 432392292 heartbeat IPC: 0.1961 cumulative IPC: 0.1997 (Simulation time: 00 hr 33 min 14 sec)
Heartbeat CPU 0 instructions: 120000000 cycles: 486967137 heartbeat IPC: 0.1832 cumulative IPC: 0.1978 (Simulation time: 00 hr 37 min 18 sec)
*** Reached end of trace: (0, "../traces/public_traces/compute_int/compute_int_37.champsimtrace.xz")
Simulation finished CPU 0 instructions: 100000002 cycles: 502797989 cumulative IPC: 0.1989 (Simulation time: 00 hr 39 min 02 sec)
Simulation complete CPU 0 instructions: 100000002 cycles: 502797989 cumulative IPC: 0.1989 (Simulation time: 00 hr 39 min 02 sec)

ChampSim completed all CPUs

=== Simulation ===
CPU 0 runs ../traces/public_traces/compute_int/compute_int_37.champsimtrace.xz
Region of Interest Statistics

CPU 0 cumulative IPC: 0.1989 instructions: 100000002 cycles: 502797989
CPU 0 Branch Prediction Accuracy: 99.27% MPKI: 1.32 Average ROB Occupancy at Mispredict: 41.33
Branch type MPKI
BRANCH_DIRECT_JUMP: 0.00026
BRANCH_INDIRECT: 0.314
BRANCH_CONDITIONAL: 1
BRANCH_DIRECT_CALL: 0.00095
BRANCH_INDIRECT_CALL: 0.00027
BRANCH_RETURN: 0.00092

LLC TOTAL        ACCESS:   14050471 HIT:    3167521 MISS:   10882950
LLC LOAD         ACCESS:    9506004 HIT:     619670 MISS:    8886334
LLC RFO          ACCESS:     302600 HIT:     180433 MISS:     122167
LLC PREFETCH     ACCESS:          0 HIT:          0 MISS:          0
LLC WRITE        ACCESS:    2050045 HIT:    2049649 MISS:        396
LLC TRANSLATION  ACCESS:    2191822 HIT:     317769 MISS:    1874053
LLC PREFETCH REQUESTED:          0 ISSUED:          0 USEFUL:          0 USELESS:          0
LLC AVERAGE MISS LATENCY: 471.6 cycles
cpu0_DTLB TOTAL        ACCESS:   20708278 HIT:   14225236 MISS:    6483042
cpu0_DTLB LOAD         ACCESS:   20708278 HIT:   14225236 MISS:    6483042
cpu0_DTLB RFO          ACCESS:          0 HIT:          0 MISS:          0
cpu0_DTLB PREFETCH     ACCESS:          0 HIT:          0 MISS:          0
cpu0_DTLB WRITE        ACCESS:          0 HIT:          0 MISS:          0
cpu0_DTLB TRANSLATION  ACCESS:          0 HIT:          0 MISS:          0
cpu0_DTLB PREFETCH REQUESTED:          0 ISSUED:          0 USEFUL:          0 USELESS:          0
cpu0_DTLB AVERAGE MISS LATENCY: 247.5 cycles
cpu0_ITLB TOTAL        ACCESS:      40279 HIT:      39713 MISS:        566
cpu0_ITLB LOAD         ACCESS:      40279 HIT:      39713 MISS:        566
cpu0_ITLB RFO          ACCESS:          0 HIT:          0 MISS:          0
cpu0_ITLB PREFETCH     ACCESS:          0 HIT:          0 MISS:          0
cpu0_ITLB WRITE        ACCESS:          0 HIT:          0 MISS:          0
cpu0_ITLB TRANSLATION  ACCESS:          0 HIT:          0 MISS:          0
cpu0_ITLB PREFETCH REQUESTED:          0 ISSUED:          0 USEFUL:          0 USELESS:          0
cpu0_ITLB AVERAGE MISS LATENCY: 106.1 cycles
cpu0_L1D TOTAL        ACCESS:   26902395 HIT:   11263958 MISS:   15638437
cpu0_L1D LOAD         ACCESS:   21282091 HIT:    8654605 MISS:   12627486
cpu0_L1D RFO          ACCESS:          0 HIT:          0 MISS:          0
cpu0_L1D PREFETCH     ACCESS:          0 HIT:          0 MISS:          0
cpu0_L1D WRITE        ACCESS:    2786181 HIT:    2075451 MISS:     710730
cpu0_L1D TRANSLATION  ACCESS:    2834123 HIT:     533902 MISS:    2300221
cpu0_L1D PREFETCH REQUESTED:          0 ISSUED:          0 USEFUL:          0 USELESS:          0
cpu0_L1D AVERAGE MISS LATENCY: 350.2 cycles
cpu0_L1I TOTAL        ACCESS:      40731 HIT:      39565 MISS:       1166
cpu0_L1I LOAD         ACCESS:      40731 HIT:      39565 MISS:       1166
cpu0_L1I RFO          ACCESS:          0 HIT:          0 MISS:          0
cpu0_L1I PREFETCH     ACCESS:          0 HIT:          0 MISS:          0
cpu0_L1I WRITE        ACCESS:          0 HIT:          0 MISS:          0
cpu0_L1I TRANSLATION  ACCESS:          0 HIT:          0 MISS:          0
cpu0_L1I PREFETCH REQUESTED:          0 ISSUED:          0 USEFUL:          0 USELESS:          0
cpu0_L1I AVERAGE MISS LATENCY: 137 cycles
cpu0_L2C TOTAL        ACCESS:   15367353 HIT:    3366922 MISS:   12000431
cpu0_L2C LOAD         ACCESS:   10524184 HIT:    1018181 MISS:    9506003
cpu0_L2C RFO          ACCESS:     409563 HIT:     106963 MISS:     302600
cpu0_L2C PREFETCH     ACCESS:          0 HIT:          0 MISS:          0
cpu0_L2C WRITE        ACCESS:    2141548 HIT:    2141542 MISS:          6
cpu0_L2C TRANSLATION  ACCESS:    2292058 HIT:     100236 MISS:    2191822
cpu0_L2C PREFETCH REQUESTED:          0 ISSUED:          0 USEFUL:          0 USELESS:          0
cpu0_L2C AVERAGE MISS LATENCY: 448.6 cycles
cpu0_STLB TOTAL        ACCESS:    2964359 HIT:     632097 MISS:    2332262
cpu0_STLB LOAD         ACCESS:    2964359 HIT:     632097 MISS:    2332262
cpu0_STLB RFO          ACCESS:          0 HIT:          0 MISS:          0
cpu0_STLB PREFETCH     ACCESS:          0 HIT:          0 MISS:          0
cpu0_STLB WRITE        ACCESS:          0 HIT:          0 MISS:          0
cpu0_STLB TRANSLATION  ACCESS:          0 HIT:          0 MISS:          0
cpu0_STLB PREFETCH REQUESTED:          0 ISSUED:          0 USEFUL:          0 USELESS:          0
cpu0_STLB AVERAGE MISS LATENCY: 768.8 cycles

DRAM Statistics

Channel 0 RQ ROW_BUFFER_HIT:    6391542
  ROW_BUFFER_MISS:    4490889
 AVG DBUS CONGESTED CYCLE: 3.991
WQ ROW_BUFFER_HIT: Channel 0 
  ROW_BUFFER_MISS:      13259
  FULL:    2021738
