WARNING: physical memory size is smaller than virtual memory size.

*** ChampSim Multicore Out-of-Order Simulator ***
Warmup Instructions: 25000000
Simulation Instructions: 100000000
Number of CPUs: 1
Page size: 4096

Off-chip DRAM Size: 4 GiB Channels: 1 Width: 64-bit Data Race: 3200 MT/s
Heartbeat CPU 0 instructions: 10000003 cycles: 2737667 heartbeat IPC: 3.653 cumulative IPC: 3.653 (Simulation time: 00 hr 00 min 23 sec)
Heartbeat CPU 0 instructions: 20000003 cycles: 5463569 heartbeat IPC: 3.669 cumulative IPC: 3.661 (Simulation time: 00 hr 00 min 46 sec)
Warmup finished CPU 0 instructions: 25000001 cycles: 6830109 cumulative IPC: 3.66 (Simulation time: 00 hr 00 min 57 sec)
Warmup complete CPU 0 instructions: 25000001 cycles: 6830109 cumulative IPC: 3.66 (Simulation time: 00 hr 00 min 57 sec)
Heartbeat CPU 0 instructions: 30000000 cycles: 16508287 heartbeat IPC: 0.9054 cumulative IPC: 0.5166 (Simulation time: 00 hr 01 min 39 sec)
*** Reached end of trace: (0, "../traces/public_traces/srv/srv_75.champsimtrace.xz")
Heartbeat CPU 0 instructions: 40000001 cycles: 35332307 heartbeat IPC: 0.5312 cumulative IPC: 0.5263 (Simulation time: 00 hr 03 min 01 sec)
Heartbeat CPU 0 instructions: 50000000 cycles: 54382983 heartbeat IPC: 0.5249 cumulative IPC: 0.5257 (Simulation time: 00 hr 04 min 23 sec)
Heartbeat CPU 0 instructions: 60000001 cycles: 73156207 heartbeat IPC: 0.5327 cumulative IPC: 0.5277 (Simulation time: 00 hr 05 min 44 sec)
*** Reached end of trace: (0, "../traces/public_traces/srv/srv_75.champsimtrace.xz")
Heartbeat CPU 0 instructions: 70000001 cycles: 92230414 heartbeat IPC: 0.5243 cumulative IPC: 0.5269 (Simulation time: 00 hr 07 min 07 sec)
Heartbeat CPU 0 instructions: 80000004 cycles: 111205979 heartbeat IPC: 0.527 cumulative IPC: 0.5269 (Simulation time: 00 hr 08 min 29 sec)
Heartbeat CPU 0 instructions: 90000001 cycles: 129949476 heartbeat IPC: 0.5335 cumulative IPC: 0.5279 (Simulation time: 00 hr 09 min 50 sec)
*** Reached end of trace: (0, "../traces/public_traces/srv/srv_75.champsimtrace.xz")
Heartbeat CPU 0 instructions: 100000004 cycles: 149183826 heartbeat IPC: 0.5199 cumulative IPC: 0.5269 (Simulation time: 00 hr 11 min 13 sec)
Heartbeat CPU 0 instructions: 110000001 cycles: 167975365 heartbeat IPC: 0.5322 cumulative IPC: 0.5275 (Simulation time: 00 hr 12 min 34 sec)
Heartbeat CPU 0 instructions: 120000003 cycles: 187052950 heartbeat IPC: 0.5242 cumulative IPC: 0.5271 (Simulation time: 00 hr 13 min 57 sec)
Simulation finished CPU 0 instructions: 100000000 cycles: 189665101 cumulative IPC: 0.5272 (Simulation time: 00 hr 14 min 38 sec)
Simulation complete CPU 0 instructions: 100000000 cycles: 189665101 cumulative IPC: 0.5272 (Simulation time: 00 hr 14 min 38 sec)

ChampSim completed all CPUs

=== Simulation ===
CPU 0 runs ../traces/public_traces/srv/srv_75.champsimtrace.xz
Region of Interest Statistics

CPU 0 cumulative IPC: 0.5272 instructions: 100000000 cycles: 189665101
CPU 0 Branch Prediction Accuracy: 91.61% MPKI: 12.81 Average ROB Occupancy at Mispredict: 29.34
Branch type MPKI
BRANCH_DIRECT_JUMP: 6e-05
BRANCH_INDIRECT: 8.3
BRANCH_CONDITIONAL: 3.88
BRANCH_DIRECT_CALL: 0
BRANCH_INDIRECT_CALL: 0.63
BRANCH_RETURN: 0.00114

LLC TOTAL        ACCESS:    5279080 HIT:    2977068 MISS:    2302012
LLC LOAD         ACCESS:    1391950 HIT:     624440 MISS:     767510
LLC RFO          ACCESS:    1800396 HIT:     280881 MISS:    1519515
LLC PREFETCH     ACCESS:          0 HIT:          0 MISS:          0
LLC WRITE        ACCESS:    2071140 HIT:    2068639 MISS:       2501
LLC TRANSLATION  ACCESS:      15594 HIT:       3108 MISS:      12486
LLC PREFETCH REQUESTED:          0 ISSUED:          0 USEFUL:          0 USELESS:          0
LLC AVERAGE MISS LATENCY: 653.7 cycles
cpu0_DTLB TOTAL        ACCESS:   25552951 HIT:   24151671 MISS:    1401280
cpu0_DTLB LOAD         ACCESS:   25552951 HIT:   24151671 MISS:    1401280
cpu0_DTLB RFO          ACCESS:          0 HIT:          0 MISS:          0
cpu0_DTLB PREFETCH     ACCESS:          0 HIT:          0 MISS:          0
cpu0_DTLB WRITE        ACCESS:          0 HIT:          0 MISS:          0
cpu0_DTLB TRANSLATION  ACCESS:          0 HIT:          0 MISS:          0
cpu0_DTLB PREFETCH REQUESTED:          0 ISSUED:          0 USEFUL:          0 USELESS:          0
cpu0_DTLB AVERAGE MISS LATENCY: 8.156 cycles
cpu0_ITLB TOTAL        ACCESS:   10205268 HIT:    8167730 MISS:    2037538
cpu0_ITLB LOAD         ACCESS:   10205268 HIT:    8167730 MISS:    2037538
cpu0_ITLB RFO          ACCESS:          0 HIT:          0 MISS:          0
cpu0_ITLB PREFETCH     ACCESS:          0 HIT:          0 MISS:          0
cpu0_ITLB WRITE        ACCESS:          0 HIT:          0 MISS:          0
cpu0_ITLB TRANSLATION  ACCESS:          0 HIT:          0 MISS:          0
cpu0_ITLB PREFETCH REQUESTED:          0 ISSUED:          0 USEFUL:          0 USELESS:          0
cpu0_ITLB AVERAGE MISS LATENCY: 1.743 cycles
cpu0_L1D TOTAL        ACCESS:   34530505 HIT:   22827850 MISS:   11702655
cpu0_L1D LOAD         ACCESS:   17364293 HIT:   13799930 MISS:    3564363
cpu0_L1D RFO          ACCESS:          0 HIT:          0 MISS:          0
cpu0_L1D PREFETCH     ACCESS:          0 HIT:          0 MISS:          0
cpu0_L1D WRITE        ACCESS:   17125629 HIT:    9013492 MISS:    8112137
cpu0_L1D TRANSLATION  ACCESS:      40583 HIT:      14428 MISS:      26155
cpu0_L1D PREFETCH REQUESTED:          0 ISSUED:          0 USEFUL:          0 USELESS:          0
cpu0_L1D AVERAGE MISS LATENCY: 131 cycles
cpu0_L1I TOTAL        ACCESS:   11736257 HIT:    4978427 MISS:    6757830
cpu0_L1I LOAD         ACCESS:   11736257 HIT:    4978427 MISS:    6757830
cpu0_L1I RFO          ACCESS:          0 HIT:          0 MISS:          0
cpu0_L1I PREFETCH     ACCESS:          0 HIT:          0 MISS:          0
cpu0_L1I WRITE        ACCESS:          0 HIT:          0 MISS:          0
cpu0_L1I TRANSLATION  ACCESS:          0 HIT:          0 MISS:          0
cpu0_L1I PREFETCH REQUESTED:          0 ISSUED:          0 USEFUL:          0 USELESS:          0
cpu0_L1I AVERAGE MISS LATENCY: 7.42 cycles
cpu0_L2C TOTAL        ACCESS:   10172241 HIT:    6961646 MISS:    3210595
cpu0_L2C LOAD         ACCESS:    6104249 HIT:    4712296 MISS:    1391953
cpu0_L2C RFO          ACCESS:    1849355 HIT:      48953 MISS:    1800402
cpu0_L2C PREFETCH     ACCESS:          0 HIT:          0 MISS:          0
cpu0_L2C WRITE        ACCESS:    2192604 HIT:    2189958 MISS:       2646
cpu0_L2C TRANSLATION  ACCESS:      26033 HIT:      10439 MISS:      15594
cpu0_L2C PREFETCH REQUESTED:          0 ISSUED:          0 USEFUL:          0 USELESS:          0
cpu0_L2C AVERAGE MISS LATENCY: 489.4 cycles
cpu0_STLB TOTAL        ACCESS:    1464342 HIT:    1426627 MISS:      37715
cpu0_STLB LOAD         ACCESS:    1464342 HIT:    1426627 MISS:      37715
cpu0_STLB RFO          ACCESS:          0 HIT:          0 MISS:          0
cpu0_STLB PREFETCH     ACCESS:          0 HIT:          0 MISS:          0
cpu0_STLB WRITE        ACCESS:          0 HIT:          0 MISS:          0
cpu0_STLB TRANSLATION  ACCESS:          0 HIT:          0 MISS:          0
cpu0_STLB PREFETCH REQUESTED:          0 ISSUED:          0 USEFUL:          0 USELESS:          0
cpu0_STLB AVERAGE MISS LATENCY: 208 cycles

DRAM Statistics

Channel 0 RQ ROW_BUFFER_HIT:     852253
  ROW_BUFFER_MISS:    1446891
 AVG DBUS CONGESTED CYCLE: 3.978
WQ ROW_BUFFER_HIT: Channel 0 
  ROW_BUFFER_MISS:     165094
  FULL:    1464469
