WARNING: physical memory size is smaller than virtual memory size.

*** ChampSim Multicore Out-of-Order Simulator ***
Warmup Instructions: 25000000
Simulation Instructions: 100000000
Number of CPUs: 1
Page size: 4096

Off-chip DRAM Size: 4 GiB Channels: 1 Width: 64-bit Data Race: 3200 MT/s
Heartbeat CPU 0 instructions: 10000002 cycles: 2502244 heartbeat IPC: 3.996 cumulative IPC: 3.996 (Simulation time: 00 hr 00 min 20 sec)
Heartbeat CPU 0 instructions: 20000002 cycles: 5004476 heartbeat IPC: 3.996 cumulative IPC: 3.996 (Simulation time: 00 hr 00 min 41 sec)
Warmup finished CPU 0 instructions: 25000003 cycles: 6281702 cumulative IPC: 3.98 (Simulation time: 00 hr 00 min 51 sec)
Warmup complete CPU 0 instructions: 25000003 cycles: 6281702 cumulative IPC: 3.98 (Simulation time: 00 hr 00 min 51 sec)
Heartbeat CPU 0 instructions: 30000003 cycles: 7869598 heartbeat IPC: 3.49 cumulative IPC: 3.149 (Simulation time: 00 hr 01 min 04 sec)
*** Reached end of trace: (0, "../traces/public_traces/srv/srv_58.champsimtrace.xz")
Heartbeat CPU 0 instructions: 40000002 cycles: 15464992 heartbeat IPC: 1.317 cumulative IPC: 1.633 (Simulation time: 00 hr 01 min 42 sec)
Heartbeat CPU 0 instructions: 50000001 cycles: 23643577 heartbeat IPC: 1.223 cumulative IPC: 1.44 (Simulation time: 00 hr 02 min 21 sec)
Heartbeat CPU 0 instructions: 60000004 cycles: 27404058 heartbeat IPC: 2.659 cumulative IPC: 1.657 (Simulation time: 00 hr 02 min 49 sec)
*** Reached end of trace: (0, "../traces/public_traces/srv/srv_58.champsimtrace.xz")
Heartbeat CPU 0 instructions: 70000001 cycles: 34515778 heartbeat IPC: 1.406 cumulative IPC: 1.594 (Simulation time: 00 hr 03 min 26 sec)
Heartbeat CPU 0 instructions: 80000002 cycles: 42574636 heartbeat IPC: 1.241 cumulative IPC: 1.515 (Simulation time: 00 hr 04 min 05 sec)
Heartbeat CPU 0 instructions: 90000000 cycles: 46906323 heartbeat IPC: 2.309 cumulative IPC: 1.6 (Simulation time: 00 hr 04 min 34 sec)
*** Reached end of trace: (0, "../traces/public_traces/srv/srv_58.champsimtrace.xz")
Heartbeat CPU 0 instructions: 100000003 cycles: 53415930 heartbeat IPC: 1.536 cumulative IPC: 1.591 (Simulation time: 00 hr 05 min 09 sec)
Heartbeat CPU 0 instructions: 110000002 cycles: 61615619 heartbeat IPC: 1.22 cumulative IPC: 1.536 (Simulation time: 00 hr 05 min 48 sec)
Heartbeat CPU 0 instructions: 120000000 cycles: 66425098 heartbeat IPC: 2.079 cumulative IPC: 1.58 (Simulation time: 00 hr 06 min 19 sec)
*** Reached end of trace: (0, "../traces/public_traces/srv/srv_58.champsimtrace.xz")
Simulation finished CPU 0 instructions: 100000001 cycles: 62042587 cumulative IPC: 1.612 (Simulation time: 00 hr 06 min 33 sec)
Simulation complete CPU 0 instructions: 100000001 cycles: 62042587 cumulative IPC: 1.612 (Simulation time: 00 hr 06 min 33 sec)

ChampSim completed all CPUs

=== Simulation ===
CPU 0 runs ../traces/public_traces/srv/srv_58.champsimtrace.xz
Region of Interest Statistics

CPU 0 cumulative IPC: 1.612 instructions: 100000001 cycles: 62042587
CPU 0 Branch Prediction Accuracy: 91.96% MPKI: 16.07 Average ROB Occupancy at Mispredict: 13.06
Branch type MPKI
BRANCH_DIRECT_JUMP: 0.167
BRANCH_INDIRECT: 8.13
BRANCH_CONDITIONAL: 5.82
BRANCH_DIRECT_CALL: 0.349
BRANCH_INDIRECT_CALL: 1.34
BRANCH_RETURN: 0.267

LLC TOTAL        ACCESS:     310222 HIT:     310054 MISS:        168
LLC LOAD         ACCESS:     204216 HIT:     204137 MISS:         79
LLC RFO          ACCESS:      44177 HIT:      44177 MISS:          0
LLC PREFETCH     ACCESS:          0 HIT:          0 MISS:          0
LLC WRITE        ACCESS:      61508 HIT:      61508 MISS:          0
LLC TRANSLATION  ACCESS:        321 HIT:        232 MISS:         89
LLC PREFETCH REQUESTED:          0 ISSUED:          0 USEFUL:          0 USELESS:          0
LLC AVERAGE MISS LATENCY: 114.6 cycles
cpu0_DTLB TOTAL        ACCESS:   25313293 HIT:   24934271 MISS:     379022
cpu0_DTLB LOAD         ACCESS:   25313293 HIT:   24934271 MISS:     379022
cpu0_DTLB RFO          ACCESS:          0 HIT:          0 MISS:          0
cpu0_DTLB PREFETCH     ACCESS:          0 HIT:          0 MISS:          0
cpu0_DTLB WRITE        ACCESS:          0 HIT:          0 MISS:          0
cpu0_DTLB TRANSLATION  ACCESS:          0 HIT:          0 MISS:          0
cpu0_DTLB PREFETCH REQUESTED:          0 ISSUED:          0 USEFUL:          0 USELESS:          0
cpu0_DTLB AVERAGE MISS LATENCY: 6.311 cycles
cpu0_ITLB TOTAL        ACCESS:    6620277 HIT:    6097127 MISS:     523150
cpu0_ITLB LOAD         ACCESS:    6620277 HIT:    6097127 MISS:     523150
cpu0_ITLB RFO          ACCESS:          0 HIT:          0 MISS:          0
cpu0_ITLB PREFETCH     ACCESS:          0 HIT:          0 MISS:          0
cpu0_ITLB WRITE        ACCESS:          0 HIT:          0 MISS:          0
cpu0_ITLB TRANSLATION  ACCESS:          0 HIT:          0 MISS:          0
cpu0_ITLB PREFETCH REQUESTED:          0 ISSUED:          0 USEFUL:          0 USELESS:          0
cpu0_ITLB AVERAGE MISS LATENCY: 2.582 cycles
cpu0_L1D TOTAL        ACCESS:   34046861 HIT:   33333937 MISS:     712924
cpu0_L1D LOAD         ACCESS:   23464572 HIT:   23070347 MISS:     394225
cpu0_L1D RFO          ACCESS:          0 HIT:          0 MISS:          0
cpu0_L1D PREFETCH     ACCESS:          0 HIT:          0 MISS:          0
cpu0_L1D WRITE        ACCESS:   10581950 HIT:   10263587 MISS:     318363
cpu0_L1D TRANSLATION  ACCESS:        339 HIT:          3 MISS:        336
cpu0_L1D PREFETCH REQUESTED:          0 ISSUED:          0 USEFUL:          0 USELESS:          0
cpu0_L1D AVERAGE MISS LATENCY: 8.824 cycles
cpu0_L1I TOTAL        ACCESS:    7345045 HIT:    6114400 MISS:    1230645
cpu0_L1I LOAD         ACCESS:    7345045 HIT:    6114400 MISS:    1230645
cpu0_L1I RFO          ACCESS:          0 HIT:          0 MISS:          0
cpu0_L1I PREFETCH     ACCESS:          0 HIT:          0 MISS:          0
cpu0_L1I WRITE        ACCESS:          0 HIT:          0 MISS:          0
cpu0_L1I TRANSLATION  ACCESS:          0 HIT:          0 MISS:          0
cpu0_L1I PREFETCH REQUESTED:          0 ISSUED:          0 USEFUL:          0 USELESS:          0
cpu0_L1I AVERAGE MISS LATENCY: 9.715 cycles
cpu0_L2C TOTAL        ACCESS:    1613579 HIT:    1364147 MISS:     249432
cpu0_L2C LOAD         ACCESS:    1274579 HIT:    1070363 MISS:     204216
cpu0_L2C RFO          ACCESS:     127769 HIT:      83592 MISS:      44177
cpu0_L2C PREFETCH     ACCESS:          0 HIT:          0 MISS:          0
cpu0_L2C WRITE        ACCESS:     210898 HIT:     210180 MISS:        718
cpu0_L2C TRANSLATION  ACCESS:        333 HIT:         12 MISS:        321
cpu0_L2C PREFETCH REQUESTED:          0 ISSUED:          0 USEFUL:          0 USELESS:          0
cpu0_L2C AVERAGE MISS LATENCY: 20.03 cycles
cpu0_STLB TOTAL        ACCESS:     546160 HIT:     545899 MISS:        261
cpu0_STLB LOAD         ACCESS:     546160 HIT:     545899 MISS:        261
cpu0_STLB RFO          ACCESS:          0 HIT:          0 MISS:          0
cpu0_STLB PREFETCH     ACCESS:          0 HIT:          0 MISS:          0
cpu0_STLB WRITE        ACCESS:          0 HIT:          0 MISS:          0
cpu0_STLB TRANSLATION  ACCESS:          0 HIT:          0 MISS:          0
cpu0_STLB PREFETCH REQUESTED:          0 ISSUED:          0 USEFUL:          0 USELESS:          0
cpu0_STLB AVERAGE MISS LATENCY: 117.2 cycles

DRAM Statistics

Channel 0 RQ ROW_BUFFER_HIT:         84
  ROW_BUFFER_MISS:         84
 AVG DBUS CONGESTED CYCLE: 4
WQ ROW_BUFFER_HIT: Channel 0 
  ROW_BUFFER_MISS:          0
  FULL:          0
