WARNING: physical memory size is smaller than virtual memory size.

*** ChampSim Multicore Out-of-Order Simulator ***
Warmup Instructions: 25000000
Simulation Instructions: 100000000
Number of CPUs: 1
Page size: 4096

Off-chip DRAM Size: 4 GiB Channels: 1 Width: 64-bit Data Race: 3200 MT/s
Heartbeat CPU 0 instructions: 10000000 cycles: 2730851 heartbeat IPC: 3.662 cumulative IPC: 3.662 (Simulation time: 00 hr 00 min 23 sec)
Heartbeat CPU 0 instructions: 20000000 cycles: 5466122 heartbeat IPC: 3.656 cumulative IPC: 3.659 (Simulation time: 00 hr 00 min 46 sec)
Warmup finished CPU 0 instructions: 25000000 cycles: 6827690 cumulative IPC: 3.662 (Simulation time: 00 hr 00 min 58 sec)
Warmup complete CPU 0 instructions: 25000000 cycles: 6827690 cumulative IPC: 3.662 (Simulation time: 00 hr 00 min 58 sec)
Heartbeat CPU 0 instructions: 30000001 cycles: 16188277 heartbeat IPC: 0.9326 cumulative IPC: 0.5342 (Simulation time: 00 hr 01 min 38 sec)
*** Reached end of trace: (0, "../traces/public_traces/srv/srv_33.champsimtrace.xz")
Heartbeat CPU 0 instructions: 40000003 cycles: 35090035 heartbeat IPC: 0.5291 cumulative IPC: 0.5307 (Simulation time: 00 hr 02 min 59 sec)
Heartbeat CPU 0 instructions: 50000000 cycles: 54144155 heartbeat IPC: 0.5248 cumulative IPC: 0.5284 (Simulation time: 00 hr 04 min 21 sec)
Heartbeat CPU 0 instructions: 60000002 cycles: 73019560 heartbeat IPC: 0.5298 cumulative IPC: 0.5288 (Simulation time: 00 hr 05 min 42 sec)
*** Reached end of trace: (0, "../traces/public_traces/srv/srv_33.champsimtrace.xz")
Heartbeat CPU 0 instructions: 70000002 cycles: 92076408 heartbeat IPC: 0.5247 cumulative IPC: 0.5279 (Simulation time: 00 hr 07 min 04 sec)
Heartbeat CPU 0 instructions: 80000000 cycles: 110748724 heartbeat IPC: 0.5356 cumulative IPC: 0.5292 (Simulation time: 00 hr 08 min 24 sec)
Heartbeat CPU 0 instructions: 90000004 cycles: 129937961 heartbeat IPC: 0.5211 cumulative IPC: 0.528 (Simulation time: 00 hr 09 min 47 sec)
*** Reached end of trace: (0, "../traces/public_traces/srv/srv_33.champsimtrace.xz")
Heartbeat CPU 0 instructions: 100000001 cycles: 148934268 heartbeat IPC: 0.5264 cumulative IPC: 0.5278 (Simulation time: 00 hr 11 min 08 sec)
Heartbeat CPU 0 instructions: 110000000 cycles: 167585076 heartbeat IPC: 0.5362 cumulative IPC: 0.5287 (Simulation time: 00 hr 12 min 28 sec)
Heartbeat CPU 0 instructions: 120000002 cycles: 186844905 heartbeat IPC: 0.5192 cumulative IPC: 0.5277 (Simulation time: 00 hr 13 min 51 sec)
Simulation finished CPU 0 instructions: 100000000 cycles: 189317924 cumulative IPC: 0.5282 (Simulation time: 00 hr 14 min 31 sec)
Simulation complete CPU 0 instructions: 100000000 cycles: 189317924 cumulative IPC: 0.5282 (Simulation time: 00 hr 14 min 31 sec)

ChampSim completed all CPUs

=== Simulation ===
CPU 0 runs ../traces/public_traces/srv/srv_33.champsimtrace.xz
Region of Interest Statistics

CPU 0 cumulative IPC: 0.5282 instructions: 100000000 cycles: 189317924
CPU 0 Branch Prediction Accuracy: 91.68% MPKI: 12.7 Average ROB Occupancy at Mispredict: 29.64
Branch type MPKI
BRANCH_DIRECT_JUMP: 0.00012
BRANCH_INDIRECT: 8.28
BRANCH_CONDITIONAL: 3.78
BRANCH_DIRECT_CALL: 7e-05
BRANCH_INDIRECT_CALL: 0.629
BRANCH_RETURN: 0.00078

LLC TOTAL        ACCESS:    5257316 HIT:    2962097 MISS:    2295219
LLC LOAD         ACCESS:    1388573 HIT:     616754 MISS:     771819
LLC RFO          ACCESS:    1790013 HIT:     281680 MISS:    1508333
LLC PREFETCH     ACCESS:          0 HIT:          0 MISS:          0
LLC WRITE        ACCESS:    2062698 HIT:    2060077 MISS:       2621
LLC TRANSLATION  ACCESS:      16032 HIT:       3586 MISS:      12446
LLC PREFETCH REQUESTED:          0 ISSUED:          0 USEFUL:          0 USELESS:          0
LLC AVERAGE MISS LATENCY: 649.1 cycles
cpu0_DTLB TOTAL        ACCESS:   25544410 HIT:   24152327 MISS:    1392083
cpu0_DTLB LOAD         ACCESS:   25544410 HIT:   24152327 MISS:    1392083
cpu0_DTLB RFO          ACCESS:          0 HIT:          0 MISS:          0
cpu0_DTLB PREFETCH     ACCESS:          0 HIT:          0 MISS:          0
cpu0_DTLB WRITE        ACCESS:          0 HIT:          0 MISS:          0
cpu0_DTLB TRANSLATION  ACCESS:          0 HIT:          0 MISS:          0
cpu0_DTLB PREFETCH REQUESTED:          0 ISSUED:          0 USEFUL:          0 USELESS:          0
cpu0_DTLB AVERAGE MISS LATENCY: 8.212 cycles
cpu0_ITLB TOTAL        ACCESS:   10239034 HIT:    8192851 MISS:    2046183
cpu0_ITLB LOAD         ACCESS:   10239034 HIT:    8192851 MISS:    2046183
cpu0_ITLB RFO          ACCESS:          0 HIT:          0 MISS:          0
cpu0_ITLB PREFETCH     ACCESS:          0 HIT:          0 MISS:          0
cpu0_ITLB WRITE        ACCESS:          0 HIT:          0 MISS:          0
cpu0_ITLB TRANSLATION  ACCESS:          0 HIT:          0 MISS:          0
cpu0_ITLB PREFETCH REQUESTED:          0 ISSUED:          0 USEFUL:          0 USELESS:          0
cpu0_ITLB AVERAGE MISS LATENCY: 1.763 cycles
cpu0_L1D TOTAL        ACCESS:   34521889 HIT:   22877466 MISS:   11644423
cpu0_L1D LOAD         ACCESS:   17359991 HIT:   13813357 MISS:    3546634
cpu0_L1D RFO          ACCESS:          0 HIT:          0 MISS:          0
cpu0_L1D PREFETCH     ACCESS:          0 HIT:          0 MISS:          0
cpu0_L1D WRITE        ACCESS:   17121570 HIT:    9049952 MISS:    8071618
cpu0_L1D TRANSLATION  ACCESS:      40328 HIT:      14157 MISS:      26171
cpu0_L1D PREFETCH REQUESTED:          0 ISSUED:          0 USEFUL:          0 USELESS:          0
cpu0_L1D AVERAGE MISS LATENCY: 130.4 cycles
cpu0_L1I TOTAL        ACCESS:   11775983 HIT:    4969764 MISS:    6806219
cpu0_L1I LOAD         ACCESS:   11775983 HIT:    4969764 MISS:    6806219
cpu0_L1I RFO          ACCESS:          0 HIT:          0 MISS:          0
cpu0_L1I PREFETCH     ACCESS:          0 HIT:          0 MISS:          0
cpu0_L1I WRITE        ACCESS:          0 HIT:          0 MISS:          0
cpu0_L1I TRANSLATION  ACCESS:          0 HIT:          0 MISS:          0
cpu0_L1I PREFETCH REQUESTED:          0 ISSUED:          0 USEFUL:          0 USELESS:          0
cpu0_L1I AVERAGE MISS LATENCY: 7.511 cycles
cpu0_L2C TOTAL        ACCESS:   10179726 HIT:    6981534 MISS:    3198192
cpu0_L2C LOAD         ACCESS:    6122922 HIT:    4734349 MISS:    1388573
cpu0_L2C RFO          ACCESS:    1844180 HIT:      54167 MISS:    1790013
cpu0_L2C PREFETCH     ACCESS:          0 HIT:          0 MISS:          0
cpu0_L2C WRITE        ACCESS:    2186493 HIT:    2182919 MISS:       3574
cpu0_L2C TRANSLATION  ACCESS:      26131 HIT:      10099 MISS:      16032
cpu0_L2C PREFETCH REQUESTED:          0 ISSUED:          0 USEFUL:          0 USELESS:          0
cpu0_L2C AVERAGE MISS LATENCY: 486.6 cycles
cpu0_STLB TOTAL        ACCESS:    1463321 HIT:    1426419 MISS:      36902
cpu0_STLB LOAD         ACCESS:    1463321 HIT:    1426419 MISS:      36902
cpu0_STLB RFO          ACCESS:          0 HIT:          0 MISS:          0
cpu0_STLB PREFETCH     ACCESS:          0 HIT:          0 MISS:          0
cpu0_STLB WRITE        ACCESS:          0 HIT:          0 MISS:          0
cpu0_STLB TRANSLATION  ACCESS:          0 HIT:          0 MISS:          0
cpu0_STLB PREFETCH REQUESTED:          0 ISSUED:          0 USEFUL:          0 USELESS:          0
cpu0_STLB AVERAGE MISS LATENCY: 214.9 cycles

DRAM Statistics

Channel 0 RQ ROW_BUFFER_HIT:     849281
  ROW_BUFFER_MISS:    1442754
 AVG DBUS CONGESTED CYCLE: 3.978
WQ ROW_BUFFER_HIT: Channel 0 
  ROW_BUFFER_MISS:     162483
  FULL:    1458987
