WARNING: physical memory size is smaller than virtual memory size.

*** ChampSim Multicore Out-of-Order Simulator ***
Warmup Instructions: 25000000
Simulation Instructions: 100000000
Number of CPUs: 1
Page size: 4096

Off-chip DRAM Size: 4 GiB Channels: 1 Width: 64-bit Data Race: 3200 MT/s
Heartbeat CPU 0 instructions: 10000001 cycles: 2738288 heartbeat IPC: 3.652 cumulative IPC: 3.652 (Simulation time: 00 hr 00 min 23 sec)
Heartbeat CPU 0 instructions: 20000000 cycles: 5466568 heartbeat IPC: 3.665 cumulative IPC: 3.659 (Simulation time: 00 hr 00 min 46 sec)
Warmup finished CPU 0 instructions: 25000001 cycles: 6829516 cumulative IPC: 3.661 (Simulation time: 00 hr 00 min 58 sec)
Warmup complete CPU 0 instructions: 25000001 cycles: 6829516 cumulative IPC: 3.661 (Simulation time: 00 hr 00 min 58 sec)
Heartbeat CPU 0 instructions: 30000004 cycles: 16063791 heartbeat IPC: 0.9436 cumulative IPC: 0.5415 (Simulation time: 00 hr 01 min 37 sec)
*** Reached end of trace: (0, "../traces/public_traces/srv/srv_37.champsimtrace.xz")
Heartbeat CPU 0 instructions: 40000004 cycles: 35107407 heartbeat IPC: 0.5251 cumulative IPC: 0.5304 (Simulation time: 00 hr 02 min 59 sec)
Heartbeat CPU 0 instructions: 50000001 cycles: 54114297 heartbeat IPC: 0.5261 cumulative IPC: 0.5287 (Simulation time: 00 hr 04 min 21 sec)
Heartbeat CPU 0 instructions: 60000003 cycles: 73056983 heartbeat IPC: 0.5279 cumulative IPC: 0.5285 (Simulation time: 00 hr 05 min 43 sec)
*** Reached end of trace: (0, "../traces/public_traces/srv/srv_37.champsimtrace.xz")
Heartbeat CPU 0 instructions: 70000002 cycles: 91752071 heartbeat IPC: 0.5349 cumulative IPC: 0.5299 (Simulation time: 00 hr 07 min 03 sec)
Heartbeat CPU 0 instructions: 80000004 cycles: 110998307 heartbeat IPC: 0.5196 cumulative IPC: 0.528 (Simulation time: 00 hr 08 min 26 sec)
Heartbeat CPU 0 instructions: 90000004 cycles: 129980777 heartbeat IPC: 0.5268 cumulative IPC: 0.5278 (Simulation time: 00 hr 09 min 48 sec)
*** Reached end of trace: (0, "../traces/public_traces/srv/srv_37.champsimtrace.xz")
Heartbeat CPU 0 instructions: 100000004 cycles: 148794037 heartbeat IPC: 0.5315 cumulative IPC: 0.5283 (Simulation time: 00 hr 11 min 09 sec)
Heartbeat CPU 0 instructions: 110000002 cycles: 168081488 heartbeat IPC: 0.5185 cumulative IPC: 0.5271 (Simulation time: 00 hr 12 min 32 sec)
Heartbeat CPU 0 instructions: 120000001 cycles: 187113251 heartbeat IPC: 0.5254 cumulative IPC: 0.5269 (Simulation time: 00 hr 13 min 53 sec)
Simulation finished CPU 0 instructions: 100000001 cycles: 189615400 cumulative IPC: 0.5274 (Simulation time: 00 hr 14 min 33 sec)
Simulation complete CPU 0 instructions: 100000001 cycles: 189615400 cumulative IPC: 0.5274 (Simulation time: 00 hr 14 min 33 sec)

ChampSim completed all CPUs

=== Simulation ===
CPU 0 runs ../traces/public_traces/srv/srv_37.champsimtrace.xz
Region of Interest Statistics

CPU 0 cumulative IPC: 0.5274 instructions: 100000001 cycles: 189615400
CPU 0 Branch Prediction Accuracy: 91.57% MPKI: 12.91 Average ROB Occupancy at Mispredict: 29.02
Branch type MPKI
BRANCH_DIRECT_JUMP: 0.00053
BRANCH_INDIRECT: 8.41
BRANCH_CONDITIONAL: 3.86
BRANCH_DIRECT_CALL: 0.00152
BRANCH_INDIRECT_CALL: 0.636
BRANCH_RETURN: 0.00238

LLC TOTAL        ACCESS:    5253399 HIT:    2969507 MISS:    2283892
LLC LOAD         ACCESS:    1392396 HIT:     622517 MISS:     769879
LLC RFO          ACCESS:    1784775 HIT:     291327 MISS:    1493448
LLC PREFETCH     ACCESS:          0 HIT:          0 MISS:          0
LLC WRITE        ACCESS:    2055386 HIT:    2052132 MISS:       3254
LLC TRANSLATION  ACCESS:      20842 HIT:       3531 MISS:      17311
LLC PREFETCH REQUESTED:          0 ISSUED:          0 USEFUL:          0 USELESS:          0
LLC AVERAGE MISS LATENCY: 637.7 cycles
cpu0_DTLB TOTAL        ACCESS:   25484544 HIT:   24077356 MISS:    1407188
cpu0_DTLB LOAD         ACCESS:   25484544 HIT:   24077356 MISS:    1407188
cpu0_DTLB RFO          ACCESS:          0 HIT:          0 MISS:          0
cpu0_DTLB PREFETCH     ACCESS:          0 HIT:          0 MISS:          0
cpu0_DTLB WRITE        ACCESS:          0 HIT:          0 MISS:          0
cpu0_DTLB TRANSLATION  ACCESS:          0 HIT:          0 MISS:          0
cpu0_DTLB PREFETCH REQUESTED:          0 ISSUED:          0 USEFUL:          0 USELESS:          0
cpu0_DTLB AVERAGE MISS LATENCY: 9.111 cycles
cpu0_ITLB TOTAL        ACCESS:   10183940 HIT:    8149331 MISS:    2034609
cpu0_ITLB LOAD         ACCESS:   10183940 HIT:    8149331 MISS:    2034609
cpu0_ITLB RFO          ACCESS:          0 HIT:          0 MISS:          0
cpu0_ITLB PREFETCH     ACCESS:          0 HIT:          0 MISS:          0
cpu0_ITLB WRITE        ACCESS:          0 HIT:          0 MISS:          0
cpu0_ITLB TRANSLATION  ACCESS:          0 HIT:          0 MISS:          0
cpu0_ITLB PREFETCH REQUESTED:          0 ISSUED:          0 USEFUL:          0 USELESS:          0
cpu0_ITLB AVERAGE MISS LATENCY: 1.812 cycles
cpu0_L1D TOTAL        ACCESS:   34442766 HIT:   22809714 MISS:   11633052
cpu0_L1D LOAD         ACCESS:   17329799 HIT:   13773322 MISS:    3556477
cpu0_L1D RFO          ACCESS:          0 HIT:          0 MISS:          0
cpu0_L1D PREFETCH     ACCESS:          0 HIT:          0 MISS:          0
cpu0_L1D WRITE        ACCESS:   17066855 HIT:    9021791 MISS:    8045064
cpu0_L1D TRANSLATION  ACCESS:      46112 HIT:      14601 MISS:      31511
cpu0_L1D PREFETCH REQUESTED:          0 ISSUED:          0 USEFUL:          0 USELESS:          0
cpu0_L1D AVERAGE MISS LATENCY: 127.8 cycles
cpu0_L1I TOTAL        ACCESS:   11710976 HIT:    4955746 MISS:    6755230
cpu0_L1I LOAD         ACCESS:   11710976 HIT:    4955746 MISS:    6755230
cpu0_L1I RFO          ACCESS:          0 HIT:          0 MISS:          0
cpu0_L1I PREFETCH     ACCESS:          0 HIT:          0 MISS:          0
cpu0_L1I WRITE        ACCESS:          0 HIT:          0 MISS:          0
cpu0_L1I TRANSLATION  ACCESS:          0 HIT:          0 MISS:          0
cpu0_L1I PREFETCH REQUESTED:          0 ISSUED:          0 USEFUL:          0 USELESS:          0
cpu0_L1I AVERAGE MISS LATENCY: 7.782 cycles
cpu0_L2C TOTAL        ACCESS:   10170101 HIT:    6967821 MISS:    3202280
cpu0_L2C LOAD         ACCESS:    6111434 HIT:    4719036 MISS:    1392398
cpu0_L2C RFO          ACCESS:    1842446 HIT:      57668 MISS:    1784778
cpu0_L2C PREFETCH     ACCESS:          0 HIT:          0 MISS:          0
cpu0_L2C WRITE        ACCESS:    2184829 HIT:    2180567 MISS:       4262
cpu0_L2C TRANSLATION  ACCESS:      31392 HIT:      10550 MISS:      20842
cpu0_L2C PREFETCH REQUESTED:          0 ISSUED:          0 USEFUL:          0 USELESS:          0
cpu0_L2C AVERAGE MISS LATENCY: 475.5 cycles
cpu0_STLB TOTAL        ACCESS:    1469339 HIT:    1428688 MISS:      40651
cpu0_STLB LOAD         ACCESS:    1469339 HIT:    1428688 MISS:      40651
cpu0_STLB RFO          ACCESS:          0 HIT:          0 MISS:          0
cpu0_STLB PREFETCH     ACCESS:          0 HIT:          0 MISS:          0
cpu0_STLB WRITE        ACCESS:          0 HIT:          0 MISS:          0
cpu0_STLB TRANSLATION  ACCESS:          0 HIT:          0 MISS:          0
cpu0_STLB PREFETCH REQUESTED:          0 ISSUED:          0 USEFUL:          0 USELESS:          0
cpu0_STLB AVERAGE MISS LATENCY: 230 cycles

DRAM Statistics

Channel 0 RQ ROW_BUFFER_HIT:     855487
  ROW_BUFFER_MISS:    1424515
 AVG DBUS CONGESTED CYCLE: 3.978
WQ ROW_BUFFER_HIT: Channel 0 
  ROW_BUFFER_MISS:     163719
  FULL:    1445080
