WARNING: physical memory size is smaller than virtual memory size.

*** ChampSim Multicore Out-of-Order Simulator ***
Warmup Instructions: 25000000
Simulation Instructions: 100000000
Number of CPUs: 1
Page size: 4096

Off-chip DRAM Size: 4 GiB Channels: 1 Width: 64-bit Data Race: 3200 MT/s
Heartbeat CPU 0 instructions: 10000000 cycles: 2500189 heartbeat IPC: 4 cumulative IPC: 4 (Simulation time: 00 hr 00 min 22 sec)
Heartbeat CPU 0 instructions: 20000001 cycles: 5000219 heartbeat IPC: 4 cumulative IPC: 4 (Simulation time: 00 hr 00 min 44 sec)
Warmup finished CPU 0 instructions: 25000001 cycles: 6250220 cumulative IPC: 4 (Simulation time: 00 hr 00 min 55 sec)
Warmup complete CPU 0 instructions: 25000001 cycles: 6250220 cumulative IPC: 4 (Simulation time: 00 hr 00 min 55 sec)
Heartbeat CPU 0 instructions: 30000000 cycles: 14880468 heartbeat IPC: 1.012 cumulative IPC: 0.5794 (Simulation time: 00 hr 01 min 28 sec)
*** Reached end of trace: (0, "../traces/public_traces/srv/srv_21.champsimtrace.xz")
Heartbeat CPU 0 instructions: 40000004 cycles: 31815274 heartbeat IPC: 0.5905 cumulative IPC: 0.5867 (Simulation time: 00 hr 02 min 33 sec)
Heartbeat CPU 0 instructions: 50000002 cycles: 48761837 heartbeat IPC: 0.5901 cumulative IPC: 0.5881 (Simulation time: 00 hr 03 min 39 sec)
Heartbeat CPU 0 instructions: 60000000 cycles: 65602312 heartbeat IPC: 0.5938 cumulative IPC: 0.5897 (Simulation time: 00 hr 04 min 43 sec)
*** Reached end of trace: (0, "../traces/public_traces/srv/srv_21.champsimtrace.xz")
Heartbeat CPU 0 instructions: 70000000 cycles: 82544866 heartbeat IPC: 0.5902 cumulative IPC: 0.5898 (Simulation time: 00 hr 05 min 48 sec)
Heartbeat CPU 0 instructions: 80000000 cycles: 99491649 heartbeat IPC: 0.5901 cumulative IPC: 0.5899 (Simulation time: 00 hr 06 min 54 sec)
Heartbeat CPU 0 instructions: 90000002 cycles: 116333537 heartbeat IPC: 0.5938 cumulative IPC: 0.5905 (Simulation time: 00 hr 07 min 58 sec)
*** Reached end of trace: (0, "../traces/public_traces/srv/srv_21.champsimtrace.xz")
Heartbeat CPU 0 instructions: 100000004 cycles: 133274691 heartbeat IPC: 0.5903 cumulative IPC: 0.5904 (Simulation time: 00 hr 09 min 03 sec)
Heartbeat CPU 0 instructions: 110000001 cycles: 150165388 heartbeat IPC: 0.592 cumulative IPC: 0.5906 (Simulation time: 00 hr 10 min 08 sec)
Heartbeat CPU 0 instructions: 120000001 cycles: 167050088 heartbeat IPC: 0.5923 cumulative IPC: 0.5908 (Simulation time: 00 hr 11 min 13 sec)
*** Reached end of trace: (0, "../traces/public_traces/srv/srv_21.champsimtrace.xz")
Simulation finished CPU 0 instructions: 100000003 cycles: 169295776 cumulative IPC: 0.5907 (Simulation time: 00 hr 11 min 46 sec)
Simulation complete CPU 0 instructions: 100000003 cycles: 169295776 cumulative IPC: 0.5907 (Simulation time: 00 hr 11 min 46 sec)

ChampSim completed all CPUs

=== Simulation ===
CPU 0 runs ../traces/public_traces/srv/srv_21.champsimtrace.xz
Region of Interest Statistics

CPU 0 cumulative IPC: 0.5907 instructions: 100000003 cycles: 169295776
CPU 0 Branch Prediction Accuracy: 67.14% MPKI: 57.75 Average ROB Occupancy at Mispredict: 3.659
Branch type MPKI
BRANCH_DIRECT_JUMP: 1.1
BRANCH_INDIRECT: 38.7
BRANCH_CONDITIONAL: 10.9
BRANCH_DIRECT_CALL: 2.96
BRANCH_INDIRECT_CALL: 2.27
BRANCH_RETURN: 1.84

LLC TOTAL        ACCESS:    1040219 HIT:    1025455 MISS:      14764
LLC LOAD         ACCESS:     722287 HIT:     714562 MISS:       7725
LLC RFO          ACCESS:     128905 HIT:     122419 MISS:       6486
LLC PREFETCH     ACCESS:          0 HIT:          0 MISS:          0
LLC WRITE        ACCESS:     185536 HIT:     185488 MISS:         48
LLC TRANSLATION  ACCESS:       3491 HIT:       2986 MISS:        505
LLC PREFETCH REQUESTED:          0 ISSUED:          0 USEFUL:          0 USELESS:          0
LLC AVERAGE MISS LATENCY: 171.4 cycles
cpu0_DTLB TOTAL        ACCESS:   27644730 HIT:   26583138 MISS:    1061592
cpu0_DTLB LOAD         ACCESS:   27644730 HIT:   26583138 MISS:    1061592
cpu0_DTLB RFO          ACCESS:          0 HIT:          0 MISS:          0
cpu0_DTLB PREFETCH     ACCESS:          0 HIT:          0 MISS:          0
cpu0_DTLB WRITE        ACCESS:          0 HIT:          0 MISS:          0
cpu0_DTLB TRANSLATION  ACCESS:          0 HIT:          0 MISS:          0
cpu0_DTLB PREFETCH REQUESTED:          0 ISSUED:          0 USEFUL:          0 USELESS:          0
cpu0_DTLB AVERAGE MISS LATENCY: 6.706 cycles
cpu0_ITLB TOTAL        ACCESS:   10725131 HIT:    8812160 MISS:    1912971
cpu0_ITLB LOAD         ACCESS:   10725131 HIT:    8812160 MISS:    1912971
cpu0_ITLB RFO          ACCESS:          0 HIT:          0 MISS:          0
cpu0_ITLB PREFETCH     ACCESS:          0 HIT:          0 MISS:          0
cpu0_ITLB WRITE        ACCESS:          0 HIT:          0 MISS:          0
cpu0_ITLB TRANSLATION  ACCESS:          0 HIT:          0 MISS:          0
cpu0_ITLB PREFETCH REQUESTED:          0 ISSUED:          0 USEFUL:          0 USELESS:          0
cpu0_ITLB AVERAGE MISS LATENCY: 3.148 cycles
cpu0_L1D TOTAL        ACCESS:   34586458 HIT:   31307881 MISS:    3278577
cpu0_L1D LOAD         ACCESS:   21122536 HIT:   19439340 MISS:    1683196
cpu0_L1D RFO          ACCESS:          0 HIT:          0 MISS:          0
cpu0_L1D PREFETCH     ACCESS:          0 HIT:          0 MISS:          0
cpu0_L1D WRITE        ACCESS:   13459071 HIT:   11868277 MISS:    1590794
cpu0_L1D TRANSLATION  ACCESS:       4851 HIT:        264 MISS:       4587
cpu0_L1D PREFETCH REQUESTED:          0 ISSUED:          0 USEFUL:          0 USELESS:          0
cpu0_L1D AVERAGE MISS LATENCY: 8.645 cycles
cpu0_L1I TOTAL        ACCESS:   12033653 HIT:    5449464 MISS:    6584189
cpu0_L1I LOAD         ACCESS:   12033653 HIT:    5449464 MISS:    6584189
cpu0_L1I RFO          ACCESS:          0 HIT:          0 MISS:          0
cpu0_L1I PREFETCH     ACCESS:          0 HIT:          0 MISS:          0
cpu0_L1I WRITE        ACCESS:          0 HIT:          0 MISS:          0
cpu0_L1I TRANSLATION  ACCESS:          0 HIT:          0 MISS:          0
cpu0_L1I PREFETCH REQUESTED:          0 ISSUED:          0 USEFUL:          0 USELESS:          0
cpu0_L1I AVERAGE MISS LATENCY: 9.493 cycles
cpu0_L2C TOTAL        ACCESS:    8286920 HIT:    7424978 MISS:     861942
cpu0_L2C LOAD         ACCESS:    6735147 HIT:    6012860 MISS:     722287
cpu0_L2C RFO          ACCESS:     561786 HIT:     432881 MISS:     128905
cpu0_L2C PREFETCH     ACCESS:          0 HIT:          0 MISS:          0
cpu0_L2C WRITE        ACCESS:     985400 HIT:     978141 MISS:       7259
cpu0_L2C TRANSLATION  ACCESS:       4587 HIT:       1096 MISS:       3491
cpu0_L2C PREFETCH REQUESTED:          0 ISSUED:          0 USEFUL:          0 USELESS:          0
cpu0_L2C AVERAGE MISS LATENCY: 22.79 cycles
cpu0_STLB TOTAL        ACCESS:    1852215 HIT:    1847639 MISS:       4576
cpu0_STLB LOAD         ACCESS:    1852215 HIT:    1847639 MISS:       4576
cpu0_STLB RFO          ACCESS:          0 HIT:          0 MISS:          0
cpu0_STLB PREFETCH     ACCESS:          0 HIT:          0 MISS:          0
cpu0_STLB WRITE        ACCESS:          0 HIT:          0 MISS:          0
cpu0_STLB TRANSLATION  ACCESS:          0 HIT:          0 MISS:          0
cpu0_STLB PREFETCH REQUESTED:          0 ISSUED:          0 USEFUL:          0 USELESS:          0
cpu0_STLB AVERAGE MISS LATENCY: 60.64 cycles

DRAM Statistics

Channel 0 RQ ROW_BUFFER_HIT:       6366
  ROW_BUFFER_MISS:       8350
 AVG DBUS CONGESTED CYCLE: 3.921
WQ ROW_BUFFER_HIT: Channel 0 
  ROW_BUFFER_MISS:        450
  FULL:       4121
