WARNING: physical memory size is smaller than virtual memory size.

*** ChampSim Multicore Out-of-Order Simulator ***
Warmup Instructions: 25000000
Simulation Instructions: 100000000
Number of CPUs: 1
Page size: 4096

Off-chip DRAM Size: 4 GiB Channels: 1 Width: 64-bit Data Race: 3200 MT/s
Heartbeat CPU 0 instructions: 10000002 cycles: 2504078 heartbeat IPC: 3.993 cumulative IPC: 3.993 (Simulation time: 00 hr 00 min 21 sec)
Heartbeat CPU 0 instructions: 20000002 cycles: 5008143 heartbeat IPC: 3.994 cumulative IPC: 3.993 (Simulation time: 00 hr 00 min 42 sec)
Warmup finished CPU 0 instructions: 25000001 cycles: 6260353 cumulative IPC: 3.993 (Simulation time: 00 hr 00 min 53 sec)
Warmup complete CPU 0 instructions: 25000001 cycles: 6260353 cumulative IPC: 3.993 (Simulation time: 00 hr 00 min 53 sec)
Heartbeat CPU 0 instructions: 30000004 cycles: 9423307 heartbeat IPC: 2.265 cumulative IPC: 1.581 (Simulation time: 00 hr 01 min 10 sec)
*** Reached end of trace: (0, "../traces/public_traces/srv/srv_31.champsimtrace.xz")
Heartbeat CPU 0 instructions: 40000000 cycles: 15870045 heartbeat IPC: 1.551 cumulative IPC: 1.561 (Simulation time: 00 hr 01 min 47 sec)
Heartbeat CPU 0 instructions: 50000002 cycles: 22039850 heartbeat IPC: 1.621 cumulative IPC: 1.584 (Simulation time: 00 hr 02 min 23 sec)
Heartbeat CPU 0 instructions: 60000000 cycles: 28404822 heartbeat IPC: 1.571 cumulative IPC: 1.581 (Simulation time: 00 hr 02 min 59 sec)
*** Reached end of trace: (0, "../traces/public_traces/srv/srv_31.champsimtrace.xz")
Heartbeat CPU 0 instructions: 70000004 cycles: 34840505 heartbeat IPC: 1.554 cumulative IPC: 1.575 (Simulation time: 00 hr 03 min 35 sec)
Heartbeat CPU 0 instructions: 80000003 cycles: 41002976 heartbeat IPC: 1.623 cumulative IPC: 1.583 (Simulation time: 00 hr 04 min 11 sec)
Heartbeat CPU 0 instructions: 90000001 cycles: 47352967 heartbeat IPC: 1.575 cumulative IPC: 1.582 (Simulation time: 00 hr 04 min 47 sec)
*** Reached end of trace: (0, "../traces/public_traces/srv/srv_31.champsimtrace.xz")
Heartbeat CPU 0 instructions: 100000000 cycles: 53634684 heartbeat IPC: 1.592 cumulative IPC: 1.583 (Simulation time: 00 hr 05 min 23 sec)
Heartbeat CPU 0 instructions: 110000002 cycles: 59752232 heartbeat IPC: 1.635 cumulative IPC: 1.589 (Simulation time: 00 hr 05 min 59 sec)
Heartbeat CPU 0 instructions: 120000002 cycles: 66336388 heartbeat IPC: 1.519 cumulative IPC: 1.581 (Simulation time: 00 hr 06 min 36 sec)
Simulation finished CPU 0 instructions: 100000003 cycles: 63084519 cumulative IPC: 1.585 (Simulation time: 00 hr 06 min 53 sec)
Simulation complete CPU 0 instructions: 100000003 cycles: 63084519 cumulative IPC: 1.585 (Simulation time: 00 hr 06 min 53 sec)

ChampSim completed all CPUs

=== Simulation ===
CPU 0 runs ../traces/public_traces/srv/srv_31.champsimtrace.xz
Region of Interest Statistics

CPU 0 cumulative IPC: 1.585 instructions: 100000003 cycles: 63084519
CPU 0 Branch Prediction Accuracy: 95.01% MPKI: 9.112 Average ROB Occupancy at Mispredict: 45.89
Branch type MPKI
BRANCH_DIRECT_JUMP: 1e-05
BRANCH_INDIRECT: 4.92
BRANCH_CONDITIONAL: 3.84
BRANCH_DIRECT_CALL: 2e-05
BRANCH_INDIRECT_CALL: 0.349
BRANCH_RETURN: 0.00019

LLC TOTAL        ACCESS:     341729 HIT:     163479 MISS:     178250
LLC LOAD         ACCESS:     178255 HIT:      59416 MISS:     118839
LLC RFO          ACCESS:      54706 HIT:      20308 MISS:      34398
LLC PREFETCH     ACCESS:          0 HIT:          0 MISS:          0
LLC WRITE        ACCESS:      75057 HIT:      74874 MISS:        183
LLC TRANSLATION  ACCESS:      33711 HIT:       8881 MISS:      24830
LLC PREFETCH REQUESTED:          0 ISSUED:          0 USEFUL:          0 USELESS:          0
LLC AVERAGE MISS LATENCY: 196.2 cycles
cpu0_DTLB TOTAL        ACCESS:   23630328 HIT:   22176387 MISS:    1453941
cpu0_DTLB LOAD         ACCESS:   23630328 HIT:   22176387 MISS:    1453941
cpu0_DTLB RFO          ACCESS:          0 HIT:          0 MISS:          0
cpu0_DTLB PREFETCH     ACCESS:          0 HIT:          0 MISS:          0
cpu0_DTLB WRITE        ACCESS:          0 HIT:          0 MISS:          0
cpu0_DTLB TRANSLATION  ACCESS:          0 HIT:          0 MISS:          0
cpu0_DTLB PREFETCH REQUESTED:          0 ISSUED:          0 USEFUL:          0 USELESS:          0
cpu0_DTLB AVERAGE MISS LATENCY: 7.838 cycles
cpu0_ITLB TOTAL        ACCESS:    8634203 HIT:    8499662 MISS:     134541
cpu0_ITLB LOAD         ACCESS:    8634203 HIT:    8499662 MISS:     134541
cpu0_ITLB RFO          ACCESS:          0 HIT:          0 MISS:          0
cpu0_ITLB PREFETCH     ACCESS:          0 HIT:          0 MISS:          0
cpu0_ITLB WRITE        ACCESS:          0 HIT:          0 MISS:          0
cpu0_ITLB TRANSLATION  ACCESS:          0 HIT:          0 MISS:          0
cpu0_ITLB PREFETCH REQUESTED:          0 ISSUED:          0 USEFUL:          0 USELESS:          0
cpu0_ITLB AVERAGE MISS LATENCY: 3.129 cycles
cpu0_L1D TOTAL        ACCESS:   31021586 HIT:   30224085 MISS:     797501
cpu0_L1D LOAD         ACCESS:   18894342 HIT:   18460885 MISS:     433457
cpu0_L1D RFO          ACCESS:          0 HIT:          0 MISS:          0
cpu0_L1D PREFETCH     ACCESS:          0 HIT:          0 MISS:          0
cpu0_L1D WRITE        ACCESS:   12066486 HIT:   11755350 MISS:     311136
cpu0_L1D TRANSLATION  ACCESS:      60758 HIT:       7850 MISS:      52908
cpu0_L1D PREFETCH REQUESTED:          0 ISSUED:          0 USEFUL:          0 USELESS:          0
cpu0_L1D AVERAGE MISS LATENCY: 51.41 cycles
cpu0_L1I TOTAL        ACCESS:    9563197 HIT:    9106715 MISS:     456482
cpu0_L1I LOAD         ACCESS:    9563197 HIT:    9106715 MISS:     456482
cpu0_L1I RFO          ACCESS:          0 HIT:          0 MISS:          0
cpu0_L1I PREFETCH     ACCESS:          0 HIT:          0 MISS:          0
cpu0_L1I WRITE        ACCESS:          0 HIT:          0 MISS:          0
cpu0_L1I TRANSLATION  ACCESS:          0 HIT:          0 MISS:          0
cpu0_L1I PREFETCH REQUESTED:          0 ISSUED:          0 USEFUL:          0 USELESS:          0
cpu0_L1I AVERAGE MISS LATENCY: 8.349 cycles
cpu0_L2C TOTAL        ACCESS:     689883 HIT:     422508 MISS:     267375
cpu0_L2C LOAD         ACCESS:     493938 HIT:     315683 MISS:     178255
cpu0_L2C RFO          ACCESS:      59583 HIT:       4877 MISS:      54706
cpu0_L2C PREFETCH     ACCESS:          0 HIT:          0 MISS:          0
cpu0_L2C WRITE        ACCESS:      83638 HIT:      82935 MISS:        703
cpu0_L2C TRANSLATION  ACCESS:      52724 HIT:      19013 MISS:      33711
cpu0_L2C PREFETCH REQUESTED:          0 ISSUED:          0 USEFUL:          0 USELESS:          0
cpu0_L2C AVERAGE MISS LATENCY: 151.5 cycles
cpu0_STLB TOTAL        ACCESS:     946989 HIT:     903998 MISS:      42991
cpu0_STLB LOAD         ACCESS:     946989 HIT:     903998 MISS:      42991
cpu0_STLB RFO          ACCESS:          0 HIT:          0 MISS:          0
cpu0_STLB PREFETCH     ACCESS:          0 HIT:          0 MISS:          0
cpu0_STLB WRITE        ACCESS:          0 HIT:          0 MISS:          0
cpu0_STLB TRANSLATION  ACCESS:          0 HIT:          0 MISS:          0
cpu0_STLB PREFETCH REQUESTED:          0 ISSUED:          0 USEFUL:          0 USELESS:          0
cpu0_STLB AVERAGE MISS LATENCY: 139.1 cycles

DRAM Statistics

Channel 0 RQ ROW_BUFFER_HIT:      44213
  ROW_BUFFER_MISS:     133837
 AVG DBUS CONGESTED CYCLE: 3.926
WQ ROW_BUFFER_HIT: Channel 0 
  ROW_BUFFER_MISS:      13617
  FULL:      30210
