WARNING: physical memory size is smaller than virtual memory size.

*** ChampSim Multicore Out-of-Order Simulator ***
Warmup Instructions: 25000000
Simulation Instructions: 100000000
Number of CPUs: 1
Page size: 4096

Off-chip DRAM Size: 4 GiB Channels: 1 Width: 64-bit Data Race: 3200 MT/s
Heartbeat CPU 0 instructions: 10000000 cycles: 2500184 heartbeat IPC: 4 cumulative IPC: 4 (Simulation time: 00 hr 00 min 21 sec)
Heartbeat CPU 0 instructions: 20000001 cycles: 5000221 heartbeat IPC: 4 cumulative IPC: 4 (Simulation time: 00 hr 00 min 42 sec)
Warmup finished CPU 0 instructions: 25000001 cycles: 6250230 cumulative IPC: 4 (Simulation time: 00 hr 00 min 53 sec)
Warmup complete CPU 0 instructions: 25000001 cycles: 6250230 cumulative IPC: 4 (Simulation time: 00 hr 00 min 53 sec)
Heartbeat CPU 0 instructions: 30000002 cycles: 13016530 heartbeat IPC: 1.247 cumulative IPC: 0.739 (Simulation time: 00 hr 01 min 20 sec)
*** Reached end of trace: (0, "../traces/public_traces/srv/srv_2.champsimtrace.xz")
Heartbeat CPU 0 instructions: 40000004 cycles: 25493742 heartbeat IPC: 0.8015 cumulative IPC: 0.7795 (Simulation time: 00 hr 02 min 12 sec)
Heartbeat CPU 0 instructions: 50000001 cycles: 37150102 heartbeat IPC: 0.8579 cumulative IPC: 0.8091 (Simulation time: 00 hr 03 min 03 sec)
Heartbeat CPU 0 instructions: 60000001 cycles: 49834748 heartbeat IPC: 0.7884 cumulative IPC: 0.803 (Simulation time: 00 hr 03 min 57 sec)
*** Reached end of trace: (0, "../traces/public_traces/srv/srv_2.champsimtrace.xz")
Heartbeat CPU 0 instructions: 70000001 cycles: 62124982 heartbeat IPC: 0.8137 cumulative IPC: 0.8054 (Simulation time: 00 hr 04 min 49 sec)
Heartbeat CPU 0 instructions: 80000000 cycles: 73830475 heartbeat IPC: 0.8543 cumulative IPC: 0.8138 (Simulation time: 00 hr 05 min 40 sec)
Heartbeat CPU 0 instructions: 90000001 cycles: 86547927 heartbeat IPC: 0.7863 cumulative IPC: 0.8095 (Simulation time: 00 hr 06 min 34 sec)
*** Reached end of trace: (0, "../traces/public_traces/srv/srv_2.champsimtrace.xz")
Heartbeat CPU 0 instructions: 100000000 cycles: 98782604 heartbeat IPC: 0.8173 cumulative IPC: 0.8105 (Simulation time: 00 hr 07 min 27 sec)
Heartbeat CPU 0 instructions: 110000003 cycles: 110545157 heartbeat IPC: 0.8502 cumulative IPC: 0.815 (Simulation time: 00 hr 08 min 18 sec)
Heartbeat CPU 0 instructions: 120000003 cycles: 122702649 heartbeat IPC: 0.8225 cumulative IPC: 0.8158 (Simulation time: 00 hr 09 min 10 sec)
*** Reached end of trace: (0, "../traces/public_traces/srv/srv_2.champsimtrace.xz")
Simulation finished CPU 0 instructions: 100000002 cycles: 123382680 cumulative IPC: 0.8105 (Simulation time: 00 hr 09 min 39 sec)
Simulation complete CPU 0 instructions: 100000002 cycles: 123382680 cumulative IPC: 0.8105 (Simulation time: 00 hr 09 min 39 sec)

ChampSim completed all CPUs

=== Simulation ===
CPU 0 runs ../traces/public_traces/srv/srv_2.champsimtrace.xz
Region of Interest Statistics

CPU 0 cumulative IPC: 0.8105 instructions: 100000002 cycles: 123382680
CPU 0 Branch Prediction Accuracy: 84.94% MPKI: 26.9 Average ROB Occupancy at Mispredict: 19.54
Branch type MPKI
BRANCH_DIRECT_JUMP: 0.438
BRANCH_INDIRECT: 14.8
BRANCH_CONDITIONAL: 9.63
BRANCH_DIRECT_CALL: 0.829
BRANCH_INDIRECT_CALL: 0.512
BRANCH_RETURN: 0.639

LLC TOTAL        ACCESS:    2000921 HIT:    1793828 MISS:     207093
LLC LOAD         ACCESS:    1476170 HIT:    1328545 MISS:     147625
LLC RFO          ACCESS:      91546 HIT:      66588 MISS:      24958
LLC PREFETCH     ACCESS:          0 HIT:          0 MISS:          0
LLC WRITE        ACCESS:     276773 HIT:     276475 MISS:        298
LLC TRANSLATION  ACCESS:     156432 HIT:     122220 MISS:      34212
LLC PREFETCH REQUESTED:          0 ISSUED:          0 USEFUL:          0 USELESS:          0
LLC AVERAGE MISS LATENCY: 163 cycles
cpu0_DTLB TOTAL        ACCESS:   21857935 HIT:   20225878 MISS:    1632057
cpu0_DTLB LOAD         ACCESS:   21857935 HIT:   20225878 MISS:    1632057
cpu0_DTLB RFO          ACCESS:          0 HIT:          0 MISS:          0
cpu0_DTLB PREFETCH     ACCESS:          0 HIT:          0 MISS:          0
cpu0_DTLB WRITE        ACCESS:          0 HIT:          0 MISS:          0
cpu0_DTLB TRANSLATION  ACCESS:          0 HIT:          0 MISS:          0
cpu0_DTLB PREFETCH REQUESTED:          0 ISSUED:          0 USEFUL:          0 USELESS:          0
cpu0_DTLB AVERAGE MISS LATENCY: 11.44 cycles
cpu0_ITLB TOTAL        ACCESS:    9481832 HIT:    8684334 MISS:     797498
cpu0_ITLB LOAD         ACCESS:    9481832 HIT:    8684334 MISS:     797498
cpu0_ITLB RFO          ACCESS:          0 HIT:          0 MISS:          0
cpu0_ITLB PREFETCH     ACCESS:          0 HIT:          0 MISS:          0
cpu0_ITLB WRITE        ACCESS:          0 HIT:          0 MISS:          0
cpu0_ITLB TRANSLATION  ACCESS:          0 HIT:          0 MISS:          0
cpu0_ITLB PREFETCH REQUESTED:          0 ISSUED:          0 USEFUL:          0 USELESS:          0
cpu0_ITLB AVERAGE MISS LATENCY: 6.933 cycles
cpu0_L1D TOTAL        ACCESS:   26926994 HIT:   24812736 MISS:    2114258
cpu0_L1D LOAD         ACCESS:   16603261 HIT:   15104899 MISS:    1498362
cpu0_L1D RFO          ACCESS:          0 HIT:          0 MISS:          0
cpu0_L1D PREFETCH     ACCESS:          0 HIT:          0 MISS:          0
cpu0_L1D WRITE        ACCESS:   10104052 HIT:    9684011 MISS:     420041
cpu0_L1D TRANSLATION  ACCESS:     219681 HIT:      23826 MISS:     195855
cpu0_L1D PREFETCH REQUESTED:          0 ISSUED:          0 USEFUL:          0 USELESS:          0
cpu0_L1D AVERAGE MISS LATENCY: 27.05 cycles
cpu0_L1I TOTAL        ACCESS:   10634966 HIT:    7153608 MISS:    3481358
cpu0_L1I LOAD         ACCESS:   10634966 HIT:    7153608 MISS:    3481358
cpu0_L1I RFO          ACCESS:          0 HIT:          0 MISS:          0
cpu0_L1I PREFETCH     ACCESS:          0 HIT:          0 MISS:          0
cpu0_L1I WRITE        ACCESS:          0 HIT:          0 MISS:          0
cpu0_L1I TRANSLATION  ACCESS:          0 HIT:          0 MISS:          0
cpu0_L1I PREFETCH REQUESTED:          0 ISSUED:          0 USEFUL:          0 USELESS:          0
cpu0_L1I AVERAGE MISS LATENCY: 13.76 cycles
cpu0_L2C TOTAL        ACCESS:    4572303 HIT:    2845907 MISS:    1726396
cpu0_L2C LOAD         ACCESS:    3673592 HIT:    2197422 MISS:    1476170
cpu0_L2C RFO          ACCESS:     179425 HIT:      87879 MISS:      91546
cpu0_L2C PREFETCH     ACCESS:          0 HIT:          0 MISS:          0
cpu0_L2C WRITE        ACCESS:     524424 HIT:     522176 MISS:       2248
cpu0_L2C TRANSLATION  ACCESS:     194862 HIT:      38430 MISS:     156432
cpu0_L2C PREFETCH REQUESTED:          0 ISSUED:          0 USEFUL:          0 USELESS:          0
cpu0_L2C AVERAGE MISS LATENCY: 39.65 cycles
cpu0_STLB TOTAL        ACCESS:    1630617 HIT:    1463042 MISS:     167575
cpu0_STLB LOAD         ACCESS:    1630617 HIT:    1463042 MISS:     167575
cpu0_STLB RFO          ACCESS:          0 HIT:          0 MISS:          0
cpu0_STLB PREFETCH     ACCESS:          0 HIT:          0 MISS:          0
cpu0_STLB WRITE        ACCESS:          0 HIT:          0 MISS:          0
cpu0_STLB TRANSLATION  ACCESS:          0 HIT:          0 MISS:          0
cpu0_STLB PREFETCH REQUESTED:          0 ISSUED:          0 USEFUL:          0 USELESS:          0
cpu0_STLB AVERAGE MISS LATENCY: 78.38 cycles

DRAM Statistics

Channel 0 RQ ROW_BUFFER_HIT:      50279
  ROW_BUFFER_MISS:     156515
 AVG DBUS CONGESTED CYCLE: 3.929
WQ ROW_BUFFER_HIT: Channel 0 
  ROW_BUFFER_MISS:      20140
  FULL:      93971
