WARNING: physical memory size is smaller than virtual memory size.

*** ChampSim Multicore Out-of-Order Simulator ***
Warmup Instructions: 25000000
Simulation Instructions: 100000000
Number of CPUs: 1
Page size: 4096

Off-chip DRAM Size: 4 GiB Channels: 1 Width: 64-bit Data Race: 3200 MT/s
Heartbeat CPU 0 instructions: 10000001 cycles: 2501867 heartbeat IPC: 3.997 cumulative IPC: 3.997 (Simulation time: 00 hr 00 min 20 sec)
Heartbeat CPU 0 instructions: 20000001 cycles: 5104058 heartbeat IPC: 3.843 cumulative IPC: 3.918 (Simulation time: 00 hr 00 min 39 sec)
Warmup finished CPU 0 instructions: 25000000 cycles: 6407162 cumulative IPC: 3.902 (Simulation time: 00 hr 00 min 49 sec)
Warmup complete CPU 0 instructions: 25000000 cycles: 6407162 cumulative IPC: 3.902 (Simulation time: 00 hr 00 min 49 sec)
Heartbeat CPU 0 instructions: 30000001 cycles: 10871851 heartbeat IPC: 1.734 cumulative IPC: 1.12 (Simulation time: 00 hr 01 min 13 sec)
*** Reached end of trace: (0, "../traces/public_traces/srv/srv_40.champsimtrace.xz")
Heartbeat CPU 0 instructions: 40000002 cycles: 20690383 heartbeat IPC: 1.018 cumulative IPC: 1.05 (Simulation time: 00 hr 01 min 57 sec)
Heartbeat CPU 0 instructions: 50000001 cycles: 30204272 heartbeat IPC: 1.051 cumulative IPC: 1.051 (Simulation time: 00 hr 02 min 44 sec)
Heartbeat CPU 0 instructions: 60000001 cycles: 39067785 heartbeat IPC: 1.128 cumulative IPC: 1.072 (Simulation time: 00 hr 03 min 31 sec)
*** Reached end of trace: (0, "../traces/public_traces/srv/srv_40.champsimtrace.xz")
Heartbeat CPU 0 instructions: 70000001 cycles: 48836924 heartbeat IPC: 1.024 cumulative IPC: 1.061 (Simulation time: 00 hr 04 min 15 sec)
Heartbeat CPU 0 instructions: 80000002 cycles: 58427443 heartbeat IPC: 1.043 cumulative IPC: 1.057 (Simulation time: 00 hr 05 min 02 sec)
Heartbeat CPU 0 instructions: 90000002 cycles: 67305817 heartbeat IPC: 1.126 cumulative IPC: 1.067 (Simulation time: 00 hr 05 min 49 sec)
*** Reached end of trace: (0, "../traces/public_traces/srv/srv_40.champsimtrace.xz")
Heartbeat CPU 0 instructions: 100000000 cycles: 77301338 heartbeat IPC: 1 cumulative IPC: 1.058 (Simulation time: 00 hr 06 min 34 sec)
Heartbeat CPU 0 instructions: 110000003 cycles: 86624285 heartbeat IPC: 1.073 cumulative IPC: 1.06 (Simulation time: 00 hr 07 min 21 sec)
Heartbeat CPU 0 instructions: 120000001 cycles: 95505206 heartbeat IPC: 1.126 cumulative IPC: 1.066 (Simulation time: 00 hr 08 min 07 sec)
*** Reached end of trace: (0, "../traces/public_traces/srv/srv_40.champsimtrace.xz")
Simulation finished CPU 0 instructions: 100000000 cycles: 96134409 cumulative IPC: 1.04 (Simulation time: 00 hr 08 min 36 sec)
Simulation complete CPU 0 instructions: 100000000 cycles: 96134409 cumulative IPC: 1.04 (Simulation time: 00 hr 08 min 36 sec)

ChampSim completed all CPUs

=== Simulation ===
CPU 0 runs ../traces/public_traces/srv/srv_40.champsimtrace.xz
Region of Interest Statistics

CPU 0 cumulative IPC: 1.04 instructions: 100000000 cycles: 96134409
CPU 0 Branch Prediction Accuracy: 88.51% MPKI: 8.664 Average ROB Occupancy at Mispredict: 21.57
Branch type MPKI
BRANCH_DIRECT_JUMP: 0.113
BRANCH_INDIRECT: 4.02
BRANCH_CONDITIONAL: 3.92
BRANCH_DIRECT_CALL: 0.211
BRANCH_INDIRECT_CALL: 0.268
BRANCH_RETURN: 0.134

LLC TOTAL        ACCESS:    1459210 HIT:     660703 MISS:     798507
LLC LOAD         ACCESS:     419031 HIT:     114526 MISS:     304505
LLC RFO          ACCESS:     493339 HIT:      14548 MISS:     478791
LLC PREFETCH     ACCESS:          0 HIT:          0 MISS:          0
LLC WRITE        ACCESS:     529674 HIT:     528859 MISS:        815
LLC TRANSLATION  ACCESS:      17166 HIT:       2770 MISS:      14396
LLC PREFETCH REQUESTED:          0 ISSUED:          0 USEFUL:          0 USELESS:          0
LLC AVERAGE MISS LATENCY: 681.8 cycles
cpu0_DTLB TOTAL        ACCESS:   20270820 HIT:   19966148 MISS:     304672
cpu0_DTLB LOAD         ACCESS:   20270820 HIT:   19966148 MISS:     304672
cpu0_DTLB RFO          ACCESS:          0 HIT:          0 MISS:          0
cpu0_DTLB PREFETCH     ACCESS:          0 HIT:          0 MISS:          0
cpu0_DTLB WRITE        ACCESS:          0 HIT:          0 MISS:          0
cpu0_DTLB TRANSLATION  ACCESS:          0 HIT:          0 MISS:          0
cpu0_DTLB PREFETCH REQUESTED:          0 ISSUED:          0 USEFUL:          0 USELESS:          0
cpu0_DTLB AVERAGE MISS LATENCY: 15.84 cycles
cpu0_ITLB TOTAL        ACCESS:    2528059 HIT:    2213425 MISS:     314634
cpu0_ITLB LOAD         ACCESS:    2528059 HIT:    2213425 MISS:     314634
cpu0_ITLB RFO          ACCESS:          0 HIT:          0 MISS:          0
cpu0_ITLB PREFETCH     ACCESS:          0 HIT:          0 MISS:          0
cpu0_ITLB WRITE        ACCESS:          0 HIT:          0 MISS:          0
cpu0_ITLB TRANSLATION  ACCESS:          0 HIT:          0 MISS:          0
cpu0_ITLB PREFETCH REQUESTED:          0 ISSUED:          0 USEFUL:          0 USELESS:          0
cpu0_ITLB AVERAGE MISS LATENCY: 4.72 cycles
cpu0_L1D TOTAL        ACCESS:   29261525 HIT:   25660683 MISS:    3600842
cpu0_L1D LOAD         ACCESS:   23212494 HIT:   21925437 MISS:    1287057
cpu0_L1D RFO          ACCESS:          0 HIT:          0 MISS:          0
cpu0_L1D PREFETCH     ACCESS:          0 HIT:          0 MISS:          0
cpu0_L1D WRITE        ACCESS:    6017995 HIT:    3724309 MISS:    2293686
cpu0_L1D TRANSLATION  ACCESS:      31036 HIT:      10937 MISS:      20099
cpu0_L1D PREFETCH REQUESTED:          0 ISSUED:          0 USEFUL:          0 USELESS:          0
cpu0_L1D AVERAGE MISS LATENCY: 149.6 cycles
cpu0_L1I TOTAL        ACCESS:    2821039 HIT:    1915603 MISS:     905436
cpu0_L1I LOAD         ACCESS:    2821039 HIT:    1915603 MISS:     905436
cpu0_L1I RFO          ACCESS:          0 HIT:          0 MISS:          0
cpu0_L1I PREFETCH     ACCESS:          0 HIT:          0 MISS:          0
cpu0_L1I WRITE        ACCESS:          0 HIT:          0 MISS:          0
cpu0_L1I TRANSLATION  ACCESS:          0 HIT:          0 MISS:          0
cpu0_L1I PREFETCH REQUESTED:          0 ISSUED:          0 USEFUL:          0 USELESS:          0
cpu0_L1I AVERAGE MISS LATENCY: 16.62 cycles
cpu0_L2C TOTAL        ACCESS:    2560103 HIT:    1630186 MISS:     929917
cpu0_L2C LOAD         ACCESS:    1316183 HIT:     897152 MISS:     419031
cpu0_L2C RFO          ACCESS:     559811 HIT:      66472 MISS:     493339
cpu0_L2C PREFETCH     ACCESS:          0 HIT:          0 MISS:          0
cpu0_L2C WRITE        ACCESS:     664235 HIT:     663854 MISS:        381
cpu0_L2C TRANSLATION  ACCESS:      19874 HIT:       2708 MISS:      17166
cpu0_L2C PREFETCH REQUESTED:          0 ISSUED:          0 USEFUL:          0 USELESS:          0
cpu0_L2C AVERAGE MISS LATENCY: 606.3 cycles
cpu0_STLB TOTAL        ACCESS:     287075 HIT:     262238 MISS:      24837
cpu0_STLB LOAD         ACCESS:     287075 HIT:     262238 MISS:      24837
cpu0_STLB RFO          ACCESS:          0 HIT:          0 MISS:          0
cpu0_STLB PREFETCH     ACCESS:          0 HIT:          0 MISS:          0
cpu0_STLB WRITE        ACCESS:          0 HIT:          0 MISS:          0
cpu0_STLB TRANSLATION  ACCESS:          0 HIT:          0 MISS:          0
cpu0_STLB PREFETCH REQUESTED:          0 ISSUED:          0 USEFUL:          0 USELESS:          0
cpu0_STLB AVERAGE MISS LATENCY: 204.1 cycles

DRAM Statistics

Channel 0 RQ ROW_BUFFER_HIT:     393462
  ROW_BUFFER_MISS:     404230
 AVG DBUS CONGESTED CYCLE: 3.972
WQ ROW_BUFFER_HIT: Channel 0 
  ROW_BUFFER_MISS:     112073
  FULL:     395443
