WARNING: physical memory size is smaller than virtual memory size.

*** ChampSim Multicore Out-of-Order Simulator ***
Warmup Instructions: 25000000
Simulation Instructions: 100000000
Number of CPUs: 1
Page size: 4096

Off-chip DRAM Size: 4 GiB Channels: 1 Width: 64-bit Data Race: 3200 MT/s
Heartbeat CPU 0 instructions: 10000003 cycles: 2500251 heartbeat IPC: 4 cumulative IPC: 4 (Simulation time: 00 hr 00 min 22 sec)
Heartbeat CPU 0 instructions: 20000001 cycles: 5000576 heartbeat IPC: 3.999 cumulative IPC: 4 (Simulation time: 00 hr 00 min 45 sec)
Warmup finished CPU 0 instructions: 25000002 cycles: 6250642 cumulative IPC: 4 (Simulation time: 00 hr 00 min 57 sec)
Warmup complete CPU 0 instructions: 25000002 cycles: 6250642 cumulative IPC: 4 (Simulation time: 00 hr 00 min 57 sec)
Heartbeat CPU 0 instructions: 30000004 cycles: 11248554 heartbeat IPC: 1.601 cumulative IPC: 1 (Simulation time: 00 hr 01 min 21 sec)
*** Reached end of trace: (0, "../traces/public_traces/srv/srv_32.champsimtrace.xz")
Heartbeat CPU 0 instructions: 40000002 cycles: 20819818 heartbeat IPC: 1.045 cumulative IPC: 1.03 (Simulation time: 00 hr 02 min 08 sec)
Heartbeat CPU 0 instructions: 50000001 cycles: 30312584 heartbeat IPC: 1.053 cumulative IPC: 1.039 (Simulation time: 00 hr 02 min 55 sec)
Heartbeat CPU 0 instructions: 60000001 cycles: 39831084 heartbeat IPC: 1.051 cumulative IPC: 1.042 (Simulation time: 00 hr 03 min 42 sec)
*** Reached end of trace: (0, "../traces/public_traces/srv/srv_32.champsimtrace.xz")
Heartbeat CPU 0 instructions: 70000001 cycles: 49317462 heartbeat IPC: 1.054 cumulative IPC: 1.045 (Simulation time: 00 hr 04 min 28 sec)
Heartbeat CPU 0 instructions: 80000000 cycles: 58808377 heartbeat IPC: 1.054 cumulative IPC: 1.046 (Simulation time: 00 hr 05 min 15 sec)
Heartbeat CPU 0 instructions: 90000004 cycles: 68327570 heartbeat IPC: 1.051 cumulative IPC: 1.047 (Simulation time: 00 hr 06 min 02 sec)
*** Reached end of trace: (0, "../traces/public_traces/srv/srv_32.champsimtrace.xz")
Heartbeat CPU 0 instructions: 100000000 cycles: 77813001 heartbeat IPC: 1.054 cumulative IPC: 1.048 (Simulation time: 00 hr 06 min 49 sec)
Heartbeat CPU 0 instructions: 110000000 cycles: 87301431 heartbeat IPC: 1.054 cumulative IPC: 1.049 (Simulation time: 00 hr 07 min 35 sec)
Heartbeat CPU 0 instructions: 120000000 cycles: 96821241 heartbeat IPC: 1.05 cumulative IPC: 1.049 (Simulation time: 00 hr 08 min 22 sec)
Simulation finished CPU 0 instructions: 100000001 cycles: 95307698 cumulative IPC: 1.049 (Simulation time: 00 hr 08 min 46 sec)
Simulation complete CPU 0 instructions: 100000001 cycles: 95307698 cumulative IPC: 1.049 (Simulation time: 00 hr 08 min 46 sec)

ChampSim completed all CPUs

=== Simulation ===
CPU 0 runs ../traces/public_traces/srv/srv_32.champsimtrace.xz
Region of Interest Statistics

CPU 0 cumulative IPC: 1.049 instructions: 100000001 cycles: 95307698
CPU 0 Branch Prediction Accuracy: 87.08% MPKI: 22.17 Average ROB Occupancy at Mispredict: 10.45
Branch type MPKI
BRANCH_DIRECT_JUMP: 0
BRANCH_INDIRECT: 15.9
BRANCH_CONDITIONAL: 5.01
BRANCH_DIRECT_CALL: 0
BRANCH_INDIRECT_CALL: 1.24
BRANCH_RETURN: 0.0171

LLC TOTAL        ACCESS:     507351 HIT:     495997 MISS:      11354
LLC LOAD         ACCESS:     254243 HIT:     247857 MISS:       6386
LLC RFO          ACCESS:      58037 HIT:      54319 MISS:       3718
LLC PREFETCH     ACCESS:          0 HIT:          0 MISS:          0
LLC WRITE        ACCESS:     184798 HIT:     184730 MISS:         68
LLC TRANSLATION  ACCESS:      10273 HIT:       9091 MISS:       1182
LLC PREFETCH REQUESTED:          0 ISSUED:          0 USEFUL:          0 USELESS:          0
LLC AVERAGE MISS LATENCY: 186.7 cycles
cpu0_DTLB TOTAL        ACCESS:   24108506 HIT:   22749862 MISS:    1358644
cpu0_DTLB LOAD         ACCESS:   24108506 HIT:   22749862 MISS:    1358644
cpu0_DTLB RFO          ACCESS:          0 HIT:          0 MISS:          0
cpu0_DTLB PREFETCH     ACCESS:          0 HIT:          0 MISS:          0
cpu0_DTLB WRITE        ACCESS:          0 HIT:          0 MISS:          0
cpu0_DTLB TRANSLATION  ACCESS:          0 HIT:          0 MISS:          0
cpu0_DTLB PREFETCH REQUESTED:          0 ISSUED:          0 USEFUL:          0 USELESS:          0
cpu0_DTLB AVERAGE MISS LATENCY: 5.84 cycles
cpu0_ITLB TOTAL        ACCESS:   13842864 HIT:   10530037 MISS:    3312827
cpu0_ITLB LOAD         ACCESS:   13842864 HIT:   10530037 MISS:    3312827
cpu0_ITLB RFO          ACCESS:          0 HIT:          0 MISS:          0
cpu0_ITLB PREFETCH     ACCESS:          0 HIT:          0 MISS:          0
cpu0_ITLB WRITE        ACCESS:          0 HIT:          0 MISS:          0
cpu0_ITLB TRANSLATION  ACCESS:          0 HIT:          0 MISS:          0
cpu0_ITLB PREFETCH REQUESTED:          0 ISSUED:          0 USEFUL:          0 USELESS:          0
cpu0_ITLB AVERAGE MISS LATENCY: 1.759 cycles
cpu0_L1D TOTAL        ACCESS:   31272087 HIT:   30001412 MISS:    1270675
cpu0_L1D LOAD         ACCESS:   18906660 HIT:   17954397 MISS:     952263
cpu0_L1D RFO          ACCESS:          0 HIT:          0 MISS:          0
cpu0_L1D PREFETCH     ACCESS:          0 HIT:          0 MISS:          0
cpu0_L1D WRITE        ACCESS:   12350263 HIT:   12046453 MISS:     303810
cpu0_L1D TRANSLATION  ACCESS:      15164 HIT:        562 MISS:      14602
cpu0_L1D PREFETCH REQUESTED:          0 ISSUED:          0 USEFUL:          0 USELESS:          0
cpu0_L1D AVERAGE MISS LATENCY: 12.71 cycles
cpu0_L1I TOTAL        ACCESS:   15891074 HIT:    5078085 MISS:   10812989
cpu0_L1I LOAD         ACCESS:   15891074 HIT:    5078085 MISS:   10812989
cpu0_L1I RFO          ACCESS:          0 HIT:          0 MISS:          0
cpu0_L1I PREFETCH     ACCESS:          0 HIT:          0 MISS:          0
cpu0_L1I WRITE        ACCESS:          0 HIT:          0 MISS:          0
cpu0_L1I TRANSLATION  ACCESS:          0 HIT:          0 MISS:          0
cpu0_L1I PREFETCH REQUESTED:          0 ISSUED:          0 USEFUL:          0 USELESS:          0
cpu0_L1I AVERAGE MISS LATENCY: 6.661 cycles
cpu0_L2C TOTAL        ACCESS:    8999541 HIT:    8675650 MISS:     323891
cpu0_L2C LOAD         ACCESS:    8432189 HIT:    8177946 MISS:     254243
cpu0_L2C RFO          ACCESS:     115054 HIT:      57017 MISS:      58037
cpu0_L2C PREFETCH     ACCESS:          0 HIT:          0 MISS:          0
cpu0_L2C WRITE        ACCESS:     437997 HIT:     436659 MISS:       1338
cpu0_L2C TRANSLATION  ACCESS:      14301 HIT:       4028 MISS:      10273
cpu0_L2C PREFETCH REQUESTED:          0 ISSUED:          0 USEFUL:          0 USELESS:          0
cpu0_L2C AVERAGE MISS LATENCY: 26.51 cycles
cpu0_STLB TOTAL        ACCESS:    2212029 HIT:    2200844 MISS:      11185
cpu0_STLB LOAD         ACCESS:    2212029 HIT:    2200844 MISS:      11185
cpu0_STLB RFO          ACCESS:          0 HIT:          0 MISS:          0
cpu0_STLB PREFETCH     ACCESS:          0 HIT:          0 MISS:          0
cpu0_STLB WRITE        ACCESS:          0 HIT:          0 MISS:          0
cpu0_STLB TRANSLATION  ACCESS:          0 HIT:          0 MISS:          0
cpu0_STLB PREFETCH REQUESTED:          0 ISSUED:          0 USEFUL:          0 USELESS:          0
cpu0_STLB AVERAGE MISS LATENCY: 73.98 cycles

DRAM Statistics

Channel 0 RQ ROW_BUFFER_HIT:       2580
  ROW_BUFFER_MISS:       8703
 AVG DBUS CONGESTED CYCLE: 3.888
WQ ROW_BUFFER_HIT: Channel 0 
  ROW_BUFFER_MISS:        433
  FULL:       4376
