WARNING: physical memory size is smaller than virtual memory size.

*** ChampSim Multicore Out-of-Order Simulator ***
Warmup Instructions: 25000000
Simulation Instructions: 100000000
Number of CPUs: 1
Page size: 4096

Off-chip DRAM Size: 4 GiB Channels: 1 Width: 64-bit Data Race: 3200 MT/s
Heartbeat CPU 0 instructions: 10000002 cycles: 2505866 heartbeat IPC: 3.991 cumulative IPC: 3.991 (Simulation time: 00 hr 00 min 22 sec)
Heartbeat CPU 0 instructions: 20000002 cycles: 5010308 heartbeat IPC: 3.993 cumulative IPC: 3.992 (Simulation time: 00 hr 00 min 45 sec)
Warmup finished CPU 0 instructions: 25000003 cycles: 6262213 cumulative IPC: 3.992 (Simulation time: 00 hr 00 min 56 sec)
Warmup complete CPU 0 instructions: 25000003 cycles: 6262213 cumulative IPC: 3.992 (Simulation time: 00 hr 00 min 56 sec)
Heartbeat CPU 0 instructions: 30000000 cycles: 14438140 heartbeat IPC: 1.061 cumulative IPC: 0.6116 (Simulation time: 00 hr 01 min 28 sec)
*** Reached end of trace: (0, "../traces/public_traces/srv/srv_15.champsimtrace.xz")
Heartbeat CPU 0 instructions: 40000003 cycles: 30465253 heartbeat IPC: 0.6239 cumulative IPC: 0.6198 (Simulation time: 00 hr 02 min 32 sec)
Heartbeat CPU 0 instructions: 50000001 cycles: 46603377 heartbeat IPC: 0.6197 cumulative IPC: 0.6197 (Simulation time: 00 hr 03 min 35 sec)
Heartbeat CPU 0 instructions: 60000000 cycles: 62576593 heartbeat IPC: 0.626 cumulative IPC: 0.6215 (Simulation time: 00 hr 04 min 38 sec)
*** Reached end of trace: (0, "../traces/public_traces/srv/srv_15.champsimtrace.xz")
Heartbeat CPU 0 instructions: 70000003 cycles: 78602519 heartbeat IPC: 0.624 cumulative IPC: 0.6221 (Simulation time: 00 hr 05 min 41 sec)
Heartbeat CPU 0 instructions: 80000004 cycles: 94785371 heartbeat IPC: 0.6179 cumulative IPC: 0.6213 (Simulation time: 00 hr 06 min 45 sec)
Heartbeat CPU 0 instructions: 90000004 cycles: 110675282 heartbeat IPC: 0.6293 cumulative IPC: 0.6225 (Simulation time: 00 hr 07 min 47 sec)
*** Reached end of trace: (0, "../traces/public_traces/srv/srv_15.champsimtrace.xz")
Heartbeat CPU 0 instructions: 100000000 cycles: 126808701 heartbeat IPC: 0.6198 cumulative IPC: 0.6222 (Simulation time: 00 hr 08 min 51 sec)
Heartbeat CPU 0 instructions: 110000004 cycles: 142883332 heartbeat IPC: 0.6221 cumulative IPC: 0.6222 (Simulation time: 00 hr 09 min 54 sec)
Heartbeat CPU 0 instructions: 120000002 cycles: 158884050 heartbeat IPC: 0.625 cumulative IPC: 0.6225 (Simulation time: 00 hr 10 min 57 sec)
Simulation finished CPU 0 instructions: 100000000 cycles: 160683567 cumulative IPC: 0.6223 (Simulation time: 00 hr 11 min 29 sec)
Simulation complete CPU 0 instructions: 100000000 cycles: 160683567 cumulative IPC: 0.6223 (Simulation time: 00 hr 11 min 29 sec)

ChampSim completed all CPUs

=== Simulation ===
CPU 0 runs ../traces/public_traces/srv/srv_15.champsimtrace.xz
Region of Interest Statistics

CPU 0 cumulative IPC: 0.6223 instructions: 100000000 cycles: 160683567
CPU 0 Branch Prediction Accuracy: 72.71% MPKI: 49.23 Average ROB Occupancy at Mispredict: 3.988
Branch type MPKI
BRANCH_DIRECT_JUMP: 0.583
BRANCH_INDIRECT: 34.1
BRANCH_CONDITIONAL: 9.44
BRANCH_DIRECT_CALL: 1.66
BRANCH_INDIRECT_CALL: 2.11
BRANCH_RETURN: 1.29

LLC TOTAL        ACCESS:    1242467 HIT:    1239921 MISS:       2546
LLC LOAD         ACCESS:     965014 HIT:     962877 MISS:       2137
LLC RFO          ACCESS:      95163 HIT:      94857 MISS:        306
LLC PREFETCH     ACCESS:          0 HIT:          0 MISS:          0
LLC WRITE        ACCESS:     178012 HIT:     178006 MISS:          6
LLC TRANSLATION  ACCESS:       4278 HIT:       4181 MISS:         97
LLC PREFETCH REQUESTED:          0 ISSUED:          0 USEFUL:          0 USELESS:          0
LLC AVERAGE MISS LATENCY: 175.1 cycles
cpu0_DTLB TOTAL        ACCESS:   26848012 HIT:   25653642 MISS:    1194370
cpu0_DTLB LOAD         ACCESS:   26848012 HIT:   25653642 MISS:    1194370
cpu0_DTLB RFO          ACCESS:          0 HIT:          0 MISS:          0
cpu0_DTLB PREFETCH     ACCESS:          0 HIT:          0 MISS:          0
cpu0_DTLB WRITE        ACCESS:          0 HIT:          0 MISS:          0
cpu0_DTLB TRANSLATION  ACCESS:          0 HIT:          0 MISS:          0
cpu0_DTLB PREFETCH REQUESTED:          0 ISSUED:          0 USEFUL:          0 USELESS:          0
cpu0_DTLB AVERAGE MISS LATENCY: 6.522 cycles
cpu0_ITLB TOTAL        ACCESS:   11341137 HIT:    9111400 MISS:    2229737
cpu0_ITLB LOAD         ACCESS:   11341137 HIT:    9111400 MISS:    2229737
cpu0_ITLB RFO          ACCESS:          0 HIT:          0 MISS:          0
cpu0_ITLB PREFETCH     ACCESS:          0 HIT:          0 MISS:          0
cpu0_ITLB WRITE        ACCESS:          0 HIT:          0 MISS:          0
cpu0_ITLB TRANSLATION  ACCESS:          0 HIT:          0 MISS:          0
cpu0_ITLB PREFETCH REQUESTED:          0 ISSUED:          0 USEFUL:          0 USELESS:          0
cpu0_ITLB AVERAGE MISS LATENCY: 2.973 cycles
cpu0_L1D TOTAL        ACCESS:   33747765 HIT:   29533021 MISS:    4214744
cpu0_L1D LOAD         ACCESS:   20455514 HIT:   17959831 MISS:    2495683
cpu0_L1D RFO          ACCESS:          0 HIT:          0 MISS:          0
cpu0_L1D PREFETCH     ACCESS:          0 HIT:          0 MISS:          0
cpu0_L1D WRITE        ACCESS:   13277570 HIT:   11573138 MISS:    1704432
cpu0_L1D TRANSLATION  ACCESS:      14681 HIT:         52 MISS:      14629
cpu0_L1D PREFETCH REQUESTED:          0 ISSUED:          0 USEFUL:          0 USELESS:          0
cpu0_L1D AVERAGE MISS LATENCY: 8.529 cycles
cpu0_L1I TOTAL        ACCESS:   12775512 HIT:    5481466 MISS:    7294046
cpu0_L1I LOAD         ACCESS:   12775512 HIT:    5481466 MISS:    7294046
cpu0_L1I RFO          ACCESS:          0 HIT:          0 MISS:          0
cpu0_L1I PREFETCH     ACCESS:          0 HIT:          0 MISS:          0
cpu0_L1I WRITE        ACCESS:          0 HIT:          0 MISS:          0
cpu0_L1I TRANSLATION  ACCESS:          0 HIT:          0 MISS:          0
cpu0_L1I PREFETCH REQUESTED:          0 ISSUED:          0 USEFUL:          0 USELESS:          0
cpu0_L1I AVERAGE MISS LATENCY: 9.494 cycles
cpu0_L2C TOTAL        ACCESS:    9651345 HIT:    8572827 MISS:    1078518
cpu0_L2C LOAD         ACCESS:    7884048 HIT:    6919034 MISS:     965014
cpu0_L2C RFO          ACCESS:     597059 HIT:     501896 MISS:      95163
cpu0_L2C PREFETCH     ACCESS:          0 HIT:          0 MISS:          0
cpu0_L2C WRITE        ACCESS:    1155609 HIT:    1141546 MISS:      14063
cpu0_L2C TRANSLATION  ACCESS:      14629 HIT:      10351 MISS:       4278
cpu0_L2C PREFETCH REQUESTED:          0 ISSUED:          0 USEFUL:          0 USELESS:          0
cpu0_L2C AVERAGE MISS LATENCY: 20.16 cycles
cpu0_STLB TOTAL        ACCESS:    2055983 HIT:    2041521 MISS:      14462
cpu0_STLB LOAD         ACCESS:    2055983 HIT:    2041521 MISS:      14462
cpu0_STLB RFO          ACCESS:          0 HIT:          0 MISS:          0
cpu0_STLB PREFETCH     ACCESS:          0 HIT:          0 MISS:          0
cpu0_STLB WRITE        ACCESS:          0 HIT:          0 MISS:          0
cpu0_STLB TRANSLATION  ACCESS:          0 HIT:          0 MISS:          0
cpu0_STLB PREFETCH REQUESTED:          0 ISSUED:          0 USEFUL:          0 USELESS:          0
cpu0_STLB AVERAGE MISS LATENCY: 25.98 cycles

DRAM Statistics

Channel 0 RQ ROW_BUFFER_HIT:        926
  ROW_BUFFER_MISS:       1614
 AVG DBUS CONGESTED CYCLE: 3.915
WQ ROW_BUFFER_HIT: Channel 0 
  ROW_BUFFER_MISS:          0
  FULL:         89
