WARNING: physical memory size is smaller than virtual memory size.

*** ChampSim Multicore Out-of-Order Simulator ***
Warmup Instructions: 25000000
Simulation Instructions: 100000000
Number of CPUs: 1
Page size: 4096

Off-chip DRAM Size: 4 GiB Channels: 1 Width: 64-bit Data Race: 3200 MT/s
Heartbeat CPU 0 instructions: 10000002 cycles: 2727438 heartbeat IPC: 3.666 cumulative IPC: 3.666 (Simulation time: 00 hr 00 min 23 sec)
Heartbeat CPU 0 instructions: 20000002 cycles: 5459313 heartbeat IPC: 3.66 cumulative IPC: 3.663 (Simulation time: 00 hr 00 min 46 sec)
Warmup finished CPU 0 instructions: 25000000 cycles: 6828167 cumulative IPC: 3.661 (Simulation time: 00 hr 00 min 58 sec)
Warmup complete CPU 0 instructions: 25000000 cycles: 6828167 cumulative IPC: 3.661 (Simulation time: 00 hr 00 min 58 sec)
Heartbeat CPU 0 instructions: 30000002 cycles: 16564709 heartbeat IPC: 0.9005 cumulative IPC: 0.5135 (Simulation time: 00 hr 01 min 39 sec)
*** Reached end of trace: (0, "../traces/public_traces/srv/srv_35.champsimtrace.xz")
Heartbeat CPU 0 instructions: 40000000 cycles: 34847799 heartbeat IPC: 0.547 cumulative IPC: 0.5353 (Simulation time: 00 hr 02 min 58 sec)
Heartbeat CPU 0 instructions: 50000002 cycles: 53691662 heartbeat IPC: 0.5307 cumulative IPC: 0.5335 (Simulation time: 00 hr 04 min 19 sec)
Heartbeat CPU 0 instructions: 60000002 cycles: 72924003 heartbeat IPC: 0.52 cumulative IPC: 0.5295 (Simulation time: 00 hr 05 min 41 sec)
*** Reached end of trace: (0, "../traces/public_traces/srv/srv_35.champsimtrace.xz")
Heartbeat CPU 0 instructions: 70000001 cycles: 91382832 heartbeat IPC: 0.5417 cumulative IPC: 0.5322 (Simulation time: 00 hr 07 min 01 sec)
Heartbeat CPU 0 instructions: 80000001 cycles: 110198960 heartbeat IPC: 0.5315 cumulative IPC: 0.5321 (Simulation time: 00 hr 08 min 22 sec)
Heartbeat CPU 0 instructions: 90000001 cycles: 129161651 heartbeat IPC: 0.5274 cumulative IPC: 0.5313 (Simulation time: 00 hr 09 min 43 sec)
*** Reached end of trace: (0, "../traces/public_traces/srv/srv_35.champsimtrace.xz")
Heartbeat CPU 0 instructions: 100000000 cycles: 147983992 heartbeat IPC: 0.5313 cumulative IPC: 0.5313 (Simulation time: 00 hr 11 min 04 sec)
Heartbeat CPU 0 instructions: 110000002 cycles: 166658940 heartbeat IPC: 0.5355 cumulative IPC: 0.5318 (Simulation time: 00 hr 12 min 24 sec)
Heartbeat CPU 0 instructions: 120000002 cycles: 185676116 heartbeat IPC: 0.5258 cumulative IPC: 0.5312 (Simulation time: 00 hr 13 min 46 sec)
Simulation finished CPU 0 instructions: 100000003 cycles: 188398914 cumulative IPC: 0.5308 (Simulation time: 00 hr 14 min 27 sec)
Simulation complete CPU 0 instructions: 100000003 cycles: 188398914 cumulative IPC: 0.5308 (Simulation time: 00 hr 14 min 27 sec)

ChampSim completed all CPUs

=== Simulation ===
CPU 0 runs ../traces/public_traces/srv/srv_35.champsimtrace.xz
Region of Interest Statistics

CPU 0 cumulative IPC: 0.5308 instructions: 100000003 cycles: 188398914
CPU 0 Branch Prediction Accuracy: 91.55% MPKI: 12.93 Average ROB Occupancy at Mispredict: 28.96
Branch type MPKI
BRANCH_DIRECT_JUMP: 0.00047
BRANCH_INDIRECT: 8.43
BRANCH_CONDITIONAL: 3.84
BRANCH_DIRECT_CALL: 0.00147
BRANCH_INDIRECT_CALL: 0.646
BRANCH_RETURN: 0.00168

LLC TOTAL        ACCESS:    5224072 HIT:    2962669 MISS:    2261403
LLC LOAD         ACCESS:    1382630 HIT:     627665 MISS:     754965
LLC RFO          ACCESS:    1775175 HIT:     287490 MISS:    1487685
LLC PREFETCH     ACCESS:          0 HIT:          0 MISS:          0
LLC WRITE        ACCESS:    2046547 HIT:    2043674 MISS:       2873
LLC TRANSLATION  ACCESS:      19720 HIT:       3840 MISS:      15880
LLC PREFETCH REQUESTED:          0 ISSUED:          0 USEFUL:          0 USELESS:          0
LLC AVERAGE MISS LATENCY: 641.7 cycles
cpu0_DTLB TOTAL        ACCESS:   25520340 HIT:   24118203 MISS:    1402137
cpu0_DTLB LOAD         ACCESS:   25520340 HIT:   24118203 MISS:    1402137
cpu0_DTLB RFO          ACCESS:          0 HIT:          0 MISS:          0
cpu0_DTLB PREFETCH     ACCESS:          0 HIT:          0 MISS:          0
cpu0_DTLB WRITE        ACCESS:          0 HIT:          0 MISS:          0
cpu0_DTLB TRANSLATION  ACCESS:          0 HIT:          0 MISS:          0
cpu0_DTLB PREFETCH REQUESTED:          0 ISSUED:          0 USEFUL:          0 USELESS:          0
cpu0_DTLB AVERAGE MISS LATENCY: 8.784 cycles
cpu0_ITLB TOTAL        ACCESS:   10217585 HIT:    8166549 MISS:    2051036
cpu0_ITLB LOAD         ACCESS:   10217585 HIT:    8166549 MISS:    2051036
cpu0_ITLB RFO          ACCESS:          0 HIT:          0 MISS:          0
cpu0_ITLB PREFETCH     ACCESS:          0 HIT:          0 MISS:          0
cpu0_ITLB WRITE        ACCESS:          0 HIT:          0 MISS:          0
cpu0_ITLB TRANSLATION  ACCESS:          0 HIT:          0 MISS:          0
cpu0_ITLB PREFETCH REQUESTED:          0 ISSUED:          0 USEFUL:          0 USELESS:          0
cpu0_ITLB AVERAGE MISS LATENCY: 1.777 cycles
cpu0_L1D TOTAL        ACCESS:   34476618 HIT:   22881628 MISS:   11594990
cpu0_L1D LOAD         ACCESS:   17375551 HIT:   13825230 MISS:    3550321
cpu0_L1D RFO          ACCESS:          0 HIT:          0 MISS:          0
cpu0_L1D PREFETCH     ACCESS:          0 HIT:          0 MISS:          0
cpu0_L1D WRITE        ACCESS:   17056820 HIT:    9042260 MISS:    8014560
cpu0_L1D TRANSLATION  ACCESS:      44247 HIT:      14138 MISS:      30109
cpu0_L1D PREFETCH REQUESTED:          0 ISSUED:          0 USEFUL:          0 USELESS:          0
cpu0_L1D AVERAGE MISS LATENCY: 127.7 cycles
cpu0_L1I TOTAL        ACCESS:   11750300 HIT:    4951785 MISS:    6798515
cpu0_L1I LOAD         ACCESS:   11750300 HIT:    4951785 MISS:    6798515
cpu0_L1I RFO          ACCESS:          0 HIT:          0 MISS:          0
cpu0_L1I PREFETCH     ACCESS:          0 HIT:          0 MISS:          0
cpu0_L1I WRITE        ACCESS:          0 HIT:          0 MISS:          0
cpu0_L1I TRANSLATION  ACCESS:          0 HIT:          0 MISS:          0
cpu0_L1I PREFETCH REQUESTED:          0 ISSUED:          0 USEFUL:          0 USELESS:          0
cpu0_L1I AVERAGE MISS LATENCY: 7.635 cycles
cpu0_L2C TOTAL        ACCESS:   10170806 HIT:    6989446 MISS:    3181360
cpu0_L2C LOAD         ACCESS:    6137865 HIT:    4755235 MISS:    1382630
cpu0_L2C RFO          ACCESS:    1829860 HIT:      54681 MISS:    1775179
cpu0_L2C PREFETCH     ACCESS:          0 HIT:          0 MISS:          0
cpu0_L2C WRITE        ACCESS:    2173086 HIT:    2169255 MISS:       3831
cpu0_L2C TRANSLATION  ACCESS:      29995 HIT:      10275 MISS:      19720
cpu0_L2C PREFETCH REQUESTED:          0 ISSUED:          0 USEFUL:          0 USELESS:          0
cpu0_L2C AVERAGE MISS LATENCY: 476.9 cycles
cpu0_STLB TOTAL        ACCESS:    1470720 HIT:    1431712 MISS:      39008
cpu0_STLB LOAD         ACCESS:    1470720 HIT:    1431712 MISS:      39008
cpu0_STLB RFO          ACCESS:          0 HIT:          0 MISS:          0
cpu0_STLB PREFETCH     ACCESS:          0 HIT:          0 MISS:          0
cpu0_STLB WRITE        ACCESS:          0 HIT:          0 MISS:          0
cpu0_STLB TRANSLATION  ACCESS:          0 HIT:          0 MISS:          0
cpu0_STLB PREFETCH REQUESTED:          0 ISSUED:          0 USEFUL:          0 USELESS:          0
cpu0_STLB AVERAGE MISS LATENCY: 226.8 cycles

DRAM Statistics

Channel 0 RQ ROW_BUFFER_HIT:     839008
  ROW_BUFFER_MISS:    1419012
 AVG DBUS CONGESTED CYCLE: 3.978
WQ ROW_BUFFER_HIT: Channel 0 
  ROW_BUFFER_MISS:     155608
  FULL:    1443175
