WARNING: physical memory size is smaller than virtual memory size.

*** ChampSim Multicore Out-of-Order Simulator ***
Warmup Instructions: 25000000
Simulation Instructions: 100000000
Number of CPUs: 1
Page size: 4096

Off-chip DRAM Size: 4 GiB Channels: 1 Width: 64-bit Data Race: 3200 MT/s
Heartbeat CPU 0 instructions: 10000000 cycles: 2500093 heartbeat IPC: 4 cumulative IPC: 4 (Simulation time: 00 hr 00 min 21 sec)
Heartbeat CPU 0 instructions: 20000000 cycles: 5000093 heartbeat IPC: 4 cumulative IPC: 4 (Simulation time: 00 hr 00 min 42 sec)
Warmup finished CPU 0 instructions: 25000003 cycles: 6250117 cumulative IPC: 4 (Simulation time: 00 hr 00 min 53 sec)
Warmup complete CPU 0 instructions: 25000003 cycles: 6250117 cumulative IPC: 4 (Simulation time: 00 hr 00 min 53 sec)
Heartbeat CPU 0 instructions: 30000000 cycles: 11811506 heartbeat IPC: 1.468 cumulative IPC: 0.8991 (Simulation time: 00 hr 01 min 18 sec)
*** Reached end of trace: (0, "../traces/public_traces/srv/srv_66.champsimtrace.xz")
Heartbeat CPU 0 instructions: 40000000 cycles: 24697671 heartbeat IPC: 0.776 cumulative IPC: 0.8131 (Simulation time: 00 hr 02 min 12 sec)
Heartbeat CPU 0 instructions: 50000000 cycles: 36238933 heartbeat IPC: 0.8665 cumulative IPC: 0.8336 (Simulation time: 00 hr 03 min 02 sec)
Heartbeat CPU 0 instructions: 60000000 cycles: 47680951 heartbeat IPC: 0.874 cumulative IPC: 0.8448 (Simulation time: 00 hr 03 min 52 sec)
*** Reached end of trace: (0, "../traces/public_traces/srv/srv_66.champsimtrace.xz")
Heartbeat CPU 0 instructions: 70000004 cycles: 60545721 heartbeat IPC: 0.7773 cumulative IPC: 0.8288 (Simulation time: 00 hr 04 min 47 sec)
Heartbeat CPU 0 instructions: 80000001 cycles: 72091812 heartbeat IPC: 0.8661 cumulative IPC: 0.8353 (Simulation time: 00 hr 05 min 37 sec)
Heartbeat CPU 0 instructions: 90000000 cycles: 83499683 heartbeat IPC: 0.8766 cumulative IPC: 0.8414 (Simulation time: 00 hr 06 min 27 sec)
*** Reached end of trace: (0, "../traces/public_traces/srv/srv_66.champsimtrace.xz")
Heartbeat CPU 0 instructions: 100000002 cycles: 96397739 heartbeat IPC: 0.7753 cumulative IPC: 0.832 (Simulation time: 00 hr 07 min 21 sec)
Heartbeat CPU 0 instructions: 110000004 cycles: 107754547 heartbeat IPC: 0.8805 cumulative IPC: 0.8374 (Simulation time: 00 hr 08 min 11 sec)
Heartbeat CPU 0 instructions: 120000004 cycles: 119364450 heartbeat IPC: 0.8613 cumulative IPC: 0.8399 (Simulation time: 00 hr 09 min 02 sec)
*** Reached end of trace: (0, "../traces/public_traces/srv/srv_66.champsimtrace.xz")
Simulation finished CPU 0 instructions: 100000001 cycles: 119329496 cumulative IPC: 0.838 (Simulation time: 00 hr 09 min 29 sec)
Simulation complete CPU 0 instructions: 100000001 cycles: 119329496 cumulative IPC: 0.838 (Simulation time: 00 hr 09 min 29 sec)

ChampSim completed all CPUs

=== Simulation ===
CPU 0 runs ../traces/public_traces/srv/srv_66.champsimtrace.xz
Region of Interest Statistics

CPU 0 cumulative IPC: 0.838 instructions: 100000001 cycles: 119329496
CPU 0 Branch Prediction Accuracy: 85.54% MPKI: 25.88 Average ROB Occupancy at Mispredict: 21.08
Branch type MPKI
BRANCH_DIRECT_JUMP: 0.409
BRANCH_INDIRECT: 14.7
BRANCH_CONDITIONAL: 8.97
BRANCH_DIRECT_CALL: 0.76
BRANCH_INDIRECT_CALL: 0.477
BRANCH_RETURN: 0.55

LLC TOTAL        ACCESS:    1915908 HIT:    1717431 MISS:     198477
LLC LOAD         ACCESS:    1386161 HIT:    1243957 MISS:     142204
LLC RFO          ACCESS:      91753 HIT:      67553 MISS:      24200
LLC PREFETCH     ACCESS:          0 HIT:          0 MISS:          0
LLC WRITE        ACCESS:     285367 HIT:     285126 MISS:        241
LLC TRANSLATION  ACCESS:     152627 HIT:     120795 MISS:      31832
LLC PREFETCH REQUESTED:          0 ISSUED:          0 USEFUL:          0 USELESS:          0
LLC AVERAGE MISS LATENCY: 162.2 cycles
cpu0_DTLB TOTAL        ACCESS:   21872099 HIT:   20316890 MISS:    1555209
cpu0_DTLB LOAD         ACCESS:   21872099 HIT:   20316890 MISS:    1555209
cpu0_DTLB RFO          ACCESS:          0 HIT:          0 MISS:          0
cpu0_DTLB PREFETCH     ACCESS:          0 HIT:          0 MISS:          0
cpu0_DTLB WRITE        ACCESS:          0 HIT:          0 MISS:          0
cpu0_DTLB TRANSLATION  ACCESS:          0 HIT:          0 MISS:          0
cpu0_DTLB PREFETCH REQUESTED:          0 ISSUED:          0 USEFUL:          0 USELESS:          0
cpu0_DTLB AVERAGE MISS LATENCY: 11.6 cycles
cpu0_ITLB TOTAL        ACCESS:    9444429 HIT:    8636712 MISS:     807717
cpu0_ITLB LOAD         ACCESS:    9444429 HIT:    8636712 MISS:     807717
cpu0_ITLB RFO          ACCESS:          0 HIT:          0 MISS:          0
cpu0_ITLB PREFETCH     ACCESS:          0 HIT:          0 MISS:          0
cpu0_ITLB WRITE        ACCESS:          0 HIT:          0 MISS:          0
cpu0_ITLB TRANSLATION  ACCESS:          0 HIT:          0 MISS:          0
cpu0_ITLB PREFETCH REQUESTED:          0 ISSUED:          0 USEFUL:          0 USELESS:          0
cpu0_ITLB AVERAGE MISS LATENCY: 6.911 cycles
cpu0_L1D TOTAL        ACCESS:   27036615 HIT:   24915018 MISS:    2121597
cpu0_L1D LOAD         ACCESS:   16699091 HIT:   15196041 MISS:    1503050
cpu0_L1D RFO          ACCESS:          0 HIT:          0 MISS:          0
cpu0_L1D PREFETCH     ACCESS:          0 HIT:          0 MISS:          0
cpu0_L1D WRITE        ACCESS:   10112889 HIT:    9693449 MISS:     419440
cpu0_L1D TRANSLATION  ACCESS:     224635 HIT:      25528 MISS:     199107
cpu0_L1D PREFETCH REQUESTED:          0 ISSUED:          0 USEFUL:          0 USELESS:          0
cpu0_L1D AVERAGE MISS LATENCY: 26.05 cycles
cpu0_L1I TOTAL        ACCESS:   10661329 HIT:    7245857 MISS:    3415472
cpu0_L1I LOAD         ACCESS:   10661329 HIT:    7245857 MISS:    3415472
cpu0_L1I RFO          ACCESS:          0 HIT:          0 MISS:          0
cpu0_L1I PREFETCH     ACCESS:          0 HIT:          0 MISS:          0
cpu0_L1I WRITE        ACCESS:          0 HIT:          0 MISS:          0
cpu0_L1I TRANSLATION  ACCESS:          0 HIT:          0 MISS:          0
cpu0_L1I PREFETCH REQUESTED:          0 ISSUED:          0 USEFUL:          0 USELESS:          0
cpu0_L1I AVERAGE MISS LATENCY: 13.34 cycles
cpu0_L2C TOTAL        ACCESS:    4498963 HIT:    2865994 MISS:    1632969
cpu0_L2C LOAD         ACCESS:    3603933 HIT:    2217772 MISS:    1386161
cpu0_L2C RFO          ACCESS:     175708 HIT:      83955 MISS:      91753
cpu0_L2C PREFETCH     ACCESS:          0 HIT:          0 MISS:          0
cpu0_L2C WRITE        ACCESS:     521307 HIT:     518879 MISS:       2428
cpu0_L2C TRANSLATION  ACCESS:     198015 HIT:      45388 MISS:     152627
cpu0_L2C PREFETCH REQUESTED:          0 ISSUED:          0 USEFUL:          0 USELESS:          0
cpu0_L2C AVERAGE MISS LATENCY: 39.81 cycles
cpu0_STLB TOTAL        ACCESS:    1615833 HIT:    1445087 MISS:     170746
cpu0_STLB LOAD         ACCESS:    1615833 HIT:    1445087 MISS:     170746
cpu0_STLB RFO          ACCESS:          0 HIT:          0 MISS:          0
cpu0_STLB PREFETCH     ACCESS:          0 HIT:          0 MISS:          0
cpu0_STLB WRITE        ACCESS:          0 HIT:          0 MISS:          0
cpu0_STLB TRANSLATION  ACCESS:          0 HIT:          0 MISS:          0
cpu0_STLB PREFETCH REQUESTED:          0 ISSUED:          0 USEFUL:          0 USELESS:          0
cpu0_STLB AVERAGE MISS LATENCY: 73.43 cycles

DRAM Statistics

Channel 0 RQ ROW_BUFFER_HIT:      46224
  ROW_BUFFER_MISS:     152009
 AVG DBUS CONGESTED CYCLE: 3.926
WQ ROW_BUFFER_HIT: Channel 0 
  ROW_BUFFER_MISS:      20591
  FULL:      92201
