WARNING: physical memory size is smaller than virtual memory size.

*** ChampSim Multicore Out-of-Order Simulator ***
Warmup Instructions: 25000000
Simulation Instructions: 100000000
Number of CPUs: 1
Page size: 4096

Off-chip DRAM Size: 4 GiB Channels: 1 Width: 64-bit Data Race: 3200 MT/s
Heartbeat CPU 0 instructions: 10000001 cycles: 2506810 heartbeat IPC: 3.989 cumulative IPC: 3.989 (Simulation time: 00 hr 00 min 20 sec)
Heartbeat CPU 0 instructions: 20000002 cycles: 5015319 heartbeat IPC: 3.986 cumulative IPC: 3.988 (Simulation time: 00 hr 00 min 41 sec)
Warmup finished CPU 0 instructions: 25000002 cycles: 6267947 cumulative IPC: 3.989 (Simulation time: 00 hr 00 min 51 sec)
Warmup complete CPU 0 instructions: 25000002 cycles: 6267947 cumulative IPC: 3.989 (Simulation time: 00 hr 00 min 51 sec)
Heartbeat CPU 0 instructions: 30000003 cycles: 11113168 heartbeat IPC: 1.64 cumulative IPC: 1.032 (Simulation time: 00 hr 01 min 15 sec)
*** Reached end of trace: (0, "../traces/public_traces/srv/srv_8.champsimtrace.xz")
Heartbeat CPU 0 instructions: 40000004 cycles: 20671860 heartbeat IPC: 1.046 cumulative IPC: 1.041 (Simulation time: 00 hr 02 min 01 sec)
Heartbeat CPU 0 instructions: 50000001 cycles: 29782455 heartbeat IPC: 1.098 cumulative IPC: 1.063 (Simulation time: 00 hr 02 min 47 sec)
Heartbeat CPU 0 instructions: 60000000 cycles: 38281596 heartbeat IPC: 1.177 cumulative IPC: 1.093 (Simulation time: 00 hr 03 min 30 sec)
*** Reached end of trace: (0, "../traces/public_traces/srv/srv_8.champsimtrace.xz")
Heartbeat CPU 0 instructions: 70000001 cycles: 48471693 heartbeat IPC: 0.9813 cumulative IPC: 1.066 (Simulation time: 00 hr 04 min 19 sec)
Heartbeat CPU 0 instructions: 80000002 cycles: 56942890 heartbeat IPC: 1.18 cumulative IPC: 1.085 (Simulation time: 00 hr 05 min 02 sec)
Heartbeat CPU 0 instructions: 90000000 cycles: 65746724 heartbeat IPC: 1.136 cumulative IPC: 1.093 (Simulation time: 00 hr 05 min 46 sec)
*** Reached end of trace: (0, "../traces/public_traces/srv/srv_8.champsimtrace.xz")
Heartbeat CPU 0 instructions: 100000004 cycles: 75751709 heartbeat IPC: 0.9995 cumulative IPC: 1.079 (Simulation time: 00 hr 06 min 34 sec)
Heartbeat CPU 0 instructions: 110000001 cycles: 84702300 heartbeat IPC: 1.117 cumulative IPC: 1.084 (Simulation time: 00 hr 07 min 19 sec)
Heartbeat CPU 0 instructions: 120000000 cycles: 93568163 heartbeat IPC: 1.128 cumulative IPC: 1.088 (Simulation time: 00 hr 08 min 04 sec)
*** Reached end of trace: (0, "../traces/public_traces/srv/srv_8.champsimtrace.xz")
Simulation finished CPU 0 instructions: 100000004 cycles: 92480918 cumulative IPC: 1.081 (Simulation time: 00 hr 08 min 28 sec)
Simulation complete CPU 0 instructions: 100000004 cycles: 92480918 cumulative IPC: 1.081 (Simulation time: 00 hr 08 min 28 sec)

ChampSim completed all CPUs

=== Simulation ===
CPU 0 runs ../traces/public_traces/srv/srv_8.champsimtrace.xz
Region of Interest Statistics

CPU 0 cumulative IPC: 1.081 instructions: 100000004 cycles: 92480918
CPU 0 Branch Prediction Accuracy: 91.83% MPKI: 13.63 Average ROB Occupancy at Mispredict: 57.67
Branch type MPKI
BRANCH_DIRECT_JUMP: 0.198
BRANCH_INDIRECT: 5.79
BRANCH_CONDITIONAL: 6.9
BRANCH_DIRECT_CALL: 0.326
BRANCH_INDIRECT_CALL: 0.154
BRANCH_RETURN: 0.258

LLC TOTAL        ACCESS:    1290651 HIT:     834338 MISS:     456313
LLC LOAD         ACCESS:     752143 HIT:     465587 MISS:     286556
LLC RFO          ACCESS:     147152 HIT:      21728 MISS:     125424
LLC PREFETCH     ACCESS:          0 HIT:          0 MISS:          0
LLC WRITE        ACCESS:     319781 HIT:     319379 MISS:        402
LLC TRANSLATION  ACCESS:      71575 HIT:      27644 MISS:      43931
LLC PREFETCH REQUESTED:          0 ISSUED:          0 USEFUL:          0 USELESS:          0
LLC AVERAGE MISS LATENCY: 262.6 cycles
cpu0_DTLB TOTAL        ACCESS:   20894312 HIT:   19973253 MISS:     921059
cpu0_DTLB LOAD         ACCESS:   20894312 HIT:   19973253 MISS:     921059
cpu0_DTLB RFO          ACCESS:          0 HIT:          0 MISS:          0
cpu0_DTLB PREFETCH     ACCESS:          0 HIT:          0 MISS:          0
cpu0_DTLB WRITE        ACCESS:          0 HIT:          0 MISS:          0
cpu0_DTLB TRANSLATION  ACCESS:          0 HIT:          0 MISS:          0
cpu0_DTLB PREFETCH REQUESTED:          0 ISSUED:          0 USEFUL:          0 USELESS:          0
cpu0_DTLB AVERAGE MISS LATENCY: 14.2 cycles
cpu0_ITLB TOTAL        ACCESS:    6909117 HIT:    6363752 MISS:     545365
cpu0_ITLB LOAD         ACCESS:    6909117 HIT:    6363752 MISS:     545365
cpu0_ITLB RFO          ACCESS:          0 HIT:          0 MISS:          0
cpu0_ITLB PREFETCH     ACCESS:          0 HIT:          0 MISS:          0
cpu0_ITLB WRITE        ACCESS:          0 HIT:          0 MISS:          0
cpu0_ITLB TRANSLATION  ACCESS:          0 HIT:          0 MISS:          0
cpu0_ITLB PREFETCH REQUESTED:          0 ISSUED:          0 USEFUL:          0 USELESS:          0
cpu0_ITLB AVERAGE MISS LATENCY: 6.837 cycles
cpu0_L1D TOTAL        ACCESS:   26147576 HIT:   23885702 MISS:    2261874
cpu0_L1D LOAD         ACCESS:   15568664 HIT:   14312034 MISS:    1256630
cpu0_L1D RFO          ACCESS:          0 HIT:          0 MISS:          0
cpu0_L1D PREFETCH     ACCESS:          0 HIT:          0 MISS:          0
cpu0_L1D WRITE        ACCESS:   10482616 HIT:    9562149 MISS:     920467
cpu0_L1D TRANSLATION  ACCESS:      96296 HIT:      11519 MISS:      84777
cpu0_L1D PREFETCH REQUESTED:          0 ISSUED:          0 USEFUL:          0 USELESS:          0
cpu0_L1D AVERAGE MISS LATENCY: 55.75 cycles
cpu0_L1I TOTAL        ACCESS:    7990795 HIT:    6368331 MISS:    1622464
cpu0_L1I LOAD         ACCESS:    7990795 HIT:    6368331 MISS:    1622464
cpu0_L1I RFO          ACCESS:          0 HIT:          0 MISS:          0
cpu0_L1I PREFETCH     ACCESS:          0 HIT:          0 MISS:          0
cpu0_L1I WRITE        ACCESS:          0 HIT:          0 MISS:          0
cpu0_L1I TRANSLATION  ACCESS:          0 HIT:          0 MISS:          0
cpu0_L1I PREFETCH REQUESTED:          0 ISSUED:          0 USEFUL:          0 USELESS:          0
cpu0_L1I AVERAGE MISS LATENCY: 15.55 cycles
cpu0_L2C TOTAL        ACCESS:    2469875 HIT:    1498499 MISS:     971376
cpu0_L2C LOAD         ACCESS:    1777301 HIT:    1025158 MISS:     752143
cpu0_L2C RFO          ACCESS:     193488 HIT:      46336 MISS:     147152
cpu0_L2C PREFETCH     ACCESS:          0 HIT:          0 MISS:          0
cpu0_L2C WRITE        ACCESS:     414587 HIT:     414081 MISS:        506
cpu0_L2C TRANSLATION  ACCESS:      84499 HIT:      12924 MISS:      71575
cpu0_L2C PREFETCH REQUESTED:          0 ISSUED:          0 USEFUL:          0 USELESS:          0
cpu0_L2C AVERAGE MISS LATENCY: 143.8 cycles
cpu0_STLB TOTAL        ACCESS:     881769 HIT:     804682 MISS:      77087
cpu0_STLB LOAD         ACCESS:     881769 HIT:     804682 MISS:      77087
cpu0_STLB RFO          ACCESS:          0 HIT:          0 MISS:          0
cpu0_STLB PREFETCH     ACCESS:          0 HIT:          0 MISS:          0
cpu0_STLB WRITE        ACCESS:          0 HIT:          0 MISS:          0
cpu0_STLB TRANSLATION  ACCESS:          0 HIT:          0 MISS:          0
cpu0_STLB PREFETCH REQUESTED:          0 ISSUED:          0 USEFUL:          0 USELESS:          0
cpu0_STLB AVERAGE MISS LATENCY: 145.8 cycles

DRAM Statistics

Channel 0 RQ ROW_BUFFER_HIT:     111874
  ROW_BUFFER_MISS:     343970
 AVG DBUS CONGESTED CYCLE: 3.949
WQ ROW_BUFFER_HIT: Channel 0 
  ROW_BUFFER_MISS:      70899
  FULL:     204522
