WARNING: physical memory size is smaller than virtual memory size.

*** ChampSim Multicore Out-of-Order Simulator ***
Warmup Instructions: 30000000
Simulation Instructions: 100000000
Number of CPUs: 1
Page size: 4096

BTB:
Basic BTB sets: 1024 ways: 8
Indirect:
history lengths: 0 0 10 16 27 44 60 96 109 219 449 487 714 1313 2146 3881 
ITTAGE tables: 64768 bytes;Region table: 240 bytes;IUM: 384 bytes;Total Storage= 65392 bytes;
RAS:
RAS size: 64
[LLC] INSTR Demand IPV: 1 2 2 1 4 Prefetch IPV: 1 2 1 1 4
[LLC] DATA  Demand IPV: 1 1 1 2 4 Prefetch IPV: 1 1 2 2 4
Berti Prefetcher
CPU 0 Entangling prefetcher
Off-chip DRAM Size: 8 GiB Channels: 2 Width: 64-bit Data Race: 6400 MT/s
[DUEL] Epoch ended. INSTR misses = 111, DATA misses = 112. Winner = INSTR
[DUEL] Epoch ended. INSTR misses = 136, DATA misses = 128. Winner = DATA
[DUEL] Epoch ended. INSTR misses = 108, DATA misses = 121. Winner = INSTR
[DUEL] Epoch ended. INSTR misses = 149, DATA misses = 146. Winner = DATA
[DUEL] Epoch ended. INSTR misses = 76, DATA misses = 83. Winner = INSTR
[DUEL] Epoch ended. INSTR misses = 113, DATA misses = 116. Winner = INSTR
[DUEL] Epoch ended. INSTR misses = 129, DATA misses = 141. Winner = INSTR
[DUEL] Epoch ended. INSTR misses = 152, DATA misses = 158. Winner = INSTR
[DUEL] Epoch ended. INSTR misses = 122, DATA misses = 135. Winner = INSTR
[DUEL] Epoch ended. INSTR misses = 103, DATA misses = 128. Winner = INSTR
[DUEL] Epoch ended. INSTR misses = 104, DATA misses = 96. Winner = DATA
[DUEL] Epoch ended. INSTR misses = 17, DATA misses = 15. Winner = DATA
[DUEL] Epoch ended. INSTR misses = 16, DATA misses = 13. Winner = DATA
[DUEL] Epoch ended. INSTR misses = 0, DATA misses = 0. Winner = INSTR
[DUEL] Epoch ended. INSTR misses = 1, DATA misses = 3. Winner = INSTR
[DUEL] Epoch ended. INSTR misses = 2, DATA misses = 3. Winner = INSTR
[DUEL] Epoch ended. INSTR misses = 17, DATA misses = 13. Winner = DATA
[DUEL] Epoch ended. INSTR misses = 26, DATA misses = 27. Winner = INSTR
[DUEL] Epoch ended. INSTR misses = 21, DATA misses = 15. Winner = DATA
[DUEL] Epoch ended. INSTR misses = 30, DATA misses = 30. Winner = INSTR
[DUEL] Epoch ended. INSTR misses = 3, DATA misses = 7. Winner = INSTR
[DUEL] Epoch ended. INSTR misses = 21, DATA misses = 13. Winner = DATA
[DUEL] Epoch ended. INSTR misses = 19, DATA misses = 15. Winner = DATA
[DUEL] Epoch ended. INSTR misses = 95, DATA misses = 113. Winner = INSTR
[DUEL] Epoch ended. INSTR misses = 127, DATA misses = 122. Winner = DATA
[DUEL] Epoch ended. INSTR misses = 71, DATA misses = 87. Winner = INSTR
[DUEL] Epoch ended. INSTR misses = 118, DATA misses = 118. Winner = INSTR
[DUEL] Epoch ended. INSTR misses = 115, DATA misses = 131. Winner = INSTR
[DUEL] Epoch ended. INSTR misses = 100, DATA misses = 94. Winner = DATA
[DUEL] Epoch ended. INSTR misses = 26, DATA misses = 31. Winner = INSTR
[DUEL] Epoch ended. INSTR misses = 8, DATA misses = 4. Winner = DATA
[DUEL] Epoch ended. INSTR misses = 17, DATA misses = 16. Winner = DATA
[DUEL] Epoch ended. INSTR misses = 0, DATA misses = 0. Winner = INSTR
[DUEL] Epoch ended. INSTR misses = 21, DATA misses = 23. Winner = INSTR
[DUEL] Epoch ended. INSTR misses = 0, DATA misses = 2. Winner = INSTR
[DUEL] Epoch ended. INSTR misses = 41, DATA misses = 46. Winner = INSTR
[DUEL] Epoch ended. INSTR misses = 28, DATA misses = 27. Winner = DATA
[DUEL] Epoch ended. INSTR misses = 38, DATA misses = 51. Winner = INSTR
[DUEL] Epoch ended. INSTR misses = 109, DATA misses = 114. Winner = INSTR
Heartbeat CPU 0 instructions: 10000002 cycles: 2093669 heartbeat IPC: 4.776 cumulative IPC: 4.776 (Simulation time: 00 hr 00 min 31 sec)
[DUEL] Epoch ended. INSTR misses = 34, DATA misses = 29. Winner = DATA
[DUEL] Epoch ended. INSTR misses = 31, DATA misses = 31. Winner = INSTR
[DUEL] Epoch ended. INSTR misses = 0, DATA misses = 0. Winner = INSTR
[DUEL] Epoch ended. INSTR misses = 1, DATA misses = 0. Winner = DATA
[DUEL] Epoch ended. INSTR misses = 0, DATA misses = 0. Winner = INSTR
[DUEL] Epoch ended. INSTR misses = 16, DATA misses = 18. Winner = INSTR
[DUEL] Epoch ended. INSTR misses = 13, DATA misses = 11. Winner = DATA
[DUEL] Epoch ended. INSTR misses = 61, DATA misses = 63. Winner = INSTR
[DUEL] Epoch ended. INSTR misses = 13, DATA misses = 6. Winner = DATA
[DUEL] Epoch ended. INSTR misses = 13, DATA misses = 11. Winner = DATA
[DUEL] Epoch ended. INSTR misses = 24, DATA misses = 24. Winner = INSTR
[DUEL] Epoch ended. INSTR misses = 18, DATA misses = 18. Winner = INSTR
[DUEL] Epoch ended. INSTR misses = 19, DATA misses = 26. Winner = INSTR
[DUEL] Epoch ended. INSTR misses = 78, DATA misses = 83. Winner = INSTR
[DUEL] Epoch ended. INSTR misses = 137, DATA misses = 134. Winner = DATA
[DUEL] Epoch ended. INSTR misses = 124, DATA misses = 137. Winner = INSTR
[DUEL] Epoch ended. INSTR misses = 98, DATA misses = 101. Winner = INSTR
[DUEL] Epoch ended. INSTR misses = 105, DATA misses = 116. Winner = INSTR
[DUEL] Epoch ended. INSTR misses = 112, DATA misses = 113. Winner = INSTR
[DUEL] Epoch ended. INSTR misses = 99, DATA misses = 112. Winner = INSTR
[DUEL] Epoch ended. INSTR misses = 148, DATA misses = 141. Winner = DATA
[DUEL] Epoch ended. INSTR misses = 113, DATA misses = 122. Winner = INSTR
[DUEL] Epoch ended. INSTR misses = 110, DATA misses = 131. Winner = INSTR
[DUEL] Epoch ended. INSTR misses = 118, DATA misses = 113. Winner = DATA
[DUEL] Epoch ended. INSTR misses = 79, DATA misses = 89. Winner = INSTR
[DUEL] Epoch ended. INSTR misses = 110, DATA misses = 117. Winner = INSTR
[DUEL] Epoch ended. INSTR misses = 108, DATA misses = 108. Winner = INSTR
[DUEL] Epoch ended. INSTR misses = 117, DATA misses = 124. Winner = INSTR
[DUEL] Epoch ended. INSTR misses = 60, DATA misses = 56. Winner = DATA
[DUEL] Epoch ended. INSTR misses = 19, DATA misses = 15. Winner = DATA
[DUEL] Epoch ended. INSTR misses = 11, DATA misses = 6. Winner = DATA
[DUEL] Epoch ended. INSTR misses = 0, DATA misses = 0. Winner = INSTR
[DUEL] Epoch ended. INSTR misses = 17, DATA misses = 11. Winner = DATA
[DUEL] Epoch ended. INSTR misses = 0, DATA misses = 6. Winner = INSTR
[DUEL] Epoch ended. INSTR misses = 17, DATA misses = 12. Winner = DATA
[DUEL] Epoch ended. INSTR misses = 55, DATA misses = 54. Winner = DATA
[DUEL] Epoch ended. INSTR misses = 33, DATA misses = 32. Winner = DATA
[DUEL] Epoch ended. INSTR misses = 18, DATA misses = 16. Winner = DATA
[DUEL] Epoch ended. INSTR misses = 9, DATA misses = 5. Winner = DATA
Heartbeat CPU 0 instructions: 20000000 cycles: 4205020 heartbeat IPC: 4.736 cumulative IPC: 4.756 (Simulation time: 00 hr 01 min 02 sec)
[DUEL] Epoch ended. INSTR misses = 25, DATA misses = 14. Winner = DATA
[DUEL] Epoch ended. INSTR misses = 31, DATA misses = 33. Winner = INSTR
[DUEL] Epoch ended. INSTR misses = 92, DATA misses = 91. Winner = DATA
[DUEL] Epoch ended. INSTR misses = 113, DATA misses = 109. Winner = DATA
[DUEL] Epoch ended. INSTR misses = 106, DATA misses = 105. Winner = DATA
[DUEL] Epoch ended. INSTR misses = 135, DATA misses = 132. Winner = DATA
[DUEL] Epoch ended. INSTR misses = 10, DATA misses = 11. Winner = INSTR
[DUEL] Epoch ended. INSTR misses = 31, DATA misses = 31. Winner = INSTR
[DUEL] Epoch ended. INSTR misses = 0, DATA misses = 0. Winner = INSTR
[DUEL] Epoch ended. INSTR misses = 10, DATA misses = 10. Winner = INSTR
[DUEL] Epoch ended. INSTR misses = 6, DATA misses = 7. Winner = INSTR
[DUEL] Epoch ended. INSTR misses = 13, DATA misses = 13. Winner = INSTR
[DUEL] Epoch ended. INSTR misses = 25, DATA misses = 22. Winner = DATA
[DUEL] Epoch ended. INSTR misses = 68, DATA misses = 62. Winner = DATA
[DUEL] Epoch ended. INSTR misses = 24, DATA misses = 21. Winner = DATA
[DUEL] Epoch ended. INSTR misses = 28, DATA misses = 27. Winner = DATA
[DUEL] Epoch ended. INSTR misses = 19, DATA misses = 12. Winner = DATA
[DUEL] Epoch ended. INSTR misses = 20, DATA misses = 29. Winner = INSTR
[DUEL] Epoch ended. INSTR misses = 95, DATA misses = 97. Winner = INSTR
[DUEL] Epoch ended. INSTR misses = 133, DATA misses = 124. Winner = DATA
[DUEL] Epoch ended. INSTR misses = 22, DATA misses = 12. Winner = DATA
[DUEL] Epoch ended. INSTR misses = 21, DATA misses = 16. Winner = DATA
[DUEL] Epoch ended. INSTR misses = 1, DATA misses = 1. Winner = INSTR
[DUEL] Epoch ended. INSTR misses = 5, DATA misses = 0. Winner = DATA
[DUEL] Epoch ended. INSTR misses = 21, DATA misses = 21. Winner = INSTR
[DUEL] Epoch ended. INSTR misses = 7, DATA misses = 0. Winner = DATA
[DUEL] Epoch ended. INSTR misses = 46, DATA misses = 32. Winner = DATA
[DUEL] Epoch ended. INSTR misses = 31, DATA misses = 28. Winner = DATA
[DUEL] Epoch ended. INSTR misses = 104, DATA misses = 98. Winner = DATA
[DUEL] Epoch ended. INSTR misses = 110, DATA misses = 100. Winner = DATA
[DUEL] Epoch ended. INSTR misses = 1, DATA misses = 10. Winner = INSTR
[DUEL] Epoch ended. INSTR misses = 14, DATA misses = 15. Winner = INSTR
[DUEL] Epoch ended. INSTR misses = 16, DATA misses = 16. Winner = INSTR
[DUEL] Epoch ended. INSTR misses = 21, DATA misses = 16. Winner = DATA
[DUEL] Epoch ended. INSTR misses = 18, DATA misses = 13. Winner = DATA
[DUEL] Epoch ended. INSTR misses = 7, DATA misses = 0. Winner = DATA
[DUEL] Epoch ended. INSTR misses = 72, DATA misses = 81. Winner = INSTR
[DUEL] Epoch ended. INSTR misses = 19, DATA misses = 27. Winner = INSTR
[DUEL] Epoch ended. INSTR misses = 102, DATA misses = 101. Winner = DATA
Heartbeat CPU 0 instructions: 30000004 cycles: 6312010 heartbeat IPC: 4.746 cumulative IPC: 4.753 (Simulation time: 00 hr 01 min 30 sec)
Warmup finished CPU 0 instructions: 30000004 cycles: 6312011 cumulative IPC: 4.753 (Simulation time: 00 hr 01 min 30 sec)
Warmup complete CPU 0 instructions: 30000004 cycles: 6312011 cumulative IPC: 4.753 (Simulation time: 00 hr 01 min 30 sec)
[DUEL] Epoch ended. INSTR misses = 118, DATA misses = 119. Winner = INSTR
*** Reached end of trace: (0, "../traces/public_traces/compute_int/compute_int_34.champsimtrace.xz")
[DUEL] Epoch ended. INSTR misses = 12, DATA misses = 11. Winner = DATA
[DUEL] Epoch ended. INSTR misses = 136, DATA misses = 129. Winner = DATA
[DUEL] Epoch ended. INSTR misses = 157, DATA misses = 151. Winner = DATA
[DUEL] Epoch ended. INSTR misses = 154, DATA misses = 125. Winner = DATA
[DUEL] Epoch ended. INSTR misses = 206, DATA misses = 198. Winner = DATA
[DUEL] Epoch ended. INSTR misses = 113, DATA misses = 100. Winner = DATA
[DUEL] Epoch ended. INSTR misses = 171, DATA misses = 159. Winner = DATA
[DUEL] Epoch ended. INSTR misses = 214, DATA misses = 207. Winner = DATA
[DUEL] Epoch ended. INSTR misses = 217, DATA misses = 214. Winner = DATA
[DUEL] Epoch ended. INSTR misses = 227, DATA misses = 222. Winner = DATA
[DUEL] Epoch ended. INSTR misses = 206, DATA misses = 196. Winner = DATA
[DUEL] Epoch ended. INSTR misses = 126, DATA misses = 130. Winner = INSTR
[DUEL] Epoch ended. INSTR misses = 16, DATA misses = 15. Winner = DATA
[DUEL] Epoch ended. INSTR misses = 16, DATA misses = 11. Winner = DATA
[DUEL] Epoch ended. INSTR misses = 1, DATA misses = 0. Winner = DATA
[DUEL] Epoch ended. INSTR misses = 4, DATA misses = 0. Winner = DATA
[DUEL] Epoch ended. INSTR misses = 1, DATA misses = 5. Winner = INSTR
[DUEL] Epoch ended. INSTR misses = 15, DATA misses = 13. Winner = DATA
[DUEL] Epoch ended. INSTR misses = 43, DATA misses = 32. Winner = DATA
[DUEL] Epoch ended. INSTR misses = 23, DATA misses = 11. Winner = DATA
[DUEL] Epoch ended. INSTR misses = 31, DATA misses = 31. Winner = INSTR
[DUEL] Epoch ended. INSTR misses = 9, DATA misses = 7. Winner = DATA
[DUEL] Epoch ended. INSTR misses = 19, DATA misses = 13. Winner = DATA
[DUEL] Epoch ended. INSTR misses = 22, DATA misses = 14. Winner = DATA
[DUEL] Epoch ended. INSTR misses = 139, DATA misses = 146. Winner = INSTR
[DUEL] Epoch ended. INSTR misses = 157, DATA misses = 157. Winner = INSTR
[DUEL] Epoch ended. INSTR misses = 147, DATA misses = 143. Winner = DATA
[DUEL] Epoch ended. INSTR misses = 177, DATA misses = 170. Winner = DATA
[DUEL] Epoch ended. INSTR misses = 206, DATA misses = 200. Winner = DATA
[DUEL] Epoch ended. INSTR misses = 138, DATA misses = 136. Winner = DATA
[DUEL] Epoch ended. INSTR misses = 25, DATA misses = 31. Winner = INSTR
[DUEL] Epoch ended. INSTR misses = 10, DATA misses = 4. Winner = DATA
[DUEL] Epoch ended. INSTR misses = 15, DATA misses = 13. Winner = DATA
[DUEL] Epoch ended. INSTR misses = 0, DATA misses = 0. Winner = INSTR
[DUEL] Epoch ended. INSTR misses = 21, DATA misses = 23. Winner = INSTR
[DUEL] Epoch ended. INSTR misses = 1, DATA misses = 2. Winner = INSTR
[DUEL] Epoch ended. INSTR misses = 65, DATA misses = 61. Winner = DATA
[DUEL] Epoch ended. INSTR misses = 25, DATA misses = 25. Winner = INSTR
Heartbeat CPU 0 instructions: 40000010 cycles: 18093779 heartbeat IPC: 0.8488 cumulative IPC: 0.8488 (Simulation time: 00 hr 03 min 06 sec)
[DUEL] Epoch ended. INSTR misses = 98, DATA misses = 102. Winner = INSTR
[DUEL] Epoch ended. INSTR misses = 154, DATA misses = 152. Winner = DATA
[DUEL] Epoch ended. INSTR misses = 32, DATA misses = 33. Winner = INSTR
[DUEL] Epoch ended. INSTR misses = 30, DATA misses = 30. Winner = INSTR
[DUEL] Epoch ended. INSTR misses = 0, DATA misses = 0. Winner = INSTR
[DUEL] Epoch ended. INSTR misses = 1, DATA misses = 0. Winner = DATA
[DUEL] Epoch ended. INSTR misses = 0, DATA misses = 0. Winner = INSTR
[DUEL] Epoch ended. INSTR misses = 29, DATA misses = 29. Winner = INSTR
[DUEL] Epoch ended. INSTR misses = 1, DATA misses = 0. Winner = DATA
[DUEL] Epoch ended. INSTR misses = 90, DATA misses = 78. Winner = DATA
[DUEL] Epoch ended. INSTR misses = 1, DATA misses = 0. Winner = DATA
[DUEL] Epoch ended. INSTR misses = 27, DATA misses = 15. Winner = DATA
[DUEL] Epoch ended. INSTR misses = 29, DATA misses = 37. Winner = INSTR
[DUEL] Epoch ended. INSTR misses = 1, DATA misses = 2. Winner = INSTR
[DUEL] Epoch ended. INSTR misses = 22, DATA misses = 24. Winner = INSTR
[DUEL] Epoch ended. INSTR misses = 130, DATA misses = 123. Winner = DATA
[DUEL] Epoch ended. INSTR misses = 196, DATA misses = 191. Winner = DATA
[DUEL] Epoch ended. INSTR misses = 222, DATA misses = 223. Winner = INSTR
[DUEL] Epoch ended. INSTR misses = 136, DATA misses = 126. Winner = DATA
[DUEL] Epoch ended. INSTR misses = 179, DATA misses = 177. Winner = DATA
[DUEL] Epoch ended. INSTR misses = 150, DATA misses = 153. Winner = INSTR
[DUEL] Epoch ended. INSTR misses = 179, DATA misses = 168. Winner = DATA
[DUEL] Epoch ended. INSTR misses = 202, DATA misses = 200. Winner = DATA
[DUEL] Epoch ended. INSTR misses = 218, DATA misses = 206. Winner = DATA
[DUEL] Epoch ended. INSTR misses = 208, DATA misses = 205. Winner = DATA
[DUEL] Epoch ended. INSTR misses = 186, DATA misses = 184. Winner = DATA
[DUEL] Epoch ended. INSTR misses = 140, DATA misses = 129. Winner = DATA
[DUEL] Epoch ended. INSTR misses = 186, DATA misses = 192. Winner = INSTR
[DUEL] Epoch ended. INSTR misses = 149, DATA misses = 143. Winner = DATA
[DUEL] Epoch ended. INSTR misses = 196, DATA misses = 197. Winner = INSTR
[DUEL] Epoch ended. INSTR misses = 66, DATA misses = 70. Winner = INSTR
[DUEL] Epoch ended. INSTR misses = 26, DATA misses = 20. Winner = DATA
[DUEL] Epoch ended. INSTR misses = 0, DATA misses = 0. Winner = INSTR
[DUEL] Epoch ended. INSTR misses = 1, DATA misses = 0. Winner = DATA
[DUEL] Epoch ended. INSTR misses = 13, DATA misses = 16. Winner = INSTR
[DUEL] Epoch ended. INSTR misses = 0, DATA misses = 0. Winner = INSTR
[DUEL] Epoch ended. INSTR misses = 17, DATA misses = 13. Winner = DATA
[DUEL] Epoch ended. INSTR misses = 72, DATA misses = 68. Winner = DATA
[DUEL] Epoch ended. INSTR misses = 32, DATA misses = 33. Winner = INSTR
Heartbeat CPU 0 instructions: 50000001 cycles: 30115507 heartbeat IPC: 0.8318 cumulative IPC: 0.8402 (Simulation time: 00 hr 04 min 41 sec)
[DUEL] Epoch ended. INSTR misses = 22, DATA misses = 17. Winner = DATA
[DUEL] Epoch ended. INSTR misses = 10, DATA misses = 13. Winner = INSTR
[DUEL] Epoch ended. INSTR misses = 16, DATA misses = 2. Winner = DATA
[DUEL] Epoch ended. INSTR misses = 47, DATA misses = 53. Winner = INSTR
[DUEL] Epoch ended. INSTR misses = 126, DATA misses = 117. Winner = DATA
[DUEL] Epoch ended. INSTR misses = 154, DATA misses = 163. Winner = INSTR
[DUEL] Epoch ended. INSTR misses = 173, DATA misses = 172. Winner = DATA
[DUEL] Epoch ended. INSTR misses = 180, DATA misses = 185. Winner = INSTR
[DUEL] Epoch ended. INSTR misses = 0, DATA misses = 0. Winner = INSTR
[DUEL] Epoch ended. INSTR misses = 30, DATA misses = 30. Winner = INSTR
[DUEL] Epoch ended. INSTR misses = 0, DATA misses = 0. Winner = INSTR
[DUEL] Epoch ended. INSTR misses = 10, DATA misses = 12. Winner = INSTR
[DUEL] Epoch ended. INSTR misses = 6, DATA misses = 7. Winner = INSTR
[DUEL] Epoch ended. INSTR misses = 13, DATA misses = 13. Winner = INSTR
[DUEL] Epoch ended. INSTR misses = 44, DATA misses = 42. Winner = DATA
[DUEL] Epoch ended. INSTR misses = 67, DATA misses = 54. Winner = DATA
[DUEL] Epoch ended. INSTR misses = 26, DATA misses = 30. Winner = INSTR
[DUEL] Epoch ended. INSTR misses = 20, DATA misses = 16. Winner = DATA
[DUEL] Epoch ended. INSTR misses = 19, DATA misses = 13. Winner = DATA
[DUEL] Epoch ended. INSTR misses = 23, DATA misses = 31. Winner = INSTR
[DUEL] Epoch ended. INSTR misses = 128, DATA misses = 119. Winner = DATA
[DUEL] Epoch ended. INSTR misses = 173, DATA misses = 175. Winner = INSTR
[DUEL] Epoch ended. INSTR misses = 14, DATA misses = 3. Winner = DATA
[DUEL] Epoch ended. INSTR misses = 21, DATA misses = 15. Winner = DATA
[DUEL] Epoch ended. INSTR misses = 1, DATA misses = 0. Winner = DATA
[DUEL] Epoch ended. INSTR misses = 5, DATA misses = 0. Winner = DATA
[DUEL] Epoch ended. INSTR misses = 21, DATA misses = 19. Winner = DATA
[DUEL] Epoch ended. INSTR misses = 26, DATA misses = 11. Winner = DATA
[DUEL] Epoch ended. INSTR misses = 41, DATA misses = 29. Winner = DATA
[DUEL] Epoch ended. INSTR misses = 48, DATA misses = 42. Winner = DATA
[DUEL] Epoch ended. INSTR misses = 157, DATA misses = 149. Winner = DATA
[DUEL] Epoch ended. INSTR misses = 135, DATA misses = 128. Winner = DATA
[DUEL] Epoch ended. INSTR misses = 1, DATA misses = 18. Winner = INSTR
[DUEL] Epoch ended. INSTR misses = 16, DATA misses = 9. Winner = DATA
[DUEL] Epoch ended. INSTR misses = 14, DATA misses = 16. Winner = INSTR
[DUEL] Epoch ended. INSTR misses = 18, DATA misses = 16. Winner = DATA
[DUEL] Epoch ended. INSTR misses = 16, DATA misses = 13. Winner = DATA
[DUEL] Epoch ended. INSTR misses = 10, DATA misses = 0. Winner = DATA
[DUEL] Epoch ended. INSTR misses = 92, DATA misses = 94. Winner = INSTR
Heartbeat CPU 0 instructions: 60000008 cycles: 38506294 heartbeat IPC: 1.192 cumulative IPC: 0.9318 (Simulation time: 00 hr 05 min 45 sec)
[DUEL] Epoch ended. INSTR misses = 27, DATA misses = 27. Winner = INSTR
[DUEL] Epoch ended. INSTR misses = 146, DATA misses = 152. Winner = INSTR
[DUEL] Epoch ended. INSTR misses = 118, DATA misses = 124. Winner = INSTR
*** Reached end of trace: (0, "../traces/public_traces/compute_int/compute_int_34.champsimtrace.xz")
[DUEL] Epoch ended. INSTR misses = 25, DATA misses = 21. Winner = DATA
[DUEL] Epoch ended. INSTR misses = 128, DATA misses = 126. Winner = DATA
[DUEL] Epoch ended. INSTR misses = 154, DATA misses = 149. Winner = DATA
[DUEL] Epoch ended. INSTR misses = 161, DATA misses = 133. Winner = DATA
[DUEL] Epoch ended. INSTR misses = 209, DATA misses = 206. Winner = DATA
[DUEL] Epoch ended. INSTR misses = 115, DATA misses = 101. Winner = DATA
[DUEL] Epoch ended. INSTR misses = 184, DATA misses = 170. Winner = DATA
[DUEL] Epoch ended. INSTR misses = 205, DATA misses = 202. Winner = DATA
[DUEL] Epoch ended. INSTR misses = 224, DATA misses = 215. Winner = DATA
[DUEL] Epoch ended. INSTR misses = 221, DATA misses = 215. Winner = DATA
[DUEL] Epoch ended. INSTR misses = 209, DATA misses = 196. Winner = DATA
[DUEL] Epoch ended. INSTR misses = 116, DATA misses = 118. Winner = INSTR
[DUEL] Epoch ended. INSTR misses = 15, DATA misses = 15. Winner = INSTR
[DUEL] Epoch ended. INSTR misses = 15, DATA misses = 13. Winner = DATA
[DUEL] Epoch ended. INSTR misses = 1, DATA misses = 0. Winner = DATA
[DUEL] Epoch ended. INSTR misses = 2, DATA misses = 0. Winner = DATA
[DUEL] Epoch ended. INSTR misses = 1, DATA misses = 16. Winner = INSTR
[DUEL] Epoch ended. INSTR misses = 15, DATA misses = 3. Winner = DATA
[DUEL] Epoch ended. INSTR misses = 48, DATA misses = 35. Winner = DATA
[DUEL] Epoch ended. INSTR misses = 24, DATA misses = 14. Winner = DATA
[DUEL] Epoch ended. INSTR misses = 31, DATA misses = 27. Winner = DATA
[DUEL] Epoch ended. INSTR misses = 10, DATA misses = 8. Winner = DATA
[DUEL] Epoch ended. INSTR misses = 18, DATA misses = 12. Winner = DATA
[DUEL] Epoch ended. INSTR misses = 37, DATA misses = 26. Winner = DATA
[DUEL] Epoch ended. INSTR misses = 135, DATA misses = 142. Winner = INSTR
[DUEL] Epoch ended. INSTR misses = 159, DATA misses = 160. Winner = INSTR
[DUEL] Epoch ended. INSTR misses = 150, DATA misses = 139. Winner = DATA
[DUEL] Epoch ended. INSTR misses = 185, DATA misses = 178. Winner = DATA
[DUEL] Epoch ended. INSTR misses = 208, DATA misses = 196. Winner = DATA
[DUEL] Epoch ended. INSTR misses = 117, DATA misses = 118. Winner = INSTR
[DUEL] Epoch ended. INSTR misses = 26, DATA misses = 31. Winner = INSTR
[DUEL] Epoch ended. INSTR misses = 11, DATA misses = 10. Winner = DATA
[DUEL] Epoch ended. INSTR misses = 15, DATA misses = 13. Winner = DATA
[DUEL] Epoch ended. INSTR misses = 0, DATA misses = 0. Winner = INSTR
[DUEL] Epoch ended. INSTR misses = 21, DATA misses = 22. Winner = INSTR
[DUEL] Epoch ended. INSTR misses = 18, DATA misses = 20. Winner = INSTR
Heartbeat CPU 0 instructions: 70000004 cycles: 50827682 heartbeat IPC: 0.8116 cumulative IPC: 0.8986 (Simulation time: 00 hr 07 min 24 sec)
[DUEL] Epoch ended. INSTR misses = 51, DATA misses = 42. Winner = DATA
[DUEL] Epoch ended. INSTR misses = 24, DATA misses = 25. Winner = INSTR
[DUEL] Epoch ended. INSTR misses = 89, DATA misses = 96. Winner = INSTR
[DUEL] Epoch ended. INSTR misses = 174, DATA misses = 174. Winner = INSTR
[DUEL] Epoch ended. INSTR misses = 10, DATA misses = 11. Winner = INSTR
[DUEL] Epoch ended. INSTR misses = 30, DATA misses = 30. Winner = INSTR
[DUEL] Epoch ended. INSTR misses = 0, DATA misses = 0. Winner = INSTR
[DUEL] Epoch ended. INSTR misses = 1, DATA misses = 0. Winner = DATA
[DUEL] Epoch ended. INSTR misses = 0, DATA misses = 0. Winner = INSTR
[DUEL] Epoch ended. INSTR misses = 29, DATA misses = 29. Winner = INSTR
[DUEL] Epoch ended. INSTR misses = 1, DATA misses = 0. Winner = DATA
[DUEL] Epoch ended. INSTR misses = 94, DATA misses = 78. Winner = DATA
[DUEL] Epoch ended. INSTR misses = 0, DATA misses = 0. Winner = INSTR
[DUEL] Epoch ended. INSTR misses = 29, DATA misses = 23. Winner = DATA
[DUEL] Epoch ended. INSTR misses = 28, DATA misses = 23. Winner = DATA
[DUEL] Epoch ended. INSTR misses = 1, DATA misses = 2. Winner = INSTR
[DUEL] Epoch ended. INSTR misses = 32, DATA misses = 35. Winner = INSTR
[DUEL] Epoch ended. INSTR misses = 132, DATA misses = 124. Winner = DATA
[DUEL] Epoch ended. INSTR misses = 197, DATA misses = 189. Winner = DATA
[DUEL] Epoch ended. INSTR misses = 226, DATA misses = 228. Winner = INSTR
[DUEL] Epoch ended. INSTR misses = 142, DATA misses = 135. Winner = DATA
[DUEL] Epoch ended. INSTR misses = 169, DATA misses = 166. Winner = DATA
[DUEL] Epoch ended. INSTR misses = 151, DATA misses = 151. Winner = INSTR
[DUEL] Epoch ended. INSTR misses = 180, DATA misses = 173. Winner = DATA
[DUEL] Epoch ended. INSTR misses = 205, DATA misses = 198. Winner = DATA
[DUEL] Epoch ended. INSTR misses = 232, DATA misses = 221. Winner = DATA
[DUEL] Epoch ended. INSTR misses = 209, DATA misses = 200. Winner = DATA
[DUEL] Epoch ended. INSTR misses = 164, DATA misses = 161. Winner = DATA
[DUEL] Epoch ended. INSTR misses = 164, DATA misses = 155. Winner = DATA
[DUEL] Epoch ended. INSTR misses = 168, DATA misses = 172. Winner = INSTR
[DUEL] Epoch ended. INSTR misses = 140, DATA misses = 131. Winner = DATA
[DUEL] Epoch ended. INSTR misses = 209, DATA misses = 207. Winner = DATA
[DUEL] Epoch ended. INSTR misses = 55, DATA misses = 56. Winner = INSTR
[DUEL] Epoch ended. INSTR misses = 28, DATA misses = 21. Winner = DATA
[DUEL] Epoch ended. INSTR misses = 0, DATA misses = 0. Winner = INSTR
[DUEL] Epoch ended. INSTR misses = 1, DATA misses = 0. Winner = DATA
[DUEL] Epoch ended. INSTR misses = 12, DATA misses = 16. Winner = INSTR
[DUEL] Epoch ended. INSTR misses = 10, DATA misses = 12. Winner = INSTR
[DUEL] Epoch ended. INSTR misses = 7, DATA misses = 1. Winner = DATA
Heartbeat CPU 0 instructions: 80000002 cycles: 62627633 heartbeat IPC: 0.8475 cumulative IPC: 0.8879 (Simulation time: 00 hr 08 min 57 sec)
[DUEL] Epoch ended. INSTR misses = 70, DATA misses = 68. Winner = DATA
[DUEL] Epoch ended. INSTR misses = 32, DATA misses = 35. Winner = INSTR
[DUEL] Epoch ended. INSTR misses = 21, DATA misses = 14. Winner = DATA
[DUEL] Epoch ended. INSTR misses = 19, DATA misses = 16. Winner = DATA
[DUEL] Epoch ended. INSTR misses = 8, DATA misses = 6. Winner = DATA
[DUEL] Epoch ended. INSTR misses = 58, DATA misses = 56. Winner = DATA
[DUEL] Epoch ended. INSTR misses = 131, DATA misses = 131. Winner = INSTR
[DUEL] Epoch ended. INSTR misses = 147, DATA misses = 150. Winner = INSTR
[DUEL] Epoch ended. INSTR misses = 176, DATA misses = 175. Winner = DATA
[DUEL] Epoch ended. INSTR misses = 163, DATA misses = 170. Winner = INSTR
[DUEL] Epoch ended. INSTR misses = 0, DATA misses = 0. Winner = INSTR
[DUEL] Epoch ended. INSTR misses = 30, DATA misses = 30. Winner = INSTR
[DUEL] Epoch ended. INSTR misses = 8, DATA misses = 6. Winner = DATA
[DUEL] Epoch ended. INSTR misses = 2, DATA misses = 6. Winner = INSTR
[DUEL] Epoch ended. INSTR misses = 6, DATA misses = 7. Winner = INSTR
[DUEL] Epoch ended. INSTR misses = 14, DATA misses = 13. Winner = DATA
[DUEL] Epoch ended. INSTR misses = 56, DATA misses = 53. Winner = DATA
[DUEL] Epoch ended. INSTR misses = 53, DATA misses = 44. Winner = DATA
[DUEL] Epoch ended. INSTR misses = 31, DATA misses = 29. Winner = DATA
[DUEL] Epoch ended. INSTR misses = 15, DATA misses = 14. Winner = DATA
[DUEL] Epoch ended. INSTR misses = 26, DATA misses = 16. Winner = DATA
[DUEL] Epoch ended. INSTR misses = 19, DATA misses = 30. Winner = INSTR
[DUEL] Epoch ended. INSTR misses = 132, DATA misses = 129. Winner = DATA
[DUEL] Epoch ended. INSTR misses = 159, DATA misses = 164. Winner = INSTR
[DUEL] Epoch ended. INSTR misses = 29, DATA misses = 17. Winner = DATA
[DUEL] Epoch ended. INSTR misses = 11, DATA misses = 0. Winner = DATA
[DUEL] Epoch ended. INSTR misses = 1, DATA misses = 0. Winner = DATA
[DUEL] Epoch ended. INSTR misses = 5, DATA misses = 0. Winner = DATA
[DUEL] Epoch ended. INSTR misses = 22, DATA misses = 19. Winner = DATA
[DUEL] Epoch ended. INSTR misses = 35, DATA misses = 24. Winner = DATA
[DUEL] Epoch ended. INSTR misses = 33, DATA misses = 19. Winner = DATA
[DUEL] Epoch ended. INSTR misses = 59, DATA misses = 58. Winner = DATA
[DUEL] Epoch ended. INSTR misses = 143, DATA misses = 136. Winner = DATA
[DUEL] Epoch ended. INSTR misses = 135, DATA misses = 128. Winner = DATA
[DUEL] Epoch ended. INSTR misses = 15, DATA misses = 24. Winner = INSTR
[DUEL] Epoch ended. INSTR misses = 15, DATA misses = 10. Winner = DATA
[DUEL] Epoch ended. INSTR misses = 1, DATA misses = 6. Winner = INSTR
[DUEL] Epoch ended. INSTR misses = 18, DATA misses = 16. Winner = DATA
[DUEL] Epoch ended. INSTR misses = 19, DATA misses = 13. Winner = DATA
Heartbeat CPU 0 instructions: 90000011 cycles: 70905848 heartbeat IPC: 1.208 cumulative IPC: 0.9289 (Simulation time: 00 hr 10 min 03 sec)
[DUEL] Epoch ended. INSTR misses = 35, DATA misses = 27. Winner = DATA
[DUEL] Epoch ended. INSTR misses = 68, DATA misses = 69. Winner = INSTR
[DUEL] Epoch ended. INSTR misses = 48, DATA misses = 52. Winner = INSTR
[DUEL] Epoch ended. INSTR misses = 137, DATA misses = 135. Winner = DATA
[DUEL] Epoch ended. INSTR misses = 106, DATA misses = 113. Winner = INSTR
*** Reached end of trace: (0, "../traces/public_traces/compute_int/compute_int_34.champsimtrace.xz")
[DUEL] Epoch ended. INSTR misses = 25, DATA misses = 21. Winner = DATA
[DUEL] Epoch ended. INSTR misses = 142, DATA misses = 138. Winner = DATA
[DUEL] Epoch ended. INSTR misses = 145, DATA misses = 138. Winner = DATA
[DUEL] Epoch ended. INSTR misses = 176, DATA misses = 146. Winner = DATA
[DUEL] Epoch ended. INSTR misses = 198, DATA misses = 191. Winner = DATA
[DUEL] Epoch ended. INSTR misses = 133, DATA misses = 121. Winner = DATA
[DUEL] Epoch ended. INSTR misses = 170, DATA misses = 160. Winner = DATA
[DUEL] Epoch ended. INSTR misses = 211, DATA misses = 202. Winner = DATA
[DUEL] Epoch ended. INSTR misses = 231, DATA misses = 218. Winner = DATA
[DUEL] Epoch ended. INSTR misses = 216, DATA misses = 218. Winner = INSTR
[DUEL] Epoch ended. INSTR misses = 215, DATA misses = 200. Winner = DATA
[DUEL] Epoch ended. INSTR misses = 89, DATA misses = 94. Winner = INSTR
[DUEL] Epoch ended. INSTR misses = 15, DATA misses = 15. Winner = INSTR
[DUEL] Epoch ended. INSTR misses = 16, DATA misses = 11. Winner = DATA
[DUEL] Epoch ended. INSTR misses = 1, DATA misses = 0. Winner = DATA
[DUEL] Epoch ended. INSTR misses = 4, DATA misses = 0. Winner = DATA
[DUEL] Epoch ended. INSTR misses = 14, DATA misses = 19. Winner = INSTR
[DUEL] Epoch ended. INSTR misses = 3, DATA misses = 0. Winner = DATA
[DUEL] Epoch ended. INSTR misses = 56, DATA misses = 44. Winner = DATA
[DUEL] Epoch ended. INSTR misses = 13, DATA misses = 4. Winner = DATA
[DUEL] Epoch ended. INSTR misses = 31, DATA misses = 29. Winner = DATA
[DUEL] Epoch ended. INSTR misses = 24, DATA misses = 18. Winner = DATA
[DUEL] Epoch ended. INSTR misses = 6, DATA misses = 0. Winner = DATA
[DUEL] Epoch ended. INSTR misses = 35, DATA misses = 26. Winner = DATA
[DUEL] Epoch ended. INSTR misses = 137, DATA misses = 148. Winner = INSTR
[DUEL] Epoch ended. INSTR misses = 158, DATA misses = 159. Winner = INSTR
[DUEL] Epoch ended. INSTR misses = 162, DATA misses = 150. Winner = DATA
[DUEL] Epoch ended. INSTR misses = 196, DATA misses = 193. Winner = DATA
[DUEL] Epoch ended. INSTR misses = 215, DATA misses = 200. Winner = DATA
[DUEL] Epoch ended. INSTR misses = 90, DATA misses = 94. Winner = INSTR
[DUEL] Epoch ended. INSTR misses = 36, DATA misses = 35. Winner = DATA
[DUEL] Epoch ended. INSTR misses = 0, DATA misses = 0. Winner = INSTR
[DUEL] Epoch ended. INSTR misses = 15, DATA misses = 13. Winner = DATA
[DUEL] Epoch ended. INSTR misses = 0, DATA misses = 0. Winner = INSTR
Heartbeat CPU 0 instructions: 100000007 cycles: 83210844 heartbeat IPC: 0.8127 cumulative IPC: 0.9103 (Simulation time: 00 hr 11 min 46 sec)
[DUEL] Epoch ended. INSTR misses = 22, DATA misses = 22. Winner = INSTR
[DUEL] Epoch ended. INSTR misses = 40, DATA misses = 39. Winner = DATA
[DUEL] Epoch ended. INSTR misses = 32, DATA misses = 24. Winner = DATA
[DUEL] Epoch ended. INSTR misses = 24, DATA misses = 24. Winner = INSTR
[DUEL] Epoch ended. INSTR misses = 126, DATA misses = 129. Winner = INSTR
[DUEL] Epoch ended. INSTR misses = 145, DATA misses = 143. Winner = DATA
[DUEL] Epoch ended. INSTR misses = 9, DATA misses = 11. Winner = INSTR
[DUEL] Epoch ended. INSTR misses = 30, DATA misses = 30. Winner = INSTR
[DUEL] Epoch ended. INSTR misses = 0, DATA misses = 0. Winner = INSTR
[DUEL] Epoch ended. INSTR misses = 1, DATA misses = 0. Winner = DATA
[DUEL] Epoch ended. INSTR misses = 0, DATA misses = 0. Winner = INSTR
[DUEL] Epoch ended. INSTR misses = 29, DATA misses = 29. Winner = INSTR
[DUEL] Epoch ended. INSTR misses = 0, DATA misses = 1. Winner = INSTR
[DUEL] Epoch ended. INSTR misses = 95, DATA misses = 79. Winner = DATA
[DUEL] Epoch ended. INSTR misses = 0, DATA misses = 0. Winner = INSTR
[DUEL] Epoch ended. INSTR misses = 28, DATA misses = 26. Winner = DATA
[DUEL] Epoch ended. INSTR misses = 29, DATA misses = 28. Winner = DATA
[DUEL] Epoch ended. INSTR misses = 3, DATA misses = 5. Winner = INSTR
[DUEL] Epoch ended. INSTR misses = 46, DATA misses = 44. Winner = DATA
[DUEL] Epoch ended. INSTR misses = 133, DATA misses = 124. Winner = DATA
[DUEL] Epoch ended. INSTR misses = 206, DATA misses = 197. Winner = DATA
[DUEL] Epoch ended. INSTR misses = 207, DATA misses = 207. Winner = INSTR
[DUEL] Epoch ended. INSTR misses = 160, DATA misses = 149. Winner = DATA
[DUEL] Epoch ended. INSTR misses = 169, DATA misses = 173. Winner = INSTR
[DUEL] Epoch ended. INSTR misses = 149, DATA misses = 145. Winner = DATA
[DUEL] Epoch ended. INSTR misses = 164, DATA misses = 161. Winner = DATA
[DUEL] Epoch ended. INSTR misses = 214, DATA misses = 210. Winner = DATA
[DUEL] Epoch ended. INSTR misses = 217, DATA misses = 211. Winner = DATA
[DUEL] Epoch ended. INSTR misses = 209, DATA misses = 196. Winner = DATA
[DUEL] Epoch ended. INSTR misses = 170, DATA misses = 169. Winner = DATA
[DUEL] Epoch ended. INSTR misses = 163, DATA misses = 156. Winner = DATA
[DUEL] Epoch ended. INSTR misses = 178, DATA misses = 183. Winner = INSTR
[DUEL] Epoch ended. INSTR misses = 150, DATA misses = 138. Winner = DATA
[DUEL] Epoch ended. INSTR misses = 204, DATA misses = 207. Winner = INSTR
[DUEL] Epoch ended. INSTR misses = 31, DATA misses = 31. Winner = INSTR
[DUEL] Epoch ended. INSTR misses = 29, DATA misses = 22. Winner = DATA
[DUEL] Epoch ended. INSTR misses = 0, DATA misses = 0. Winner = INSTR
[DUEL] Epoch ended. INSTR misses = 1, DATA misses = 0. Winner = DATA
[DUEL] Epoch ended. INSTR misses = 12, DATA misses = 16. Winner = INSTR
Heartbeat CPU 0 instructions: 110000009 cycles: 95080184 heartbeat IPC: 0.8425 cumulative IPC: 0.9012 (Simulation time: 00 hr 13 min 25 sec)
[DUEL] Epoch ended. INSTR misses = 13, DATA misses = 13. Winner = INSTR
[DUEL] Epoch ended. INSTR misses = 4, DATA misses = 0. Winner = DATA
[DUEL] Epoch ended. INSTR misses = 86, DATA misses = 78. Winner = DATA
[DUEL] Epoch ended. INSTR misses = 16, DATA misses = 26. Winner = INSTR
[DUEL] Epoch ended. INSTR misses = 27, DATA misses = 15. Winner = DATA
[DUEL] Epoch ended. INSTR misses = 14, DATA misses = 15. Winner = INSTR
[DUEL] Epoch ended. INSTR misses = 16, DATA misses = 13. Winner = DATA
[DUEL] Epoch ended. INSTR misses = 60, DATA misses = 63. Winner = INSTR
[DUEL] Epoch ended. INSTR misses = 133, DATA misses = 125. Winner = DATA
[DUEL] Epoch ended. INSTR misses = 158, DATA misses = 154. Winner = DATA
[DUEL] Epoch ended. INSTR misses = 171, DATA misses = 163. Winner = DATA
[DUEL] Epoch ended. INSTR misses = 154, DATA misses = 162. Winner = INSTR
[DUEL] Epoch ended. INSTR misses = 0, DATA misses = 0. Winner = INSTR
[DUEL] Epoch ended. INSTR misses = 30, DATA misses = 30. Winner = INSTR
[DUEL] Epoch ended. INSTR misses = 8, DATA misses = 9. Winner = INSTR
[DUEL] Epoch ended. INSTR misses = 2, DATA misses = 1. Winner = DATA
[DUEL] Epoch ended. INSTR misses = 6, DATA misses = 7. Winner = INSTR
[DUEL] Epoch ended. INSTR misses = 14, DATA misses = 13. Winner = DATA
[DUEL] Epoch ended. INSTR misses = 65, DATA misses = 64. Winner = DATA
[DUEL] Epoch ended. INSTR misses = 41, DATA misses = 38. Winner = DATA
[DUEL] Epoch ended. INSTR misses = 31, DATA misses = 27. Winner = DATA
[DUEL] Epoch ended. INSTR misses = 17, DATA misses = 14. Winner = DATA
[DUEL] Epoch ended. INSTR misses = 24, DATA misses = 16. Winner = DATA
[DUEL] Epoch ended. INSTR misses = 18, DATA misses = 29. Winner = INSTR
[DUEL] Epoch ended. INSTR misses = 136, DATA misses = 126. Winner = DATA
[DUEL] Epoch ended. INSTR misses = 160, DATA misses = 166. Winner = INSTR
[DUEL] Epoch ended. INSTR misses = 29, DATA misses = 18. Winner = DATA
[DUEL] Epoch ended. INSTR misses = 6, DATA misses = 0. Winner = DATA
[DUEL] Epoch ended. INSTR misses = 6, DATA misses = 0. Winner = DATA
[DUEL] Epoch ended. INSTR misses = 0, DATA misses = 0. Winner = INSTR
[DUEL] Epoch ended. INSTR misses = 21, DATA misses = 17. Winner = DATA
[DUEL] Epoch ended. INSTR misses = 36, DATA misses = 23. Winner = DATA
[DUEL] Epoch ended. INSTR misses = 35, DATA misses = 19. Winner = DATA
[DUEL] Epoch ended. INSTR misses = 64, DATA misses = 66. Winner = INSTR
[DUEL] Epoch ended. INSTR misses = 147, DATA misses = 137. Winner = DATA
[DUEL] Epoch ended. INSTR misses = 120, DATA misses = 118. Winner = DATA
[DUEL] Epoch ended. INSTR misses = 15, DATA misses = 21. Winner = INSTR
[DUEL] Epoch ended. INSTR misses = 15, DATA misses = 14. Winner = DATA
[DUEL] Epoch ended. INSTR misses = 1, DATA misses = 1. Winner = INSTR
Heartbeat CPU 0 instructions: 120000009 cycles: 103488818 heartbeat IPC: 1.189 cumulative IPC: 0.9261 (Simulation time: 00 hr 14 min 33 sec)
[DUEL] Epoch ended. INSTR misses = 20, DATA misses = 16. Winner = DATA
[DUEL] Epoch ended. INSTR misses = 20, DATA misses = 13. Winner = DATA
[DUEL] Epoch ended. INSTR misses = 40, DATA misses = 39. Winner = DATA
[DUEL] Epoch ended. INSTR misses = 53, DATA misses = 55. Winner = INSTR
[DUEL] Epoch ended. INSTR misses = 59, DATA misses = 65. Winner = INSTR
[DUEL] Epoch ended. INSTR misses = 124, DATA misses = 125. Winner = INSTR
[DUEL] Epoch ended. INSTR misses = 107, DATA misses = 112. Winner = INSTR
*** Reached end of trace: (0, "../traces/public_traces/compute_int/compute_int_34.champsimtrace.xz")
[DUEL] Epoch ended. INSTR misses = 39, DATA misses = 29. Winner = DATA
[DUEL] Epoch ended. INSTR misses = 130, DATA misses = 130. Winner = INSTR
[DUEL] Epoch ended. INSTR misses = 154, DATA misses = 151. Winner = DATA
[DUEL] Epoch ended. INSTR misses = 177, DATA misses = 147. Winner = DATA
[DUEL] Epoch ended. INSTR misses = 187, DATA misses = 180. Winner = DATA
[DUEL] Epoch ended. INSTR misses = 144, DATA misses = 129. Winner = DATA
[DUEL] Epoch ended. INSTR misses = 184, DATA misses = 174. Winner = DATA
[DUEL] Epoch ended. INSTR misses = 209, DATA misses = 196. Winner = DATA
[DUEL] Epoch ended. INSTR misses = 222, DATA misses = 208. Winner = DATA
[DUEL] Epoch ended. INSTR misses = 220, DATA misses = 223. Winner = INSTR
[DUEL] Epoch ended. INSTR misses = 221, DATA misses = 206. Winner = DATA
[DUEL] Epoch ended. INSTR misses = 65, DATA misses = 76. Winner = INSTR
[DUEL] Epoch ended. INSTR misses = 15, DATA misses = 15. Winner = INSTR
[DUEL] Epoch ended. INSTR misses = 15, DATA misses = 12. Winner = DATA
[DUEL] Epoch ended. INSTR misses = 3, DATA misses = 0. Winner = DATA
[DUEL] Epoch ended. INSTR misses = 0, DATA misses = 0. Winner = INSTR
[DUEL] Epoch ended. INSTR misses = 17, DATA misses = 18. Winner = INSTR
[DUEL] Epoch ended. INSTR misses = 4, DATA misses = 3. Winner = DATA
[DUEL] Epoch ended. INSTR misses = 56, DATA misses = 43. Winner = DATA
[DUEL] Epoch ended. INSTR misses = 19, DATA misses = 0. Winner = DATA
[DUEL] Epoch ended. INSTR misses = 21, DATA misses = 32. Winner = INSTR
[DUEL] Epoch ended. INSTR misses = 24, DATA misses = 18. Winner = DATA
[DUEL] Epoch ended. INSTR misses = 5, DATA misses = 0. Winner = DATA
[DUEL] Epoch ended. INSTR misses = 55, DATA misses = 40. Winner = DATA
[DUEL] Epoch ended. INSTR misses = 130, DATA misses = 146. Winner = INSTR
[DUEL] Epoch ended. INSTR misses = 144, DATA misses = 145. Winner = INSTR
[DUEL] Epoch ended. INSTR misses = 173, DATA misses = 164. Winner = DATA
[DUEL] Epoch ended. INSTR misses = 201, DATA misses = 194. Winner = DATA
[DUEL] Epoch ended. INSTR misses = 210, DATA misses = 194. Winner = DATA
[DUEL] Epoch ended. INSTR misses = 79, DATA misses = 85. Winner = INSTR
[DUEL] Epoch ended. INSTR misses = 33, DATA misses = 34. Winner = INSTR
[DUEL] Epoch ended. INSTR misses = 0, DATA misses = 0. Winner = INSTR
Heartbeat CPU 0 instructions: 130000010 cycles: 116022915 heartbeat IPC: 0.7978 cumulative IPC: 0.9115 (Simulation time: 00 hr 16 min 18 sec)
Simulation finished CPU 0 instructions: 100000006 cycles: 109710905 cumulative IPC: 0.9115 (Simulation time: 00 hr 16 min 18 sec)
Simulation complete CPU 0 instructions: 100000006 cycles: 109710905 cumulative IPC: 0.9115 (Simulation time: 00 hr 16 min 18 sec)

ChampSim completed all CPUs

=== Simulation ===
CPU 0 runs ../traces/public_traces/compute_int/compute_int_34.champsimtrace.xz
Region of Interest Statistics

CPU 0 cumulative IPC: 0.9115 instructions: 100000006 cycles: 109710905
CPU 0 Branch Prediction Accuracy: 97.48% MPKI: 3.2 Average ROB Occupancy at Mispredict: 81.44
Branch type MPKI
BRANCH_DIRECT_JUMP: 0
BRANCH_INDIRECT: 2.6
BRANCH_CONDITIONAL: 0.602
BRANCH_DIRECT_CALL: 0
BRANCH_INDIRECT_CALL: 0
BRANCH_RETURN: 0

LLC TOTAL        ACCESS:    9401032 HIT:    2191231 MISS:    7209801
LLC LOAD         ACCESS:    2559869 HIT:     738670 MISS:    1821199
LLC RFO          ACCESS:     524219 HIT:      35225 MISS:     488994
LLC PREFETCH     ACCESS:    5631611 HIT:    1296032 MISS:    4335579
LLC WRITE        ACCESS:     676483 HIT:     119606 MISS:     556877
LLC TRANSLATION  ACCESS:       8850 HIT:       1698 MISS:       7152
LLC PREFETCH REQUESTED:          0 ISSUED:          0 USEFUL:          0 USELESS:          0
LLC AVERAGE MISS LATENCY: 363.2 cycles
cpu0_DTLB TOTAL        ACCESS:   26334775 HIT:   25970460 MISS:     364315
cpu0_DTLB LOAD         ACCESS:   26334775 HIT:   25970460 MISS:     364315
cpu0_DTLB RFO          ACCESS:          0 HIT:          0 MISS:          0
cpu0_DTLB PREFETCH     ACCESS:          0 HIT:          0 MISS:          0
cpu0_DTLB WRITE        ACCESS:          0 HIT:          0 MISS:          0
cpu0_DTLB TRANSLATION  ACCESS:          0 HIT:          0 MISS:          0
cpu0_DTLB PREFETCH REQUESTED:          0 ISSUED:          0 USEFUL:          0 USELESS:          0
cpu0_DTLB AVERAGE MISS LATENCY: 12.26 cycles
cpu0_ITLB TOTAL        ACCESS:      66435 HIT:      66435 MISS:          0
cpu0_ITLB LOAD         ACCESS:      66435 HIT:      66435 MISS:          0
cpu0_ITLB RFO          ACCESS:          0 HIT:          0 MISS:          0
cpu0_ITLB PREFETCH     ACCESS:          0 HIT:          0 MISS:          0
cpu0_ITLB WRITE        ACCESS:          0 HIT:          0 MISS:          0
cpu0_ITLB TRANSLATION  ACCESS:          0 HIT:          0 MISS:          0
cpu0_ITLB PREFETCH REQUESTED:          0 ISSUED:          0 USEFUL:          0 USELESS:          0
cpu0_ITLB AVERAGE MISS LATENCY: -nan cycles
cpu0_L1D TOTAL        ACCESS:   50339610 HIT:   35009323 MISS:   15330287
cpu0_L1D LOAD         ACCESS:   19417092 HIT:   15086475 MISS:    4330617
cpu0_L1D RFO          ACCESS:          0 HIT:          0 MISS:          0
cpu0_L1D PREFETCH     ACCESS:   14342460 HIT:    5330898 MISS:    9011562
cpu0_L1D WRITE        ACCESS:   16527653 HIT:   14565517 MISS:    1962136
cpu0_L1D TRANSLATION  ACCESS:      52405 HIT:      26433 MISS:      25972
cpu0_L1D PREFETCH REQUESTED:  217487497 ISSUED:   14342460 USEFUL:    1738004 USELESS:     168615
cpu0_L1D AVERAGE MISS LATENCY: 72.53 cycles
cpu0_L1I TOTAL        ACCESS:      92164 HIT:      91682 MISS:        482
cpu0_L1I LOAD         ACCESS:      37647 HIT:      37393 MISS:        254
cpu0_L1I RFO          ACCESS:          0 HIT:          0 MISS:          0
cpu0_L1I PREFETCH     ACCESS:      54517 HIT:      54289 MISS:        228
cpu0_L1I WRITE        ACCESS:          0 HIT:          0 MISS:          0
cpu0_L1I TRANSLATION  ACCESS:          0 HIT:          0 MISS:          0
cpu0_L1I PREFETCH REQUESTED:      55693 ISSUED:      54517 USEFUL:        160 USELESS:          0
cpu0_L1I AVERAGE MISS LATENCY: 140.8 cycles
cpu0_L2C TOTAL        ACCESS:   25036465 HIT:   11270493 MISS:   13765972
cpu0_L2C LOAD         ACCESS:    3761416 HIT:     816890 MISS:    2944526
cpu0_L2C RFO          ACCESS:     554288 HIT:      28308 MISS:     525980
cpu0_L2C PREFETCH     ACCESS:   19956116 HIT:    9670378 MISS:   10285738
cpu0_L2C WRITE        ACCESS:     738681 HIT:     737803 MISS:        878
cpu0_L2C TRANSLATION  ACCESS:      25964 HIT:      17114 MISS:       8850
cpu0_L2C PREFETCH REQUESTED:   14223794 ISSUED:   11434391 USEFUL:     992441 USELESS:    2176092
cpu0_L2C AVERAGE MISS LATENCY: 197.2 cycles
cpu0_STLB TOTAL        ACCESS:     181608 HIT:     129455 MISS:      52153
cpu0_STLB LOAD         ACCESS:     181608 HIT:     129455 MISS:      52153
cpu0_STLB RFO          ACCESS:          0 HIT:          0 MISS:          0
cpu0_STLB PREFETCH     ACCESS:          0 HIT:          0 MISS:          0
cpu0_STLB WRITE        ACCESS:          0 HIT:          0 MISS:          0
cpu0_STLB TRANSLATION  ACCESS:          0 HIT:          0 MISS:          0
cpu0_STLB PREFETCH REQUESTED:          0 ISSUED:          0 USEFUL:          0 USELESS:          0
cpu0_STLB AVERAGE MISS LATENCY: 109.3 cycles

DRAM Statistics

Channel 0 RQ ROW_BUFFER_HIT:    2322177
  ROW_BUFFER_MISS:    1004812
 AVG DBUS CONGESTED CYCLE: 3.953
WQ ROW_BUFFER_HIT: Channel 0 
  ROW_BUFFER_MISS:      76032
  FULL:     238220

Channel 1 RQ ROW_BUFFER_HIT:    2321467
  ROW_BUFFER_MISS:    1004216
 AVG DBUS CONGESTED CYCLE: 3.951
WQ ROW_BUFFER_HIT: Channel 1 
  ROW_BUFFER_MISS:      77387
  FULL:     236185
BERTI TO_L1: 9854785 TO_L2: 222024802 TO_L2_BC_MSHR: 101985275
BERTI AVG_LAT: 166.558 NUM_TRACK_LATENCY: 7283956 NUM_CANT_TRACK_LATENCY: 481
BERTI CROSS_PAGE 57337946 NO_CROSS_PAGE: 174541641
BERTI FOUND_BERTI: 51763124 NO_FOUND_BERTI: 8687157
BERTI AVERAGE_ISSUED: 3.39738
CPU 0 L1I Entangling prefetcher final stats
IP accesses: 90 2400 5872 / 37647
IP misses: 3f12 fc480 14 / 254
IP hits: 0 0 0 / 0
IP late: 87 21c0 3 / 149
IP wrong: 0 0 0 / 0
miss rate: 0.00674689
coverage: 0
coverage_late: 0.586615
accuracy: 0
accuracy_late: 1
discarded: 0
evicts entangled j table: 0
evicts entangled k table: 7
max bb size: 9
formats: 8 0 12 3 0 4 0 
hist_lookups: 2 1 8 7 3 4 4 5 2 5 6 4 0 0 0 0 0 225 
hist_lookups_evict: 0 %
hist_lookups_shortlat: 81.5218 %
bb_found_hist: 0 6151 1497 991 1390 134 42 6 0 2 0 0 0 0 0 0 0 0 0 0 0 0 0 0 0 0 0 0 0 0 0 0 0 0 0 0 0 0 0 0 0 0 0 0 0 0 0 0 0 0 0 0 0 0 0 0 0 0 0 0 0 0 0 0 
bb_found_summary: 18660 10213 1.82709
entangled_found_hist: 0 5438 1748 1934 116 0 0 0 
entangled_found_summary: 15200 9236 1.64574
bb_ent_found_hist: 0 4478 1104 2356 5 90 3 1118 0 0 0 0 0 0 0 0 0 0 0 0 0 0 0 0 0 0 0 0 0 0 0 0 0 0 0 0 0 0 0 0 0 0 0 0 0 0 0 0 0 0 0 0 0 0 0 0 0 0 0 0 0 0 0 0 
bb_ent_found_summary: 22068 9154 2.41075
