WARNING: physical memory size is smaller than virtual memory size.

*** ChampSim Multicore Out-of-Order Simulator ***
Warmup Instructions: 30000000
Simulation Instructions: 100000000
Number of CPUs: 1
Page size: 4096

BTB:
Basic BTB sets: 1024 ways: 8
Indirect:
history lengths: 0 0 10 16 27 44 60 96 109 219 449 487 714 1313 2146 3881 
ITTAGE tables: 64768 bytes;Region table: 240 bytes;IUM: 384 bytes;Total Storage= 65392 bytes;
RAS:
RAS size: 64
[LLC] INSTR Demand IPV: 1 2 2 1 4 Prefetch IPV: 1 2 1 1 4
[LLC] DATA  Demand IPV: 1 1 1 2 4 Prefetch IPV: 1 1 2 2 4
Berti Prefetcher
CPU 0 Entangling prefetcher
Off-chip DRAM Size: 8 GiB Channels: 2 Width: 64-bit Data Race: 6400 MT/s
[DUEL] Epoch ended. INSTR misses = 15, DATA misses = 13. Winner = DATA
[DUEL] Epoch ended. INSTR misses = 4, DATA misses = 4. Winner = INSTR
[DUEL] Epoch ended. INSTR misses = 3, DATA misses = 36. Winner = INSTR
[DUEL] Epoch ended. INSTR misses = 17, DATA misses = 25. Winner = INSTR
[DUEL] Epoch ended. INSTR misses = 36, DATA misses = 31. Winner = DATA
[DUEL] Epoch ended. INSTR misses = 10, DATA misses = 8. Winner = DATA
[DUEL] Epoch ended. INSTR misses = 0, DATA misses = 3. Winner = INSTR
[DUEL] Epoch ended. INSTR misses = 19, DATA misses = 14. Winner = DATA
[DUEL] Epoch ended. INSTR misses = 14, DATA misses = 3. Winner = DATA
[DUEL] Epoch ended. INSTR misses = 11, DATA misses = 5. Winner = DATA
[DUEL] Epoch ended. INSTR misses = 25, DATA misses = 27. Winner = INSTR
[DUEL] Epoch ended. INSTR misses = 10, DATA misses = 15. Winner = INSTR
[DUEL] Epoch ended. INSTR misses = 23, DATA misses = 33. Winner = INSTR
[DUEL] Epoch ended. INSTR misses = 16, DATA misses = 29. Winner = INSTR
[DUEL] Epoch ended. INSTR misses = 12, DATA misses = 26. Winner = INSTR
[DUEL] Epoch ended. INSTR misses = 5, DATA misses = 14. Winner = INSTR
[DUEL] Epoch ended. INSTR misses = 11, DATA misses = 9. Winner = DATA
[DUEL] Epoch ended. INSTR misses = 18, DATA misses = 19. Winner = INSTR
[DUEL] Epoch ended. INSTR misses = 25, DATA misses = 39. Winner = INSTR
[DUEL] Epoch ended. INSTR misses = 16, DATA misses = 9. Winner = DATA
[DUEL] Epoch ended. INSTR misses = 29, DATA misses = 13. Winner = DATA
[DUEL] Epoch ended. INSTR misses = 13, DATA misses = 16. Winner = INSTR
[DUEL] Epoch ended. INSTR misses = 19, DATA misses = 11. Winner = DATA
[DUEL] Epoch ended. INSTR misses = 34, DATA misses = 34. Winner = INSTR
[DUEL] Epoch ended. INSTR misses = 35, DATA misses = 45. Winner = INSTR
[DUEL] Epoch ended. INSTR misses = 15, DATA misses = 11. Winner = DATA
[DUEL] Epoch ended. INSTR misses = 33, DATA misses = 25. Winner = DATA
[DUEL] Epoch ended. INSTR misses = 18, DATA misses = 25. Winner = INSTR
[DUEL] Epoch ended. INSTR misses = 22, DATA misses = 27. Winner = INSTR
[DUEL] Epoch ended. INSTR misses = 45, DATA misses = 28. Winner = DATA
[DUEL] Epoch ended. INSTR misses = 44, DATA misses = 19. Winner = DATA
[DUEL] Epoch ended. INSTR misses = 30, DATA misses = 7. Winner = DATA
[DUEL] Epoch ended. INSTR misses = 35, DATA misses = 33. Winner = DATA
[DUEL] Epoch ended. INSTR misses = 12, DATA misses = 26. Winner = INSTR
[DUEL] Epoch ended. INSTR misses = 20, DATA misses = 44. Winner = INSTR
[DUEL] Epoch ended. INSTR misses = 37, DATA misses = 25. Winner = DATA
[DUEL] Epoch ended. INSTR misses = 14, DATA misses = 14. Winner = INSTR
[DUEL] Epoch ended. INSTR misses = 28, DATA misses = 15. Winner = DATA
[DUEL] Epoch ended. INSTR misses = 33, DATA misses = 18. Winner = DATA
Heartbeat CPU 0 instructions: 10000000 cycles: 1770763 heartbeat IPC: 5.647 cumulative IPC: 5.647 (Simulation time: 00 hr 00 min 24 sec)
[DUEL] Epoch ended. INSTR misses = 19, DATA misses = 15. Winner = DATA
[DUEL] Epoch ended. INSTR misses = 34, DATA misses = 27. Winner = DATA
[DUEL] Epoch ended. INSTR misses = 12, DATA misses = 23. Winner = INSTR
[DUEL] Epoch ended. INSTR misses = 24, DATA misses = 19. Winner = DATA
[DUEL] Epoch ended. INSTR misses = 51, DATA misses = 42. Winner = DATA
[DUEL] Epoch ended. INSTR misses = 17, DATA misses = 23. Winner = INSTR
[DUEL] Epoch ended. INSTR misses = 42, DATA misses = 38. Winner = DATA
[DUEL] Epoch ended. INSTR misses = 15, DATA misses = 18. Winner = INSTR
[DUEL] Epoch ended. INSTR misses = 24, DATA misses = 42. Winner = INSTR
[DUEL] Epoch ended. INSTR misses = 20, DATA misses = 30. Winner = INSTR
[DUEL] Epoch ended. INSTR misses = 32, DATA misses = 25. Winner = DATA
[DUEL] Epoch ended. INSTR misses = 38, DATA misses = 43. Winner = INSTR
[DUEL] Epoch ended. INSTR misses = 10, DATA misses = 16. Winner = INSTR
[DUEL] Epoch ended. INSTR misses = 9, DATA misses = 30. Winner = INSTR
[DUEL] Epoch ended. INSTR misses = 29, DATA misses = 27. Winner = DATA
[DUEL] Epoch ended. INSTR misses = 17, DATA misses = 27. Winner = INSTR
[DUEL] Epoch ended. INSTR misses = 3, DATA misses = 16. Winner = INSTR
[DUEL] Epoch ended. INSTR misses = 28, DATA misses = 26. Winner = DATA
[DUEL] Epoch ended. INSTR misses = 18, DATA misses = 13. Winner = DATA
[DUEL] Epoch ended. INSTR misses = 27, DATA misses = 18. Winner = DATA
[DUEL] Epoch ended. INSTR misses = 25, DATA misses = 41. Winner = INSTR
[DUEL] Epoch ended. INSTR misses = 47, DATA misses = 37. Winner = DATA
[DUEL] Epoch ended. INSTR misses = 52, DATA misses = 39. Winner = DATA
[DUEL] Epoch ended. INSTR misses = 26, DATA misses = 27. Winner = INSTR
[DUEL] Epoch ended. INSTR misses = 106, DATA misses = 114. Winner = INSTR
[DUEL] Epoch ended. INSTR misses = 152, DATA misses = 160. Winner = INSTR
[DUEL] Epoch ended. INSTR misses = 4, DATA misses = 4. Winner = INSTR
[DUEL] Epoch ended. INSTR misses = 4, DATA misses = 9. Winner = INSTR
[DUEL] Epoch ended. INSTR misses = 27, DATA misses = 41. Winner = INSTR
[DUEL] Epoch ended. INSTR misses = 28, DATA misses = 17. Winner = DATA
[DUEL] Epoch ended. INSTR misses = 40, DATA misses = 45. Winner = INSTR
[DUEL] Epoch ended. INSTR misses = 13, DATA misses = 24. Winner = INSTR
[DUEL] Epoch ended. INSTR misses = 24, DATA misses = 33. Winner = INSTR
[DUEL] Epoch ended. INSTR misses = 30, DATA misses = 25. Winner = DATA
[DUEL] Epoch ended. INSTR misses = 28, DATA misses = 39. Winner = INSTR
[DUEL] Epoch ended. INSTR misses = 16, DATA misses = 19. Winner = INSTR
[DUEL] Epoch ended. INSTR misses = 25, DATA misses = 37. Winner = INSTR
[DUEL] Epoch ended. INSTR misses = 20, DATA misses = 62. Winner = INSTR
[DUEL] Epoch ended. INSTR misses = 38, DATA misses = 60. Winner = INSTR
Heartbeat CPU 0 instructions: 20000000 cycles: 3605209 heartbeat IPC: 5.451 cumulative IPC: 5.548 (Simulation time: 00 hr 00 min 50 sec)
[DUEL] Epoch ended. INSTR misses = 12, DATA misses = 40. Winner = INSTR
[DUEL] Epoch ended. INSTR misses = 29, DATA misses = 30. Winner = INSTR
[DUEL] Epoch ended. INSTR misses = 36, DATA misses = 29. Winner = DATA
[DUEL] Epoch ended. INSTR misses = 32, DATA misses = 59. Winner = INSTR
[DUEL] Epoch ended. INSTR misses = 22, DATA misses = 44. Winner = INSTR
[DUEL] Epoch ended. INSTR misses = 45, DATA misses = 13. Winner = DATA
[DUEL] Epoch ended. INSTR misses = 28, DATA misses = 50. Winner = INSTR
[DUEL] Epoch ended. INSTR misses = 57, DATA misses = 32. Winner = DATA
[DUEL] Epoch ended. INSTR misses = 36, DATA misses = 27. Winner = DATA
[DUEL] Epoch ended. INSTR misses = 48, DATA misses = 38. Winner = DATA
[DUEL] Epoch ended. INSTR misses = 37, DATA misses = 37. Winner = INSTR
[DUEL] Epoch ended. INSTR misses = 24, DATA misses = 48. Winner = INSTR
[DUEL] Epoch ended. INSTR misses = 18, DATA misses = 34. Winner = INSTR
[DUEL] Epoch ended. INSTR misses = 53, DATA misses = 36. Winner = DATA
[DUEL] Epoch ended. INSTR misses = 25, DATA misses = 36. Winner = INSTR
[DUEL] Epoch ended. INSTR misses = 71, DATA misses = 41. Winner = DATA
[DUEL] Epoch ended. INSTR misses = 55, DATA misses = 61. Winner = INSTR
[DUEL] Epoch ended. INSTR misses = 84, DATA misses = 66. Winner = DATA
[DUEL] Epoch ended. INSTR misses = 131, DATA misses = 113. Winner = DATA
[DUEL] Epoch ended. INSTR misses = 152, DATA misses = 123. Winner = DATA
[DUEL] Epoch ended. INSTR misses = 103, DATA misses = 85. Winner = DATA
[DUEL] Epoch ended. INSTR misses = 107, DATA misses = 84. Winner = DATA
[DUEL] Epoch ended. INSTR misses = 86, DATA misses = 99. Winner = INSTR
[DUEL] Epoch ended. INSTR misses = 56, DATA misses = 87. Winner = INSTR
[DUEL] Epoch ended. INSTR misses = 63, DATA misses = 86. Winner = INSTR
[DUEL] Epoch ended. INSTR misses = 116, DATA misses = 112. Winner = DATA
[DUEL] Epoch ended. INSTR misses = 84, DATA misses = 119. Winner = INSTR
[DUEL] Epoch ended. INSTR misses = 48, DATA misses = 75. Winner = INSTR
[DUEL] Epoch ended. INSTR misses = 104, DATA misses = 74. Winner = DATA
[DUEL] Epoch ended. INSTR misses = 61, DATA misses = 33. Winner = DATA
[DUEL] Epoch ended. INSTR misses = 101, DATA misses = 73. Winner = DATA
[DUEL] Epoch ended. INSTR misses = 60, DATA misses = 33. Winner = DATA
[DUEL] Epoch ended. INSTR misses = 151, DATA misses = 144. Winner = DATA
[DUEL] Epoch ended. INSTR misses = 70, DATA misses = 59. Winner = DATA
[DUEL] Epoch ended. INSTR misses = 68, DATA misses = 65. Winner = DATA
[DUEL] Epoch ended. INSTR misses = 78, DATA misses = 68. Winner = DATA
[DUEL] Epoch ended. INSTR misses = 99, DATA misses = 107. Winner = INSTR
[DUEL] Epoch ended. INSTR misses = 64, DATA misses = 68. Winner = INSTR
[DUEL] Epoch ended. INSTR misses = 52, DATA misses = 56. Winner = INSTR
Heartbeat CPU 0 instructions: 30000003 cycles: 5822936 heartbeat IPC: 4.509 cumulative IPC: 5.152 (Simulation time: 00 hr 01 min 20 sec)
Warmup finished CPU 0 instructions: 30000003 cycles: 5822937 cumulative IPC: 5.152 (Simulation time: 00 hr 01 min 20 sec)
Warmup complete CPU 0 instructions: 30000003 cycles: 5822937 cumulative IPC: 5.152 (Simulation time: 00 hr 01 min 20 sec)
[DUEL] Epoch ended. INSTR misses = 95, DATA misses = 85. Winner = DATA
[DUEL] Epoch ended. INSTR misses = 39, DATA misses = 39. Winner = INSTR
[DUEL] Epoch ended. INSTR misses = 18, DATA misses = 2. Winner = DATA
*** Reached end of trace: (0, "../traces/public_traces/compute_int/compute_int_27.champsimtrace.xz")
[DUEL] Epoch ended. INSTR misses = 25, DATA misses = 29. Winner = INSTR
[DUEL] Epoch ended. INSTR misses = 7, DATA misses = 2. Winner = DATA
[DUEL] Epoch ended. INSTR misses = 3, DATA misses = 24. Winner = INSTR
[DUEL] Epoch ended. INSTR misses = 11, DATA misses = 12. Winner = INSTR
[DUEL] Epoch ended. INSTR misses = 17, DATA misses = 13. Winner = DATA
[DUEL] Epoch ended. INSTR misses = 8, DATA misses = 10. Winner = INSTR
[DUEL] Epoch ended. INSTR misses = 1, DATA misses = 0. Winner = DATA
[DUEL] Epoch ended. INSTR misses = 17, DATA misses = 14. Winner = DATA
[DUEL] Epoch ended. INSTR misses = 3, DATA misses = 1. Winner = DATA
[DUEL] Epoch ended. INSTR misses = 16, DATA misses = 2. Winner = DATA
[DUEL] Epoch ended. INSTR misses = 17, DATA misses = 8. Winner = DATA
[DUEL] Epoch ended. INSTR misses = 12, DATA misses = 21. Winner = INSTR
[DUEL] Epoch ended. INSTR misses = 12, DATA misses = 34. Winner = INSTR
[DUEL] Epoch ended. INSTR misses = 13, DATA misses = 27. Winner = INSTR
[DUEL] Epoch ended. INSTR misses = 16, DATA misses = 29. Winner = INSTR
[DUEL] Epoch ended. INSTR misses = 3, DATA misses = 11. Winner = INSTR
[DUEL] Epoch ended. INSTR misses = 2, DATA misses = 4. Winner = INSTR
[DUEL] Epoch ended. INSTR misses = 18, DATA misses = 14. Winner = DATA
[DUEL] Epoch ended. INSTR misses = 16, DATA misses = 24. Winner = INSTR
[DUEL] Epoch ended. INSTR misses = 15, DATA misses = 11. Winner = DATA
[DUEL] Epoch ended. INSTR misses = 26, DATA misses = 15. Winner = DATA
[DUEL] Epoch ended. INSTR misses = 17, DATA misses = 10. Winner = DATA
[DUEL] Epoch ended. INSTR misses = 19, DATA misses = 13. Winner = DATA
[DUEL] Epoch ended. INSTR misses = 26, DATA misses = 21. Winner = DATA
[DUEL] Epoch ended. INSTR misses = 22, DATA misses = 36. Winner = INSTR
[DUEL] Epoch ended. INSTR misses = 29, DATA misses = 28. Winner = DATA
[DUEL] Epoch ended. INSTR misses = 27, DATA misses = 17. Winner = DATA
[DUEL] Epoch ended. INSTR misses = 37, DATA misses = 31. Winner = DATA
[DUEL] Epoch ended. INSTR misses = 18, DATA misses = 23. Winner = INSTR
[DUEL] Epoch ended. INSTR misses = 53, DATA misses = 31. Winner = DATA
[DUEL] Epoch ended. INSTR misses = 35, DATA misses = 13. Winner = DATA
[DUEL] Epoch ended. INSTR misses = 33, DATA misses = 12. Winner = DATA
[DUEL] Epoch ended. INSTR misses = 26, DATA misses = 41. Winner = INSTR
[DUEL] Epoch ended. INSTR misses = 26, DATA misses = 14. Winner = DATA
[DUEL] Epoch ended. INSTR misses = 14, DATA misses = 66. Winner = INSTR
[DUEL] Epoch ended. INSTR misses = 39, DATA misses = 31. Winner = DATA
Heartbeat CPU 0 instructions: 40000001 cycles: 12362047 heartbeat IPC: 1.529 cumulative IPC: 1.529 (Simulation time: 00 hr 02 min 21 sec)
[DUEL] Epoch ended. INSTR misses = 22, DATA misses = 11. Winner = DATA
[DUEL] Epoch ended. INSTR misses = 22, DATA misses = 28. Winner = INSTR
[DUEL] Epoch ended. INSTR misses = 18, DATA misses = 6. Winner = DATA
[DUEL] Epoch ended. INSTR misses = 33, DATA misses = 19. Winner = DATA
[DUEL] Epoch ended. INSTR misses = 28, DATA misses = 32. Winner = INSTR
[DUEL] Epoch ended. INSTR misses = 14, DATA misses = 23. Winner = INSTR
[DUEL] Epoch ended. INSTR misses = 20, DATA misses = 17. Winner = DATA
[DUEL] Epoch ended. INSTR misses = 46, DATA misses = 30. Winner = DATA
[DUEL] Epoch ended. INSTR misses = 23, DATA misses = 32. Winner = INSTR
[DUEL] Epoch ended. INSTR misses = 27, DATA misses = 27. Winner = INSTR
[DUEL] Epoch ended. INSTR misses = 26, DATA misses = 34. Winner = INSTR
[DUEL] Epoch ended. INSTR misses = 15, DATA misses = 29. Winner = INSTR
[DUEL] Epoch ended. INSTR misses = 25, DATA misses = 42. Winner = INSTR
[DUEL] Epoch ended. INSTR misses = 24, DATA misses = 31. Winner = INSTR
[DUEL] Epoch ended. INSTR misses = 43, DATA misses = 40. Winner = DATA
[DUEL] Epoch ended. INSTR misses = 10, DATA misses = 27. Winner = INSTR
[DUEL] Epoch ended. INSTR misses = 8, DATA misses = 28. Winner = INSTR
[DUEL] Epoch ended. INSTR misses = 33, DATA misses = 34. Winner = INSTR
[DUEL] Epoch ended. INSTR misses = 17, DATA misses = 34. Winner = INSTR
[DUEL] Epoch ended. INSTR misses = 12, DATA misses = 21. Winner = INSTR
[DUEL] Epoch ended. INSTR misses = 29, DATA misses = 20. Winner = DATA
[DUEL] Epoch ended. INSTR misses = 23, DATA misses = 21. Winner = DATA
[DUEL] Epoch ended. INSTR misses = 26, DATA misses = 12. Winner = DATA
[DUEL] Epoch ended. INSTR misses = 20, DATA misses = 46. Winner = INSTR
[DUEL] Epoch ended. INSTR misses = 53, DATA misses = 30. Winner = DATA
[DUEL] Epoch ended. INSTR misses = 63, DATA misses = 49. Winner = DATA
[DUEL] Epoch ended. INSTR misses = 31, DATA misses = 19. Winner = DATA
[DUEL] Epoch ended. INSTR misses = 52, DATA misses = 40. Winner = DATA
[DUEL] Epoch ended. INSTR misses = 191, DATA misses = 214. Winner = INSTR
[DUEL] Epoch ended. INSTR misses = 4, DATA misses = 3. Winner = DATA
[DUEL] Epoch ended. INSTR misses = 2, DATA misses = 2. Winner = INSTR
[DUEL] Epoch ended. INSTR misses = 25, DATA misses = 34. Winner = INSTR
[DUEL] Epoch ended. INSTR misses = 16, DATA misses = 24. Winner = INSTR
[DUEL] Epoch ended. INSTR misses = 51, DATA misses = 37. Winner = DATA
[DUEL] Epoch ended. INSTR misses = 13, DATA misses = 25. Winner = INSTR
[DUEL] Epoch ended. INSTR misses = 20, DATA misses = 37. Winner = INSTR
[DUEL] Epoch ended. INSTR misses = 25, DATA misses = 24. Winner = DATA
[DUEL] Epoch ended. INSTR misses = 25, DATA misses = 28. Winner = INSTR
[DUEL] Epoch ended. INSTR misses = 30, DATA misses = 31. Winner = INSTR
Heartbeat CPU 0 instructions: 50000002 cycles: 21181119 heartbeat IPC: 1.134 cumulative IPC: 1.302 (Simulation time: 00 hr 03 min 37 sec)
[DUEL] Epoch ended. INSTR misses = 32, DATA misses = 34. Winner = INSTR
[DUEL] Epoch ended. INSTR misses = 17, DATA misses = 55. Winner = INSTR
[DUEL] Epoch ended. INSTR misses = 29, DATA misses = 57. Winner = INSTR
[DUEL] Epoch ended. INSTR misses = 23, DATA misses = 48. Winner = INSTR
[DUEL] Epoch ended. INSTR misses = 28, DATA misses = 27. Winner = DATA
[DUEL] Epoch ended. INSTR misses = 38, DATA misses = 29. Winner = DATA
[DUEL] Epoch ended. INSTR misses = 15, DATA misses = 28. Winner = INSTR
[DUEL] Epoch ended. INSTR misses = 21, DATA misses = 71. Winner = INSTR
[DUEL] Epoch ended. INSTR misses = 43, DATA misses = 36. Winner = DATA
[DUEL] Epoch ended. INSTR misses = 45, DATA misses = 48. Winner = INSTR
[DUEL] Epoch ended. INSTR misses = 43, DATA misses = 35. Winner = DATA
[DUEL] Epoch ended. INSTR misses = 45, DATA misses = 25. Winner = DATA
[DUEL] Epoch ended. INSTR misses = 20, DATA misses = 21. Winner = INSTR
[DUEL] Epoch ended. INSTR misses = 56, DATA misses = 68. Winner = INSTR
[DUEL] Epoch ended. INSTR misses = 30, DATA misses = 50. Winner = INSTR
[DUEL] Epoch ended. INSTR misses = 15, DATA misses = 45. Winner = INSTR
[DUEL] Epoch ended. INSTR misses = 55, DATA misses = 35. Winner = DATA
[DUEL] Epoch ended. INSTR misses = 30, DATA misses = 35. Winner = INSTR
[DUEL] Epoch ended. INSTR misses = 47, DATA misses = 30. Winner = DATA
[DUEL] Epoch ended. INSTR misses = 65, DATA misses = 69. Winner = INSTR
[DUEL] Epoch ended. INSTR misses = 69, DATA misses = 65. Winner = DATA
[DUEL] Epoch ended. INSTR misses = 100, DATA misses = 82. Winner = DATA
[DUEL] Epoch ended. INSTR misses = 116, DATA misses = 130. Winner = INSTR
[DUEL] Epoch ended. INSTR misses = 75, DATA misses = 48. Winner = DATA
[DUEL] Epoch ended. INSTR misses = 130, DATA misses = 78. Winner = DATA
[DUEL] Epoch ended. INSTR misses = 65, DATA misses = 81. Winner = INSTR
[DUEL] Epoch ended. INSTR misses = 60, DATA misses = 79. Winner = INSTR
[DUEL] Epoch ended. INSTR misses = 55, DATA misses = 67. Winner = INSTR
[DUEL] Epoch ended. INSTR misses = 95, DATA misses = 107. Winner = INSTR
[DUEL] Epoch ended. INSTR misses = 75, DATA misses = 78. Winner = INSTR
[DUEL] Epoch ended. INSTR misses = 57, DATA misses = 80. Winner = INSTR
[DUEL] Epoch ended. INSTR misses = 78, DATA misses = 85. Winner = INSTR
[DUEL] Epoch ended. INSTR misses = 25, DATA misses = 32. Winner = INSTR
[DUEL] Epoch ended. INSTR misses = 68, DATA misses = 50. Winner = DATA
[DUEL] Epoch ended. INSTR misses = 33, DATA misses = 21. Winner = DATA
[DUEL] Epoch ended. INSTR misses = 138, DATA misses = 116. Winner = DATA
[DUEL] Epoch ended. INSTR misses = 44, DATA misses = 55. Winner = INSTR
[DUEL] Epoch ended. INSTR misses = 54, DATA misses = 50. Winner = DATA
[DUEL] Epoch ended. INSTR misses = 31, DATA misses = 22. Winner = DATA
Heartbeat CPU 0 instructions: 60000005 cycles: 29738247 heartbeat IPC: 1.169 cumulative IPC: 1.254 (Simulation time: 00 hr 05 min 05 sec)
[DUEL] Epoch ended. INSTR misses = 60, DATA misses = 54. Winner = DATA
[DUEL] Epoch ended. INSTR misses = 55, DATA misses = 77. Winner = INSTR
[DUEL] Epoch ended. INSTR misses = 64, DATA misses = 68. Winner = INSTR
[DUEL] Epoch ended. INSTR misses = 86, DATA misses = 69. Winner = DATA
[DUEL] Epoch ended. INSTR misses = 40, DATA misses = 36. Winner = DATA
[DUEL] Epoch ended. INSTR misses = 21, DATA misses = 17. Winner = DATA
*** Reached end of trace: (0, "../traces/public_traces/compute_int/compute_int_27.champsimtrace.xz")
[DUEL] Epoch ended. INSTR misses = 22, DATA misses = 41. Winner = INSTR
[DUEL] Epoch ended. INSTR misses = 7, DATA misses = 5. Winner = DATA
[DUEL] Epoch ended. INSTR misses = 19, DATA misses = 20. Winner = INSTR
[DUEL] Epoch ended. INSTR misses = 7, DATA misses = 8. Winner = INSTR
[DUEL] Epoch ended. INSTR misses = 8, DATA misses = 17. Winner = INSTR
[DUEL] Epoch ended. INSTR misses = 19, DATA misses = 10. Winner = DATA
[DUEL] Epoch ended. INSTR misses = 3, DATA misses = 3. Winner = INSTR
[DUEL] Epoch ended. INSTR misses = 16, DATA misses = 11. Winner = DATA
[DUEL] Epoch ended. INSTR misses = 4, DATA misses = 11. Winner = INSTR
[DUEL] Epoch ended. INSTR misses = 17, DATA misses = 4. Winner = DATA
[DUEL] Epoch ended. INSTR misses = 17, DATA misses = 8. Winner = DATA
[DUEL] Epoch ended. INSTR misses = 12, DATA misses = 25. Winner = INSTR
[DUEL] Epoch ended. INSTR misses = 13, DATA misses = 22. Winner = INSTR
[DUEL] Epoch ended. INSTR misses = 18, DATA misses = 34. Winner = INSTR
[DUEL] Epoch ended. INSTR misses = 6, DATA misses = 33. Winner = INSTR
[DUEL] Epoch ended. INSTR misses = 13, DATA misses = 16. Winner = INSTR
[DUEL] Epoch ended. INSTR misses = 1, DATA misses = 5. Winner = INSTR
[DUEL] Epoch ended. INSTR misses = 16, DATA misses = 13. Winner = DATA
[DUEL] Epoch ended. INSTR misses = 13, DATA misses = 24. Winner = INSTR
[DUEL] Epoch ended. INSTR misses = 15, DATA misses = 17. Winner = INSTR
[DUEL] Epoch ended. INSTR misses = 28, DATA misses = 13. Winner = DATA
[DUEL] Epoch ended. INSTR misses = 19, DATA misses = 11. Winner = DATA
[DUEL] Epoch ended. INSTR misses = 27, DATA misses = 18. Winner = DATA
[DUEL] Epoch ended. INSTR misses = 26, DATA misses = 22. Winner = DATA
[DUEL] Epoch ended. INSTR misses = 25, DATA misses = 34. Winner = INSTR
[DUEL] Epoch ended. INSTR misses = 25, DATA misses = 40. Winner = INSTR
[DUEL] Epoch ended. INSTR misses = 17, DATA misses = 11. Winner = DATA
[DUEL] Epoch ended. INSTR misses = 35, DATA misses = 31. Winner = DATA
[DUEL] Epoch ended. INSTR misses = 10, DATA misses = 21. Winner = INSTR
[DUEL] Epoch ended. INSTR misses = 56, DATA misses = 35. Winner = DATA
[DUEL] Epoch ended. INSTR misses = 40, DATA misses = 12. Winner = DATA
[DUEL] Epoch ended. INSTR misses = 23, DATA misses = 14. Winner = DATA
[DUEL] Epoch ended. INSTR misses = 35, DATA misses = 42. Winner = INSTR
Heartbeat CPU 0 instructions: 70000000 cycles: 36161463 heartbeat IPC: 1.557 cumulative IPC: 1.318 (Simulation time: 00 hr 06 min 10 sec)
[DUEL] Epoch ended. INSTR misses = 24, DATA misses = 18. Winner = DATA
[DUEL] Epoch ended. INSTR misses = 11, DATA misses = 47. Winner = INSTR
[DUEL] Epoch ended. INSTR misses = 40, DATA misses = 38. Winner = DATA
[DUEL] Epoch ended. INSTR misses = 51, DATA misses = 28. Winner = DATA
[DUEL] Epoch ended. INSTR misses = 21, DATA misses = 19. Winner = DATA
[DUEL] Epoch ended. INSTR misses = 19, DATA misses = 6. Winner = DATA
[DUEL] Epoch ended. INSTR misses = 35, DATA misses = 20. Winner = DATA
[DUEL] Epoch ended. INSTR misses = 37, DATA misses = 31. Winner = DATA
[DUEL] Epoch ended. INSTR misses = 10, DATA misses = 14. Winner = INSTR
[DUEL] Epoch ended. INSTR misses = 19, DATA misses = 24. Winner = INSTR
[DUEL] Epoch ended. INSTR misses = 39, DATA misses = 26. Winner = DATA
[DUEL] Epoch ended. INSTR misses = 23, DATA misses = 36. Winner = INSTR
[DUEL] Epoch ended. INSTR misses = 29, DATA misses = 28. Winner = DATA
[DUEL] Epoch ended. INSTR misses = 29, DATA misses = 34. Winner = INSTR
[DUEL] Epoch ended. INSTR misses = 12, DATA misses = 27. Winner = INSTR
[DUEL] Epoch ended. INSTR misses = 31, DATA misses = 41. Winner = INSTR
[DUEL] Epoch ended. INSTR misses = 29, DATA misses = 36. Winner = INSTR
[DUEL] Epoch ended. INSTR misses = 27, DATA misses = 18. Winner = DATA
[DUEL] Epoch ended. INSTR misses = 24, DATA misses = 46. Winner = INSTR
[DUEL] Epoch ended. INSTR misses = 9, DATA misses = 36. Winner = INSTR
[DUEL] Epoch ended. INSTR misses = 22, DATA misses = 24. Winner = INSTR
[DUEL] Epoch ended. INSTR misses = 24, DATA misses = 30. Winner = INSTR
[DUEL] Epoch ended. INSTR misses = 4, DATA misses = 16. Winner = INSTR
[DUEL] Epoch ended. INSTR misses = 32, DATA misses = 21. Winner = DATA
[DUEL] Epoch ended. INSTR misses = 12, DATA misses = 20. Winner = INSTR
[DUEL] Epoch ended. INSTR misses = 36, DATA misses = 22. Winner = DATA
[DUEL] Epoch ended. INSTR misses = 10, DATA misses = 25. Winner = INSTR
[DUEL] Epoch ended. INSTR misses = 57, DATA misses = 49. Winner = DATA
[DUEL] Epoch ended. INSTR misses = 51, DATA misses = 36. Winner = DATA
[DUEL] Epoch ended. INSTR misses = 41, DATA misses = 29. Winner = DATA
[DUEL] Epoch ended. INSTR misses = 22, DATA misses = 20. Winner = DATA
[DUEL] Epoch ended. INSTR misses = 232, DATA misses = 251. Winner = INSTR
[DUEL] Epoch ended. INSTR misses = 4, DATA misses = 3. Winner = DATA
[DUEL] Epoch ended. INSTR misses = 2, DATA misses = 4. Winner = INSTR
[DUEL] Epoch ended. INSTR misses = 12, DATA misses = 20. Winner = INSTR
[DUEL] Epoch ended. INSTR misses = 26, DATA misses = 38. Winner = INSTR
[DUEL] Epoch ended. INSTR misses = 30, DATA misses = 22. Winner = DATA
[DUEL] Epoch ended. INSTR misses = 31, DATA misses = 39. Winner = INSTR
[DUEL] Epoch ended. INSTR misses = 21, DATA misses = 40. Winner = INSTR
Heartbeat CPU 0 instructions: 80000008 cycles: 44727825 heartbeat IPC: 1.167 cumulative IPC: 1.285 (Simulation time: 00 hr 07 min 24 sec)
[DUEL] Epoch ended. INSTR misses = 24, DATA misses = 22. Winner = DATA
[DUEL] Epoch ended. INSTR misses = 28, DATA misses = 30. Winner = INSTR
[DUEL] Epoch ended. INSTR misses = 31, DATA misses = 30. Winner = DATA
[DUEL] Epoch ended. INSTR misses = 29, DATA misses = 31. Winner = INSTR
[DUEL] Epoch ended. INSTR misses = 16, DATA misses = 60. Winner = INSTR
[DUEL] Epoch ended. INSTR misses = 33, DATA misses = 53. Winner = INSTR
[DUEL] Epoch ended. INSTR misses = 21, DATA misses = 46. Winner = INSTR
[DUEL] Epoch ended. INSTR misses = 28, DATA misses = 26. Winner = DATA
[DUEL] Epoch ended. INSTR misses = 36, DATA misses = 35. Winner = DATA
[DUEL] Epoch ended. INSTR misses = 32, DATA misses = 23. Winner = DATA
[DUEL] Epoch ended. INSTR misses = 34, DATA misses = 55. Winner = INSTR
[DUEL] Epoch ended. INSTR misses = 49, DATA misses = 25. Winner = DATA
[DUEL] Epoch ended. INSTR misses = 50, DATA misses = 46. Winner = DATA
[DUEL] Epoch ended. INSTR misses = 37, DATA misses = 34. Winner = DATA
[DUEL] Epoch ended. INSTR misses = 44, DATA misses = 20. Winner = DATA
[DUEL] Epoch ended. INSTR misses = 21, DATA misses = 31. Winner = INSTR
[DUEL] Epoch ended. INSTR misses = 61, DATA misses = 65. Winner = INSTR
[DUEL] Epoch ended. INSTR misses = 36, DATA misses = 38. Winner = INSTR
[DUEL] Epoch ended. INSTR misses = 13, DATA misses = 36. Winner = INSTR
[DUEL] Epoch ended. INSTR misses = 40, DATA misses = 36. Winner = DATA
[DUEL] Epoch ended. INSTR misses = 35, DATA misses = 38. Winner = INSTR
[DUEL] Epoch ended. INSTR misses = 42, DATA misses = 20. Winner = DATA
[DUEL] Epoch ended. INSTR misses = 66, DATA misses = 69. Winner = INSTR
[DUEL] Epoch ended. INSTR misses = 56, DATA misses = 53. Winner = DATA
[DUEL] Epoch ended. INSTR misses = 116, DATA misses = 97. Winner = DATA
[DUEL] Epoch ended. INSTR misses = 100, DATA misses = 115. Winner = INSTR
[DUEL] Epoch ended. INSTR misses = 73, DATA misses = 46. Winner = DATA
[DUEL] Epoch ended. INSTR misses = 150, DATA misses = 95. Winner = DATA
[DUEL] Epoch ended. INSTR misses = 65, DATA misses = 75. Winner = INSTR
[DUEL] Epoch ended. INSTR misses = 61, DATA misses = 85. Winner = INSTR
[DUEL] Epoch ended. INSTR misses = 55, DATA misses = 68. Winner = INSTR
[DUEL] Epoch ended. INSTR misses = 88, DATA misses = 90. Winner = INSTR
[DUEL] Epoch ended. INSTR misses = 79, DATA misses = 91. Winner = INSTR
[DUEL] Epoch ended. INSTR misses = 53, DATA misses = 80. Winner = INSTR
[DUEL] Epoch ended. INSTR misses = 68, DATA misses = 76. Winner = INSTR
[DUEL] Epoch ended. INSTR misses = 40, DATA misses = 48. Winner = INSTR
[DUEL] Epoch ended. INSTR misses = 63, DATA misses = 51. Winner = DATA
[DUEL] Epoch ended. INSTR misses = 28, DATA misses = 21. Winner = DATA
[DUEL] Epoch ended. INSTR misses = 130, DATA misses = 102. Winner = DATA
Heartbeat CPU 0 instructions: 90000009 cycles: 53421735 heartbeat IPC: 1.15 cumulative IPC: 1.261 (Simulation time: 00 hr 08 min 52 sec)
[DUEL] Epoch ended. INSTR misses = 60, DATA misses = 69. Winner = INSTR
[DUEL] Epoch ended. INSTR misses = 55, DATA misses = 52. Winner = DATA
[DUEL] Epoch ended. INSTR misses = 29, DATA misses = 22. Winner = DATA
[DUEL] Epoch ended. INSTR misses = 53, DATA misses = 34. Winner = DATA
[DUEL] Epoch ended. INSTR misses = 47, DATA misses = 80. Winner = INSTR
[DUEL] Epoch ended. INSTR misses = 77, DATA misses = 84. Winner = INSTR
[DUEL] Epoch ended. INSTR misses = 65, DATA misses = 51. Winner = DATA
[DUEL] Epoch ended. INSTR misses = 39, DATA misses = 49. Winner = INSTR
[DUEL] Epoch ended. INSTR misses = 38, DATA misses = 26. Winner = DATA
*** Reached end of trace: (0, "../traces/public_traces/compute_int/compute_int_27.champsimtrace.xz")
[DUEL] Epoch ended. INSTR misses = 19, DATA misses = 41. Winner = INSTR
[DUEL] Epoch ended. INSTR misses = 7, DATA misses = 5. Winner = DATA
[DUEL] Epoch ended. INSTR misses = 4, DATA misses = 19. Winner = INSTR
[DUEL] Epoch ended. INSTR misses = 9, DATA misses = 8. Winner = DATA
[DUEL] Epoch ended. INSTR misses = 9, DATA misses = 17. Winner = INSTR
[DUEL] Epoch ended. INSTR misses = 18, DATA misses = 11. Winner = DATA
[DUEL] Epoch ended. INSTR misses = 7, DATA misses = 13. Winner = INSTR
[DUEL] Epoch ended. INSTR misses = 16, DATA misses = 12. Winner = DATA
[DUEL] Epoch ended. INSTR misses = 7, DATA misses = 3. Winner = DATA
[DUEL] Epoch ended. INSTR misses = 18, DATA misses = 4. Winner = DATA
[DUEL] Epoch ended. INSTR misses = 16, DATA misses = 8. Winner = DATA
[DUEL] Epoch ended. INSTR misses = 11, DATA misses = 20. Winner = INSTR
[DUEL] Epoch ended. INSTR misses = 5, DATA misses = 14. Winner = INSTR
[DUEL] Epoch ended. INSTR misses = 24, DATA misses = 32. Winner = INSTR
[DUEL] Epoch ended. INSTR misses = 6, DATA misses = 33. Winner = INSTR
[DUEL] Epoch ended. INSTR misses = 12, DATA misses = 16. Winner = INSTR
[DUEL] Epoch ended. INSTR misses = 1, DATA misses = 5. Winner = INSTR
[DUEL] Epoch ended. INSTR misses = 12, DATA misses = 10. Winner = DATA
[DUEL] Epoch ended. INSTR misses = 16, DATA misses = 13. Winner = DATA
[DUEL] Epoch ended. INSTR misses = 20, DATA misses = 25. Winner = INSTR
[DUEL] Epoch ended. INSTR misses = 26, DATA misses = 11. Winner = DATA
[DUEL] Epoch ended. INSTR misses = 19, DATA misses = 2. Winner = DATA
[DUEL] Epoch ended. INSTR misses = 39, DATA misses = 23. Winner = DATA
[DUEL] Epoch ended. INSTR misses = 16, DATA misses = 5. Winner = DATA
[DUEL] Epoch ended. INSTR misses = 26, DATA misses = 39. Winner = INSTR
[DUEL] Epoch ended. INSTR misses = 30, DATA misses = 40. Winner = INSTR
[DUEL] Epoch ended. INSTR misses = 22, DATA misses = 10. Winner = DATA
[DUEL] Epoch ended. INSTR misses = 18, DATA misses = 27. Winner = INSTR
[DUEL] Epoch ended. INSTR misses = 27, DATA misses = 26. Winner = DATA
[DUEL] Epoch ended. INSTR misses = 31, DATA misses = 16. Winner = DATA
Heartbeat CPU 0 instructions: 100000009 cycles: 59811814 heartbeat IPC: 1.565 cumulative IPC: 1.297 (Simulation time: 00 hr 09 min 59 sec)
[DUEL] Epoch ended. INSTR misses = 55, DATA misses = 35. Winner = DATA
[DUEL] Epoch ended. INSTR misses = 32, DATA misses = 16. Winner = DATA
[DUEL] Epoch ended. INSTR misses = 37, DATA misses = 16. Winner = DATA
[DUEL] Epoch ended. INSTR misses = 25, DATA misses = 24. Winner = DATA
[DUEL] Epoch ended. INSTR misses = 9, DATA misses = 23. Winner = INSTR
[DUEL] Epoch ended. INSTR misses = 25, DATA misses = 44. Winner = INSTR
[DUEL] Epoch ended. INSTR misses = 52, DATA misses = 35. Winner = DATA
[DUEL] Epoch ended. INSTR misses = 23, DATA misses = 13. Winner = DATA
[DUEL] Epoch ended. INSTR misses = 19, DATA misses = 20. Winner = INSTR
[DUEL] Epoch ended. INSTR misses = 23, DATA misses = 20. Winner = DATA
[DUEL] Epoch ended. INSTR misses = 35, DATA misses = 19. Winner = DATA
[DUEL] Epoch ended. INSTR misses = 18, DATA misses = 25. Winner = INSTR
[DUEL] Epoch ended. INSTR misses = 19, DATA misses = 28. Winner = INSTR
[DUEL] Epoch ended. INSTR misses = 44, DATA misses = 19. Winner = DATA
[DUEL] Epoch ended. INSTR misses = 14, DATA misses = 19. Winner = INSTR
[DUEL] Epoch ended. INSTR misses = 32, DATA misses = 46. Winner = INSTR
[DUEL] Epoch ended. INSTR misses = 30, DATA misses = 33. Winner = INSTR
[DUEL] Epoch ended. INSTR misses = 8, DATA misses = 22. Winner = INSTR
[DUEL] Epoch ended. INSTR misses = 23, DATA misses = 52. Winner = INSTR
[DUEL] Epoch ended. INSTR misses = 23, DATA misses = 18. Winner = DATA
[DUEL] Epoch ended. INSTR misses = 37, DATA misses = 25. Winner = DATA
[DUEL] Epoch ended. INSTR misses = 26, DATA misses = 39. Winner = INSTR
[DUEL] Epoch ended. INSTR misses = 6, DATA misses = 27. Winner = INSTR
[DUEL] Epoch ended. INSTR misses = 25, DATA misses = 23. Winner = DATA
[DUEL] Epoch ended. INSTR misses = 22, DATA misses = 36. Winner = INSTR
[DUEL] Epoch ended. INSTR misses = 4, DATA misses = 17. Winner = INSTR
[DUEL] Epoch ended. INSTR misses = 22, DATA misses = 17. Winner = DATA
[DUEL] Epoch ended. INSTR misses = 20, DATA misses = 24. Winner = INSTR
[DUEL] Epoch ended. INSTR misses = 39, DATA misses = 16. Winner = DATA
[DUEL] Epoch ended. INSTR misses = 10, DATA misses = 36. Winner = INSTR
[DUEL] Epoch ended. INSTR misses = 37, DATA misses = 64. Winner = INSTR
[DUEL] Epoch ended. INSTR misses = 49, DATA misses = 38. Winner = DATA
[DUEL] Epoch ended. INSTR misses = 47, DATA misses = 27. Winner = DATA
[DUEL] Epoch ended. INSTR misses = 11, DATA misses = 15. Winner = INSTR
[DUEL] Epoch ended. INSTR misses = 223, DATA misses = 238. Winner = INSTR
[DUEL] Epoch ended. INSTR misses = 3, DATA misses = 6. Winner = INSTR
[DUEL] Epoch ended. INSTR misses = 4, DATA misses = 3. Winner = DATA
[DUEL] Epoch ended. INSTR misses = 9, DATA misses = 12. Winner = INSTR
[DUEL] Epoch ended. INSTR misses = 25, DATA misses = 37. Winner = INSTR
Heartbeat CPU 0 instructions: 110000008 cycles: 68307122 heartbeat IPC: 1.177 cumulative IPC: 1.28 (Simulation time: 00 hr 11 min 11 sec)
[DUEL] Epoch ended. INSTR misses = 29, DATA misses = 26. Winner = DATA
[DUEL] Epoch ended. INSTR misses = 35, DATA misses = 38. Winner = INSTR
[DUEL] Epoch ended. INSTR misses = 13, DATA misses = 31. Winner = INSTR
[DUEL] Epoch ended. INSTR misses = 28, DATA misses = 30. Winner = INSTR
[DUEL] Epoch ended. INSTR misses = 30, DATA misses = 33. Winner = INSTR
[DUEL] Epoch ended. INSTR misses = 38, DATA misses = 40. Winner = INSTR
[DUEL] Epoch ended. INSTR misses = 19, DATA misses = 28. Winner = INSTR
[DUEL] Epoch ended. INSTR misses = 24, DATA misses = 41. Winner = INSTR
[DUEL] Epoch ended. INSTR misses = 31, DATA misses = 72. Winner = INSTR
[DUEL] Epoch ended. INSTR misses = 20, DATA misses = 43. Winner = INSTR
[DUEL] Epoch ended. INSTR misses = 24, DATA misses = 29. Winner = INSTR
[DUEL] Epoch ended. INSTR misses = 36, DATA misses = 35. Winner = DATA
[DUEL] Epoch ended. INSTR misses = 16, DATA misses = 18. Winner = INSTR
[DUEL] Epoch ended. INSTR misses = 25, DATA misses = 58. Winner = INSTR
[DUEL] Epoch ended. INSTR misses = 46, DATA misses = 34. Winner = DATA
[DUEL] Epoch ended. INSTR misses = 45, DATA misses = 46. Winner = INSTR
[DUEL] Epoch ended. INSTR misses = 28, DATA misses = 28. Winner = INSTR
[DUEL] Epoch ended. INSTR misses = 44, DATA misses = 22. Winner = DATA
[DUEL] Epoch ended. INSTR misses = 25, DATA misses = 33. Winner = INSTR
[DUEL] Epoch ended. INSTR misses = 59, DATA misses = 50. Winner = DATA
[DUEL] Epoch ended. INSTR misses = 32, DATA misses = 33. Winner = INSTR
[DUEL] Epoch ended. INSTR misses = 16, DATA misses = 43. Winner = INSTR
[DUEL] Epoch ended. INSTR misses = 45, DATA misses = 43. Winner = DATA
[DUEL] Epoch ended. INSTR misses = 30, DATA misses = 45. Winner = INSTR
[DUEL] Epoch ended. INSTR misses = 23, DATA misses = 28. Winner = INSTR
[DUEL] Epoch ended. INSTR misses = 80, DATA misses = 46. Winner = DATA
[DUEL] Epoch ended. INSTR misses = 42, DATA misses = 55. Winner = INSTR
[DUEL] Epoch ended. INSTR misses = 117, DATA misses = 98. Winner = DATA
[DUEL] Epoch ended. INSTR misses = 111, DATA misses = 117. Winner = INSTR
[DUEL] Epoch ended. INSTR misses = 56, DATA misses = 43. Winner = DATA
[DUEL] Epoch ended. INSTR misses = 136, DATA misses = 84. Winner = DATA
[DUEL] Epoch ended. INSTR misses = 76, DATA misses = 87. Winner = INSTR
[DUEL] Epoch ended. INSTR misses = 59, DATA misses = 71. Winner = INSTR
[DUEL] Epoch ended. INSTR misses = 57, DATA misses = 80. Winner = INSTR
[DUEL] Epoch ended. INSTR misses = 100, DATA misses = 102. Winner = INSTR
[DUEL] Epoch ended. INSTR misses = 70, DATA misses = 72. Winner = INSTR
[DUEL] Epoch ended. INSTR misses = 66, DATA misses = 100. Winner = INSTR
[DUEL] Epoch ended. INSTR misses = 54, DATA misses = 62. Winner = INSTR
[DUEL] Epoch ended. INSTR misses = 41, DATA misses = 45. Winner = INSTR
Heartbeat CPU 0 instructions: 120000001 cycles: 76980206 heartbeat IPC: 1.153 cumulative IPC: 1.265 (Simulation time: 00 hr 12 min 38 sec)
[DUEL] Epoch ended. INSTR misses = 78, DATA misses = 68. Winner = DATA
[DUEL] Epoch ended. INSTR misses = 33, DATA misses = 21. Winner = DATA
[DUEL] Epoch ended. INSTR misses = 97, DATA misses = 68. Winner = DATA
[DUEL] Epoch ended. INSTR misses = 89, DATA misses = 99. Winner = INSTR
[DUEL] Epoch ended. INSTR misses = 57, DATA misses = 52. Winner = DATA
[DUEL] Epoch ended. INSTR misses = 13, DATA misses = 7. Winner = DATA
[DUEL] Epoch ended. INSTR misses = 69, DATA misses = 50. Winner = DATA
[DUEL] Epoch ended. INSTR misses = 47, DATA misses = 80. Winner = INSTR
[DUEL] Epoch ended. INSTR misses = 66, DATA misses = 67. Winner = INSTR
[DUEL] Epoch ended. INSTR misses = 85, DATA misses = 68. Winner = DATA
[DUEL] Epoch ended. INSTR misses = 36, DATA misses = 45. Winner = INSTR
[DUEL] Epoch ended. INSTR misses = 42, DATA misses = 34. Winner = DATA
*** Reached end of trace: (0, "../traces/public_traces/compute_int/compute_int_27.champsimtrace.xz")
[DUEL] Epoch ended. INSTR misses = 21, DATA misses = 36. Winner = INSTR
[DUEL] Epoch ended. INSTR misses = 10, DATA misses = 9. Winner = DATA
[DUEL] Epoch ended. INSTR misses = 3, DATA misses = 17. Winner = INSTR
[DUEL] Epoch ended. INSTR misses = 8, DATA misses = 10. Winner = INSTR
[DUEL] Epoch ended. INSTR misses = 7, DATA misses = 10. Winner = INSTR
[DUEL] Epoch ended. INSTR misses = 23, DATA misses = 15. Winner = DATA
[DUEL] Epoch ended. INSTR misses = 4, DATA misses = 4. Winner = INSTR
[DUEL] Epoch ended. INSTR misses = 16, DATA misses = 10. Winner = DATA
[DUEL] Epoch ended. INSTR misses = 6, DATA misses = 2. Winner = DATA
[DUEL] Epoch ended. INSTR misses = 19, DATA misses = 5. Winner = DATA
[DUEL] Epoch ended. INSTR misses = 16, DATA misses = 8. Winner = DATA
[DUEL] Epoch ended. INSTR misses = 12, DATA misses = 20. Winner = INSTR
[DUEL] Epoch ended. INSTR misses = 6, DATA misses = 16. Winner = INSTR
[DUEL] Epoch ended. INSTR misses = 18, DATA misses = 32. Winner = INSTR
[DUEL] Epoch ended. INSTR misses = 25, DATA misses = 35. Winner = INSTR
[DUEL] Epoch ended. INSTR misses = 8, DATA misses = 12. Winner = INSTR
[DUEL] Epoch ended. INSTR misses = 3, DATA misses = 9. Winner = INSTR
[DUEL] Epoch ended. INSTR misses = 19, DATA misses = 12. Winner = DATA
[DUEL] Epoch ended. INSTR misses = 20, DATA misses = 11. Winner = DATA
[DUEL] Epoch ended. INSTR misses = 19, DATA misses = 26. Winner = INSTR
[DUEL] Epoch ended. INSTR misses = 24, DATA misses = 11. Winner = DATA
[DUEL] Epoch ended. INSTR misses = 11, DATA misses = 1. Winner = DATA
[DUEL] Epoch ended. INSTR misses = 32, DATA misses = 23. Winner = DATA
[DUEL] Epoch ended. INSTR misses = 33, DATA misses = 8. Winner = DATA
[DUEL] Epoch ended. INSTR misses = 27, DATA misses = 42. Winner = INSTR
[DUEL] Epoch ended. INSTR misses = 31, DATA misses = 41. Winner = INSTR
[DUEL] Epoch ended. INSTR misses = 21, DATA misses = 9. Winner = DATA
Heartbeat CPU 0 instructions: 130000002 cycles: 83429527 heartbeat IPC: 1.551 cumulative IPC: 1.289 (Simulation time: 00 hr 13 min 43 sec)
Simulation finished CPU 0 instructions: 100000009 cycles: 77606592 cumulative IPC: 1.289 (Simulation time: 00 hr 13 min 43 sec)
Simulation complete CPU 0 instructions: 100000009 cycles: 77606592 cumulative IPC: 1.289 (Simulation time: 00 hr 13 min 43 sec)

ChampSim completed all CPUs

=== Simulation ===
CPU 0 runs ../traces/public_traces/compute_int/compute_int_27.champsimtrace.xz
Region of Interest Statistics

CPU 0 cumulative IPC: 1.289 instructions: 100000009 cycles: 77606592
CPU 0 Branch Prediction Accuracy: 99.43% MPKI: 1.439 Average ROB Occupancy at Mispredict: 276.2
Branch type MPKI
BRANCH_DIRECT_JUMP: 0
BRANCH_INDIRECT: 0.337
BRANCH_CONDITIONAL: 1.1
BRANCH_DIRECT_CALL: 0
BRANCH_INDIRECT_CALL: 1e-05
BRANCH_RETURN: 0.0001

LLC TOTAL        ACCESS:    3934006 HIT:     345969 MISS:    3588037
LLC LOAD         ACCESS:    1604907 HIT:     101063 MISS:    1503844
LLC RFO          ACCESS:      14554 HIT:       4492 MISS:      10062
LLC PREFETCH     ACCESS:    1491967 HIT:      28988 MISS:    1462979
LLC WRITE        ACCESS:     723205 HIT:     210971 MISS:     512234
LLC TRANSLATION  ACCESS:      99373 HIT:        455 MISS:      98918
LLC PREFETCH REQUESTED:          0 ISSUED:          0 USEFUL:          0 USELESS:          0
LLC AVERAGE MISS LATENCY: 184.2 cycles
cpu0_DTLB TOTAL        ACCESS:   16958840 HIT:   16223669 MISS:     735171
cpu0_DTLB LOAD         ACCESS:   16958840 HIT:   16223669 MISS:     735171
cpu0_DTLB RFO          ACCESS:          0 HIT:          0 MISS:          0
cpu0_DTLB PREFETCH     ACCESS:          0 HIT:          0 MISS:          0
cpu0_DTLB WRITE        ACCESS:          0 HIT:          0 MISS:          0
cpu0_DTLB TRANSLATION  ACCESS:          0 HIT:          0 MISS:          0
cpu0_DTLB PREFETCH REQUESTED:          0 ISSUED:          0 USEFUL:          0 USELESS:          0
cpu0_DTLB AVERAGE MISS LATENCY: 56.42 cycles
cpu0_ITLB TOTAL        ACCESS:       3528 HIT:       3528 MISS:          0
cpu0_ITLB LOAD         ACCESS:       3528 HIT:       3528 MISS:          0
cpu0_ITLB RFO          ACCESS:          0 HIT:          0 MISS:          0
cpu0_ITLB PREFETCH     ACCESS:          0 HIT:          0 MISS:          0
cpu0_ITLB WRITE        ACCESS:          0 HIT:          0 MISS:          0
cpu0_ITLB TRANSLATION  ACCESS:          0 HIT:          0 MISS:          0
cpu0_ITLB PREFETCH REQUESTED:          0 ISSUED:          0 USEFUL:          0 USELESS:          0
cpu0_ITLB AVERAGE MISS LATENCY: -nan cycles
cpu0_L1D TOTAL        ACCESS:   27539629 HIT:   20737645 MISS:    6801984
cpu0_L1D LOAD         ACCESS:   12212809 HIT:    8977012 MISS:    3235797
cpu0_L1D RFO          ACCESS:          0 HIT:          0 MISS:          0
cpu0_L1D PREFETCH     ACCESS:    6597096 HIT:    3240284 MISS:    3356812
cpu0_L1D WRITE        ACCESS:    8460806 HIT:    8386720 MISS:      74086
cpu0_L1D TRANSLATION  ACCESS:     268918 HIT:     133629 MISS:     135289
cpu0_L1D PREFETCH REQUESTED:   59676654 ISSUED:    6597065 USEFUL:     301806 USELESS:      74999
cpu0_L1D AVERAGE MISS LATENCY: 64.52 cycles
cpu0_L1I TOTAL        ACCESS:       5152 HIT:       4820 MISS:        332
cpu0_L1I LOAD         ACCESS:       2377 HIT:       2205 MISS:        172
cpu0_L1I RFO          ACCESS:          0 HIT:          0 MISS:          0
cpu0_L1I PREFETCH     ACCESS:       2775 HIT:       2615 MISS:        160
cpu0_L1I WRITE        ACCESS:          0 HIT:          0 MISS:          0
cpu0_L1I TRANSLATION  ACCESS:          0 HIT:          0 MISS:          0
cpu0_L1I PREFETCH REQUESTED:       3064 ISSUED:       2775 USEFUL:        114 USELESS:          0
cpu0_L1I AVERAGE MISS LATENCY: 174.3 cycles
cpu0_L2C TOTAL        ACCESS:   10885366 HIT:    4390125 MISS:    6495241
cpu0_L2C LOAD         ACCESS:    2095010 HIT:     168222 MISS:    1926788
cpu0_L2C RFO          ACCESS:      46950 HIT:      30477 MISS:      16473
cpu0_L2C PREFETCH     ACCESS:    7855369 HIT:    3402802 MISS:    4452567
cpu0_L2C WRITE        ACCESS:     757591 HIT:     757551 MISS:         40
cpu0_L2C TRANSLATION  ACCESS:     130446 HIT:      31073 MISS:      99373
cpu0_L2C PREFETCH REQUESTED:    4975801 ISSUED:    4974577 USEFUL:     625901 USELESS:     544640
cpu0_L2C AVERAGE MISS LATENCY: 109.4 cycles
cpu0_STLB TOTAL        ACCESS:     277608 HIT:      12394 MISS:     265214
cpu0_STLB LOAD         ACCESS:     277608 HIT:      12394 MISS:     265214
cpu0_STLB RFO          ACCESS:          0 HIT:          0 MISS:          0
cpu0_STLB PREFETCH     ACCESS:          0 HIT:          0 MISS:          0
cpu0_STLB WRITE        ACCESS:          0 HIT:          0 MISS:          0
cpu0_STLB TRANSLATION  ACCESS:          0 HIT:          0 MISS:          0
cpu0_STLB PREFETCH REQUESTED:          0 ISSUED:          0 USEFUL:          0 USELESS:          0
cpu0_STLB AVERAGE MISS LATENCY: 171.4 cycles

DRAM Statistics

Channel 0 RQ ROW_BUFFER_HIT:     800120
  ROW_BUFFER_MISS:     745509
 AVG DBUS CONGESTED CYCLE: 3.928
WQ ROW_BUFFER_HIT: Channel 0 
  ROW_BUFFER_MISS:       4085
  FULL:     293459

Channel 1 RQ ROW_BUFFER_HIT:     788960
  ROW_BUFFER_MISS:     741157
 AVG DBUS CONGESTED CYCLE: 3.915
WQ ROW_BUFFER_HIT: Channel 1 
  ROW_BUFFER_MISS:       4288
  FULL:     293697
BERTI TO_L1: 4001998 TO_L2: 59551256 TO_L2_BC_MSHR: 15455112
BERTI AVG_LAT: 142.987 NUM_TRACK_LATENCY: 3258146 NUM_CANT_TRACK_LATENCY: 0
BERTI CROSS_PAGE 6760797 NO_CROSS_PAGE: 56792457
BERTI FOUND_BERTI: 18914111 NO_FOUND_BERTI: 9913842
BERTI AVERAGE_ISSUED: 5.0051
CPU 0 L1I Entangling prefetcher final stats
IP accesses: 4119 104640 34 / 2377
IP misses: 3f12 fc480 13 / 172
IP hits: 0 0 0 / 0
IP late: 162e 58b80 3 / 87
IP wrong: 0 0 0 / 0
miss rate: 0.0723602
coverage: 0
coverage_late: 0.505814
accuracy: 0
accuracy_late: 1
discarded: 0
evicts entangled j table: 0
evicts entangled k table: 0
max bb size: 9
formats: 1 0 4 1 1 3 0 
hist_lookups: 0 0 2 3 2 1 0 0 1 1 2 1 1 0 0 0 0 195 
hist_lookups_evict: 0 %
hist_lookups_shortlat: 93.3015 %
bb_found_hist: 0 457 209 71 27 32 3 3 0 3 0 0 0 0 0 0 0 0 0 0 0 0 0 0 0 0 0 0 0 0 0 0 0 0 0 0 0 0 0 0 0 0 0 0 0 0 0 0 0 0 0 0 0 0 0 0 0 0 0 0 0 0 0 0 
bb_found_summary: 1422 805 1.76646
entangled_found_hist: 0 125 49 152 22 2 0 0 
entangled_found_summary: 777 350 2.22001
bb_ent_found_hist: 0 295 104 91 8 14 0 6 0 6 0 0 0 0 0 0 0 0 0 0 0 0 0 0 0 0 0 0 0 0 0 0 0 0 0 0 0 0 0 0 0 0 0 0 0 0 0 0 0 0 0 0 0 0 0 0 0 0 0 0 0 0 0 0 
bb_ent_found_summary: 974 524 1.85878
