WARNING: physical memory size is smaller than virtual memory size.

*** ChampSim Multicore Out-of-Order Simulator ***
Warmup Instructions: 30000000
Simulation Instructions: 100000000
Number of CPUs: 1
Page size: 4096

BTB:
Basic BTB sets: 1024 ways: 8
Indirect:
history lengths: 0 0 10 16 27 44 60 96 109 219 449 487 714 1313 2146 3881 
ITTAGE tables: 64768 bytes;Region table: 240 bytes;IUM: 384 bytes;Total Storage= 65392 bytes;
RAS:
RAS size: 64
[LLC] INSTR Demand IPV: 1 2 2 1 4 Prefetch IPV: 1 2 1 1 4
[LLC] DATA  Demand IPV: 1 1 1 2 4 Prefetch IPV: 1 1 2 2 4
Berti Prefetcher
CPU 0 Entangling prefetcher
Off-chip DRAM Size: 8 GiB Channels: 2 Width: 64-bit Data Race: 6400 MT/s
[DUEL] Epoch ended. INSTR misses = 94, DATA misses = 67. Winner = DATA
[DUEL] Epoch ended. INSTR misses = 47, DATA misses = 55. Winner = INSTR
[DUEL] Epoch ended. INSTR misses = 46, DATA misses = 45. Winner = DATA
[DUEL] Epoch ended. INSTR misses = 54, DATA misses = 52. Winner = DATA
[DUEL] Epoch ended. INSTR misses = 65, DATA misses = 69. Winner = INSTR
[DUEL] Epoch ended. INSTR misses = 72, DATA misses = 56. Winner = DATA
[DUEL] Epoch ended. INSTR misses = 67, DATA misses = 68. Winner = INSTR
[DUEL] Epoch ended. INSTR misses = 68, DATA misses = 63. Winner = DATA
[DUEL] Epoch ended. INSTR misses = 78, DATA misses = 62. Winner = DATA
[DUEL] Epoch ended. INSTR misses = 67, DATA misses = 73. Winner = INSTR
[DUEL] Epoch ended. INSTR misses = 81, DATA misses = 94. Winner = INSTR
[DUEL] Epoch ended. INSTR misses = 61, DATA misses = 81. Winner = INSTR
[DUEL] Epoch ended. INSTR misses = 80, DATA misses = 78. Winner = DATA
[DUEL] Epoch ended. INSTR misses = 91, DATA misses = 74. Winner = DATA
[DUEL] Epoch ended. INSTR misses = 105, DATA misses = 92. Winner = DATA
[DUEL] Epoch ended. INSTR misses = 64, DATA misses = 60. Winner = DATA
[DUEL] Epoch ended. INSTR misses = 71, DATA misses = 70. Winner = DATA
[DUEL] Epoch ended. INSTR misses = 81, DATA misses = 59. Winner = DATA
[DUEL] Epoch ended. INSTR misses = 82, DATA misses = 86. Winner = INSTR
[DUEL] Epoch ended. INSTR misses = 100, DATA misses = 69. Winner = DATA
[DUEL] Epoch ended. INSTR misses = 80, DATA misses = 71. Winner = DATA
[DUEL] Epoch ended. INSTR misses = 91, DATA misses = 77. Winner = DATA
[DUEL] Epoch ended. INSTR misses = 83, DATA misses = 75. Winner = DATA
[DUEL] Epoch ended. INSTR misses = 89, DATA misses = 78. Winner = DATA
[DUEL] Epoch ended. INSTR misses = 84, DATA misses = 76. Winner = DATA
[DUEL] Epoch ended. INSTR misses = 87, DATA misses = 91. Winner = INSTR
[DUEL] Epoch ended. INSTR misses = 76, DATA misses = 76. Winner = INSTR
[DUEL] Epoch ended. INSTR misses = 108, DATA misses = 106. Winner = DATA
[DUEL] Epoch ended. INSTR misses = 77, DATA misses = 83. Winner = INSTR
[DUEL] Epoch ended. INSTR misses = 92, DATA misses = 82. Winner = DATA
[DUEL] Epoch ended. INSTR misses = 88, DATA misses = 101. Winner = INSTR
[DUEL] Epoch ended. INSTR misses = 76, DATA misses = 65. Winner = DATA
[DUEL] Epoch ended. INSTR misses = 92, DATA misses = 86. Winner = DATA
[DUEL] Epoch ended. INSTR misses = 105, DATA misses = 108. Winner = INSTR
[DUEL] Epoch ended. INSTR misses = 89, DATA misses = 91. Winner = INSTR
[DUEL] Epoch ended. INSTR misses = 89, DATA misses = 77. Winner = DATA
[DUEL] Epoch ended. INSTR misses = 81, DATA misses = 102. Winner = INSTR
[DUEL] Epoch ended. INSTR misses = 85, DATA misses = 96. Winner = INSTR
[DUEL] Epoch ended. INSTR misses = 90, DATA misses = 108. Winner = INSTR
Heartbeat CPU 0 instructions: 10000011 cycles: 1667872 heartbeat IPC: 5.996 cumulative IPC: 5.996 (Simulation time: 00 hr 00 min 28 sec)
[DUEL] Epoch ended. INSTR misses = 90, DATA misses = 112. Winner = INSTR
[DUEL] Epoch ended. INSTR misses = 86, DATA misses = 101. Winner = INSTR
[DUEL] Epoch ended. INSTR misses = 103, DATA misses = 92. Winner = DATA
[DUEL] Epoch ended. INSTR misses = 98, DATA misses = 102. Winner = INSTR
[DUEL] Epoch ended. INSTR misses = 87, DATA misses = 96. Winner = INSTR
[DUEL] Epoch ended. INSTR misses = 98, DATA misses = 93. Winner = DATA
[DUEL] Epoch ended. INSTR misses = 90, DATA misses = 83. Winner = DATA
[DUEL] Epoch ended. INSTR misses = 101, DATA misses = 90. Winner = DATA
[DUEL] Epoch ended. INSTR misses = 115, DATA misses = 93. Winner = DATA
[DUEL] Epoch ended. INSTR misses = 113, DATA misses = 76. Winner = DATA
[DUEL] Epoch ended. INSTR misses = 108, DATA misses = 77. Winner = DATA
[DUEL] Epoch ended. INSTR misses = 109, DATA misses = 90. Winner = DATA
[DUEL] Epoch ended. INSTR misses = 86, DATA misses = 72. Winner = DATA
[DUEL] Epoch ended. INSTR misses = 100, DATA misses = 77. Winner = DATA
[DUEL] Epoch ended. INSTR misses = 126, DATA misses = 99. Winner = DATA
[DUEL] Epoch ended. INSTR misses = 132, DATA misses = 96. Winner = DATA
[DUEL] Epoch ended. INSTR misses = 124, DATA misses = 83. Winner = DATA
[DUEL] Epoch ended. INSTR misses = 120, DATA misses = 101. Winner = DATA
[DUEL] Epoch ended. INSTR misses = 119, DATA misses = 92. Winner = DATA
[DUEL] Epoch ended. INSTR misses = 115, DATA misses = 89. Winner = DATA
[DUEL] Epoch ended. INSTR misses = 119, DATA misses = 103. Winner = DATA
[DUEL] Epoch ended. INSTR misses = 111, DATA misses = 98. Winner = DATA
[DUEL] Epoch ended. INSTR misses = 163, DATA misses = 124. Winner = DATA
[DUEL] Epoch ended. INSTR misses = 133, DATA misses = 99. Winner = DATA
[DUEL] Epoch ended. INSTR misses = 106, DATA misses = 77. Winner = DATA
[DUEL] Epoch ended. INSTR misses = 146, DATA misses = 104. Winner = DATA
[DUEL] Epoch ended. INSTR misses = 111, DATA misses = 78. Winner = DATA
[DUEL] Epoch ended. INSTR misses = 117, DATA misses = 109. Winner = DATA
[DUEL] Epoch ended. INSTR misses = 100, DATA misses = 93. Winner = DATA
[DUEL] Epoch ended. INSTR misses = 96, DATA misses = 83. Winner = DATA
[DUEL] Epoch ended. INSTR misses = 117, DATA misses = 99. Winner = DATA
[DUEL] Epoch ended. INSTR misses = 118, DATA misses = 123. Winner = INSTR
[DUEL] Epoch ended. INSTR misses = 115, DATA misses = 100. Winner = DATA
[DUEL] Epoch ended. INSTR misses = 120, DATA misses = 105. Winner = DATA
[DUEL] Epoch ended. INSTR misses = 126, DATA misses = 113. Winner = DATA
[DUEL] Epoch ended. INSTR misses = 114, DATA misses = 121. Winner = INSTR
[DUEL] Epoch ended. INSTR misses = 119, DATA misses = 119. Winner = INSTR
[DUEL] Epoch ended. INSTR misses = 122, DATA misses = 109. Winner = DATA
[DUEL] Epoch ended. INSTR misses = 122, DATA misses = 98. Winner = DATA
Heartbeat CPU 0 instructions: 20000011 cycles: 3334580 heartbeat IPC: 6 cumulative IPC: 5.998 (Simulation time: 00 hr 00 min 57 sec)
[DUEL] Epoch ended. INSTR misses = 120, DATA misses = 96. Winner = DATA
[DUEL] Epoch ended. INSTR misses = 142, DATA misses = 108. Winner = DATA
[DUEL] Epoch ended. INSTR misses = 126, DATA misses = 90. Winner = DATA
[DUEL] Epoch ended. INSTR misses = 125, DATA misses = 103. Winner = DATA
[DUEL] Epoch ended. INSTR misses = 130, DATA misses = 92. Winner = DATA
[DUEL] Epoch ended. INSTR misses = 94, DATA misses = 79. Winner = DATA
[DUEL] Epoch ended. INSTR misses = 358, DATA misses = 323. Winner = DATA
[DUEL] Epoch ended. INSTR misses = 412, DATA misses = 399. Winner = DATA
[DUEL] Epoch ended. INSTR misses = 298, DATA misses = 279. Winner = DATA
[DUEL] Epoch ended. INSTR misses = 306, DATA misses = 284. Winner = DATA
[DUEL] Epoch ended. INSTR misses = 266, DATA misses = 281. Winner = INSTR
[DUEL] Epoch ended. INSTR misses = 258, DATA misses = 242. Winner = DATA
[DUEL] Epoch ended. INSTR misses = 267, DATA misses = 274. Winner = INSTR
[DUEL] Epoch ended. INSTR misses = 306, DATA misses = 317. Winner = INSTR
[DUEL] Epoch ended. INSTR misses = 244, DATA misses = 225. Winner = DATA
[DUEL] Epoch ended. INSTR misses = 297, DATA misses = 243. Winner = DATA
[DUEL] Epoch ended. INSTR misses = 260, DATA misses = 332. Winner = INSTR
[DUEL] Epoch ended. INSTR misses = 223, DATA misses = 226. Winner = INSTR
[DUEL] Epoch ended. INSTR misses = 272, DATA misses = 272. Winner = INSTR
[DUEL] Epoch ended. INSTR misses = 281, DATA misses = 286. Winner = INSTR
[DUEL] Epoch ended. INSTR misses = 215, DATA misses = 211. Winner = DATA
[DUEL] Epoch ended. INSTR misses = 267, DATA misses = 270. Winner = INSTR
[DUEL] Epoch ended. INSTR misses = 271, DATA misses = 272. Winner = INSTR
[DUEL] Epoch ended. INSTR misses = 256, DATA misses = 256. Winner = INSTR
[DUEL] Epoch ended. INSTR misses = 248, DATA misses = 248. Winner = INSTR
[DUEL] Epoch ended. INSTR misses = 241, DATA misses = 242. Winner = INSTR
[DUEL] Epoch ended. INSTR misses = 236, DATA misses = 239. Winner = INSTR
[DUEL] Epoch ended. INSTR misses = 274, DATA misses = 273. Winner = DATA
[DUEL] Epoch ended. INSTR misses = 302, DATA misses = 303. Winner = INSTR
[DUEL] Epoch ended. INSTR misses = 266, DATA misses = 270. Winner = INSTR
[DUEL] Epoch ended. INSTR misses = 243, DATA misses = 241. Winner = DATA
[DUEL] Epoch ended. INSTR misses = 304, DATA misses = 302. Winner = DATA
[DUEL] Epoch ended. INSTR misses = 224, DATA misses = 223. Winner = DATA
[DUEL] Epoch ended. INSTR misses = 205, DATA misses = 175. Winner = DATA
[DUEL] Epoch ended. INSTR misses = 340, DATA misses = 275. Winner = DATA
[DUEL] Epoch ended. INSTR misses = 238, DATA misses = 330. Winner = INSTR
[DUEL] Epoch ended. INSTR misses = 256, DATA misses = 251. Winner = DATA
[DUEL] Epoch ended. INSTR misses = 257, DATA misses = 254. Winner = DATA
[DUEL] Epoch ended. INSTR misses = 255, DATA misses = 254. Winner = DATA
Heartbeat CPU 0 instructions: 30000006 cycles: 6589251 heartbeat IPC: 3.073 cumulative IPC: 4.553 (Simulation time: 00 hr 01 min 50 sec)
Warmup finished CPU 0 instructions: 30000006 cycles: 6589252 cumulative IPC: 4.553 (Simulation time: 00 hr 01 min 50 sec)
Warmup complete CPU 0 instructions: 30000006 cycles: 6589252 cumulative IPC: 4.553 (Simulation time: 00 hr 01 min 50 sec)
*** Reached end of trace: (0, "../traces/public_traces/compute_int/compute_int_37.champsimtrace.xz")
[DUEL] Epoch ended. INSTR misses = 90, DATA misses = 92. Winner = INSTR
[DUEL] Epoch ended. INSTR misses = 52, DATA misses = 48. Winner = DATA
[DUEL] Epoch ended. INSTR misses = 38, DATA misses = 28. Winner = DATA
[DUEL] Epoch ended. INSTR misses = 52, DATA misses = 35. Winner = DATA
[DUEL] Epoch ended. INSTR misses = 69, DATA misses = 75. Winner = INSTR
[DUEL] Epoch ended. INSTR misses = 60, DATA misses = 66. Winner = INSTR
[DUEL] Epoch ended. INSTR misses = 84, DATA misses = 57. Winner = DATA
[DUEL] Epoch ended. INSTR misses = 86, DATA misses = 69. Winner = DATA
[DUEL] Epoch ended. INSTR misses = 78, DATA misses = 80. Winner = INSTR
[DUEL] Epoch ended. INSTR misses = 78, DATA misses = 81. Winner = INSTR
[DUEL] Epoch ended. INSTR misses = 98, DATA misses = 119. Winner = INSTR
[DUEL] Epoch ended. INSTR misses = 68, DATA misses = 77. Winner = INSTR
[DUEL] Epoch ended. INSTR misses = 99, DATA misses = 99. Winner = INSTR
[DUEL] Epoch ended. INSTR misses = 110, DATA misses = 73. Winner = DATA
[DUEL] Epoch ended. INSTR misses = 114, DATA misses = 89. Winner = DATA
[DUEL] Epoch ended. INSTR misses = 105, DATA misses = 88. Winner = DATA
[DUEL] Epoch ended. INSTR misses = 82, DATA misses = 70. Winner = DATA
[DUEL] Epoch ended. INSTR misses = 102, DATA misses = 72. Winner = DATA
[DUEL] Epoch ended. INSTR misses = 114, DATA misses = 112. Winner = DATA
[DUEL] Epoch ended. INSTR misses = 118, DATA misses = 76. Winner = DATA
[DUEL] Epoch ended. INSTR misses = 118, DATA misses = 93. Winner = DATA
[DUEL] Epoch ended. INSTR misses = 125, DATA misses = 96. Winner = DATA
[DUEL] Epoch ended. INSTR misses = 104, DATA misses = 78. Winner = DATA
[DUEL] Epoch ended. INSTR misses = 104, DATA misses = 77. Winner = DATA
[DUEL] Epoch ended. INSTR misses = 106, DATA misses = 97. Winner = DATA
[DUEL] Epoch ended. INSTR misses = 117, DATA misses = 136. Winner = INSTR
[DUEL] Epoch ended. INSTR misses = 109, DATA misses = 102. Winner = DATA
[DUEL] Epoch ended. INSTR misses = 138, DATA misses = 130. Winner = DATA
[DUEL] Epoch ended. INSTR misses = 113, DATA misses = 104. Winner = DATA
[DUEL] Epoch ended. INSTR misses = 95, DATA misses = 95. Winner = INSTR
[DUEL] Epoch ended. INSTR misses = 109, DATA misses = 104. Winner = DATA
[DUEL] Epoch ended. INSTR misses = 106, DATA misses = 106. Winner = INSTR
[DUEL] Epoch ended. INSTR misses = 91, DATA misses = 105. Winner = INSTR
[DUEL] Epoch ended. INSTR misses = 134, DATA misses = 137. Winner = INSTR
[DUEL] Epoch ended. INSTR misses = 113, DATA misses = 130. Winner = INSTR
[DUEL] Epoch ended. INSTR misses = 116, DATA misses = 93. Winner = DATA
[DUEL] Epoch ended. INSTR misses = 107, DATA misses = 100. Winner = DATA
[DUEL] Epoch ended. INSTR misses = 91, DATA misses = 93. Winner = INSTR
[DUEL] Epoch ended. INSTR misses = 87, DATA misses = 110. Winner = INSTR
Heartbeat CPU 0 instructions: 40000003 cycles: 32252129 heartbeat IPC: 0.3897 cumulative IPC: 0.3897 (Simulation time: 00 hr 05 min 16 sec)
[DUEL] Epoch ended. INSTR misses = 125, DATA misses = 153. Winner = INSTR
[DUEL] Epoch ended. INSTR misses = 98, DATA misses = 102. Winner = INSTR
[DUEL] Epoch ended. INSTR misses = 124, DATA misses = 116. Winner = DATA
[DUEL] Epoch ended. INSTR misses = 118, DATA misses = 115. Winner = DATA
[DUEL] Epoch ended. INSTR misses = 100, DATA misses = 97. Winner = DATA
[DUEL] Epoch ended. INSTR misses = 115, DATA misses = 109. Winner = DATA
[DUEL] Epoch ended. INSTR misses = 108, DATA misses = 93. Winner = DATA
[DUEL] Epoch ended. INSTR misses = 126, DATA misses = 99. Winner = DATA
[DUEL] Epoch ended. INSTR misses = 123, DATA misses = 100. Winner = DATA
[DUEL] Epoch ended. INSTR misses = 128, DATA misses = 104. Winner = DATA
[DUEL] Epoch ended. INSTR misses = 124, DATA misses = 78. Winner = DATA
[DUEL] Epoch ended. INSTR misses = 120, DATA misses = 88. Winner = DATA
[DUEL] Epoch ended. INSTR misses = 105, DATA misses = 82. Winner = DATA
[DUEL] Epoch ended. INSTR misses = 118, DATA misses = 95. Winner = DATA
[DUEL] Epoch ended. INSTR misses = 130, DATA misses = 104. Winner = DATA
[DUEL] Epoch ended. INSTR misses = 143, DATA misses = 94. Winner = DATA
[DUEL] Epoch ended. INSTR misses = 136, DATA misses = 92. Winner = DATA
[DUEL] Epoch ended. INSTR misses = 109, DATA misses = 85. Winner = DATA
[DUEL] Epoch ended. INSTR misses = 127, DATA misses = 97. Winner = DATA
[DUEL] Epoch ended. INSTR misses = 108, DATA misses = 97. Winner = DATA
[DUEL] Epoch ended. INSTR misses = 140, DATA misses = 108. Winner = DATA
[DUEL] Epoch ended. INSTR misses = 162, DATA misses = 100. Winner = DATA
[DUEL] Epoch ended. INSTR misses = 205, DATA misses = 158. Winner = DATA
[DUEL] Epoch ended. INSTR misses = 160, DATA misses = 124. Winner = DATA
[DUEL] Epoch ended. INSTR misses = 141, DATA misses = 92. Winner = DATA
[DUEL] Epoch ended. INSTR misses = 134, DATA misses = 100. Winner = DATA
[DUEL] Epoch ended. INSTR misses = 156, DATA misses = 109. Winner = DATA
[DUEL] Epoch ended. INSTR misses = 151, DATA misses = 120. Winner = DATA
[DUEL] Epoch ended. INSTR misses = 138, DATA misses = 120. Winner = DATA
[DUEL] Epoch ended. INSTR misses = 132, DATA misses = 111. Winner = DATA
[DUEL] Epoch ended. INSTR misses = 133, DATA misses = 108. Winner = DATA
[DUEL] Epoch ended. INSTR misses = 139, DATA misses = 128. Winner = DATA
[DUEL] Epoch ended. INSTR misses = 125, DATA misses = 120. Winner = DATA
[DUEL] Epoch ended. INSTR misses = 113, DATA misses = 117. Winner = INSTR
[DUEL] Epoch ended. INSTR misses = 147, DATA misses = 127. Winner = DATA
[DUEL] Epoch ended. INSTR misses = 123, DATA misses = 123. Winner = INSTR
[DUEL] Epoch ended. INSTR misses = 131, DATA misses = 141. Winner = INSTR
[DUEL] Epoch ended. INSTR misses = 115, DATA misses = 100. Winner = DATA
[DUEL] Epoch ended. INSTR misses = 133, DATA misses = 105. Winner = DATA
Heartbeat CPU 0 instructions: 50000011 cycles: 61093474 heartbeat IPC: 0.3467 cumulative IPC: 0.3669 (Simulation time: 00 hr 08 min 55 sec)
[DUEL] Epoch ended. INSTR misses = 127, DATA misses = 98. Winner = DATA
[DUEL] Epoch ended. INSTR misses = 126, DATA misses = 93. Winner = DATA
[DUEL] Epoch ended. INSTR misses = 152, DATA misses = 109. Winner = DATA
[DUEL] Epoch ended. INSTR misses = 130, DATA misses = 95. Winner = DATA
[DUEL] Epoch ended. INSTR misses = 124, DATA misses = 94. Winner = DATA
[DUEL] Epoch ended. INSTR misses = 135, DATA misses = 100. Winner = DATA
[DUEL] Epoch ended. INSTR misses = 348, DATA misses = 322. Winner = DATA
[DUEL] Epoch ended. INSTR misses = 597, DATA misses = 569. Winner = DATA
[DUEL] Epoch ended. INSTR misses = 403, DATA misses = 365. Winner = DATA
[DUEL] Epoch ended. INSTR misses = 496, DATA misses = 486. Winner = DATA
[DUEL] Epoch ended. INSTR misses = 294, DATA misses = 294. Winner = INSTR
[DUEL] Epoch ended. INSTR misses = 253, DATA misses = 255. Winner = INSTR
[DUEL] Epoch ended. INSTR misses = 292, DATA misses = 281. Winner = DATA
[DUEL] Epoch ended. INSTR misses = 290, DATA misses = 309. Winner = INSTR
[DUEL] Epoch ended. INSTR misses = 251, DATA misses = 244. Winner = DATA
[DUEL] Epoch ended. INSTR misses = 304, DATA misses = 234. Winner = DATA
[DUEL] Epoch ended. INSTR misses = 255, DATA misses = 323. Winner = INSTR
[DUEL] Epoch ended. INSTR misses = 257, DATA misses = 265. Winner = INSTR
[DUEL] Epoch ended. INSTR misses = 262, DATA misses = 258. Winner = DATA
[DUEL] Epoch ended. INSTR misses = 258, DATA misses = 258. Winner = INSTR
[DUEL] Epoch ended. INSTR misses = 270, DATA misses = 274. Winner = INSTR
[DUEL] Epoch ended. INSTR misses = 246, DATA misses = 244. Winner = DATA
[DUEL] Epoch ended. INSTR misses = 271, DATA misses = 272. Winner = INSTR
[DUEL] Epoch ended. INSTR misses = 274, DATA misses = 274. Winner = INSTR
[DUEL] Epoch ended. INSTR misses = 258, DATA misses = 258. Winner = INSTR
[DUEL] Epoch ended. INSTR misses = 242, DATA misses = 242. Winner = INSTR
[DUEL] Epoch ended. INSTR misses = 245, DATA misses = 242. Winner = DATA
[DUEL] Epoch ended. INSTR misses = 259, DATA misses = 256. Winner = DATA
[DUEL] Epoch ended. INSTR misses = 289, DATA misses = 290. Winner = INSTR
[DUEL] Epoch ended. INSTR misses = 303, DATA misses = 305. Winner = INSTR
[DUEL] Epoch ended. INSTR misses = 242, DATA misses = 242. Winner = INSTR
[DUEL] Epoch ended. INSTR misses = 244, DATA misses = 242. Winner = DATA
[DUEL] Epoch ended. INSTR misses = 288, DATA misses = 288. Winner = INSTR
[DUEL] Epoch ended. INSTR misses = 191, DATA misses = 178. Winner = DATA
[DUEL] Epoch ended. INSTR misses = 350, DATA misses = 255. Winner = DATA
[DUEL] Epoch ended. INSTR misses = 239, DATA misses = 333. Winner = INSTR
[DUEL] Epoch ended. INSTR misses = 259, DATA misses = 268. Winner = INSTR
[DUEL] Epoch ended. INSTR misses = 258, DATA misses = 251. Winner = DATA
[DUEL] Epoch ended. INSTR misses = 276, DATA misses = 276. Winner = INSTR
Heartbeat CPU 0 instructions: 60000002 cycles: 92204294 heartbeat IPC: 0.3214 cumulative IPC: 0.3504 (Simulation time: 00 hr 13 min 07 sec)
*** Reached end of trace: (0, "../traces/public_traces/compute_int/compute_int_37.champsimtrace.xz")
[DUEL] Epoch ended. INSTR misses = 133, DATA misses = 128. Winner = DATA
[DUEL] Epoch ended. INSTR misses = 52, DATA misses = 48. Winner = DATA
[DUEL] Epoch ended. INSTR misses = 46, DATA misses = 28. Winner = DATA
[DUEL] Epoch ended. INSTR misses = 51, DATA misses = 31. Winner = DATA
[DUEL] Epoch ended. INSTR misses = 61, DATA misses = 62. Winner = INSTR
[DUEL] Epoch ended. INSTR misses = 67, DATA misses = 63. Winner = DATA
[DUEL] Epoch ended. INSTR misses = 63, DATA misses = 73. Winner = INSTR
[DUEL] Epoch ended. INSTR misses = 77, DATA misses = 71. Winner = DATA
[DUEL] Epoch ended. INSTR misses = 101, DATA misses = 75. Winner = DATA
[DUEL] Epoch ended. INSTR misses = 85, DATA misses = 85. Winner = INSTR
[DUEL] Epoch ended. INSTR misses = 101, DATA misses = 119. Winner = INSTR
[DUEL] Epoch ended. INSTR misses = 62, DATA misses = 89. Winner = INSTR
[DUEL] Epoch ended. INSTR misses = 91, DATA misses = 88. Winner = DATA
[DUEL] Epoch ended. INSTR misses = 93, DATA misses = 77. Winner = DATA
[DUEL] Epoch ended. INSTR misses = 109, DATA misses = 82. Winner = DATA
[DUEL] Epoch ended. INSTR misses = 105, DATA misses = 83. Winner = DATA
[DUEL] Epoch ended. INSTR misses = 97, DATA misses = 81. Winner = DATA
[DUEL] Epoch ended. INSTR misses = 104, DATA misses = 70. Winner = DATA
[DUEL] Epoch ended. INSTR misses = 94, DATA misses = 78. Winner = DATA
[DUEL] Epoch ended. INSTR misses = 124, DATA misses = 106. Winner = DATA
[DUEL] Epoch ended. INSTR misses = 129, DATA misses = 112. Winner = DATA
[DUEL] Epoch ended. INSTR misses = 121, DATA misses = 91. Winner = DATA
[DUEL] Epoch ended. INSTR misses = 110, DATA misses = 85. Winner = DATA
[DUEL] Epoch ended. INSTR misses = 103, DATA misses = 89. Winner = DATA
[DUEL] Epoch ended. INSTR misses = 99, DATA misses = 78. Winner = DATA
[DUEL] Epoch ended. INSTR misses = 115, DATA misses = 139. Winner = INSTR
[DUEL] Epoch ended. INSTR misses = 121, DATA misses = 120. Winner = DATA
[DUEL] Epoch ended. INSTR misses = 127, DATA misses = 133. Winner = INSTR
[DUEL] Epoch ended. INSTR misses = 107, DATA misses = 111. Winner = INSTR
[DUEL] Epoch ended. INSTR misses = 119, DATA misses = 89. Winner = DATA
[DUEL] Epoch ended. INSTR misses = 99, DATA misses = 88. Winner = DATA
[DUEL] Epoch ended. INSTR misses = 114, DATA misses = 114. Winner = INSTR
[DUEL] Epoch ended. INSTR misses = 106, DATA misses = 97. Winner = DATA
[DUEL] Epoch ended. INSTR misses = 116, DATA misses = 146. Winner = INSTR
[DUEL] Epoch ended. INSTR misses = 122, DATA misses = 138. Winner = INSTR
[DUEL] Epoch ended. INSTR misses = 108, DATA misses = 96. Winner = DATA
[DUEL] Epoch ended. INSTR misses = 102, DATA misses = 106. Winner = INSTR
[DUEL] Epoch ended. INSTR misses = 82, DATA misses = 90. Winner = INSTR
[DUEL] Epoch ended. INSTR misses = 110, DATA misses = 102. Winner = DATA
Heartbeat CPU 0 instructions: 70000006 cycles: 117799196 heartbeat IPC: 0.3907 cumulative IPC: 0.3597 (Simulation time: 00 hr 16 min 35 sec)
[DUEL] Epoch ended. INSTR misses = 121, DATA misses = 136. Winner = INSTR
[DUEL] Epoch ended. INSTR misses = 107, DATA misses = 122. Winner = INSTR
[DUEL] Epoch ended. INSTR misses = 101, DATA misses = 95. Winner = DATA
[DUEL] Epoch ended. INSTR misses = 128, DATA misses = 119. Winner = DATA
[DUEL] Epoch ended. INSTR misses = 100, DATA misses = 105. Winner = INSTR
[DUEL] Epoch ended. INSTR misses = 121, DATA misses = 103. Winner = DATA
[DUEL] Epoch ended. INSTR misses = 112, DATA misses = 100. Winner = DATA
[DUEL] Epoch ended. INSTR misses = 121, DATA misses = 105. Winner = DATA
[DUEL] Epoch ended. INSTR misses = 127, DATA misses = 102. Winner = DATA
[DUEL] Epoch ended. INSTR misses = 127, DATA misses = 95. Winner = DATA
[DUEL] Epoch ended. INSTR misses = 125, DATA misses = 92. Winner = DATA
[DUEL] Epoch ended. INSTR misses = 110, DATA misses = 75. Winner = DATA
[DUEL] Epoch ended. INSTR misses = 117, DATA misses = 87. Winner = DATA
[DUEL] Epoch ended. INSTR misses = 119, DATA misses = 79. Winner = DATA
[DUEL] Epoch ended. INSTR misses = 131, DATA misses = 93. Winner = DATA
[DUEL] Epoch ended. INSTR misses = 147, DATA misses = 117. Winner = DATA
[DUEL] Epoch ended. INSTR misses = 133, DATA misses = 89. Winner = DATA
[DUEL] Epoch ended. INSTR misses = 138, DATA misses = 96. Winner = DATA
[DUEL] Epoch ended. INSTR misses = 120, DATA misses = 92. Winner = DATA
[DUEL] Epoch ended. INSTR misses = 111, DATA misses = 94. Winner = DATA
[DUEL] Epoch ended. INSTR misses = 147, DATA misses = 120. Winner = DATA
[DUEL] Epoch ended. INSTR misses = 136, DATA misses = 109. Winner = DATA
[DUEL] Epoch ended. INSTR misses = 187, DATA misses = 126. Winner = DATA
[DUEL] Epoch ended. INSTR misses = 172, DATA misses = 132. Winner = DATA
[DUEL] Epoch ended. INSTR misses = 138, DATA misses = 96. Winner = DATA
[DUEL] Epoch ended. INSTR misses = 155, DATA misses = 105. Winner = DATA
[DUEL] Epoch ended. INSTR misses = 163, DATA misses = 115. Winner = DATA
[DUEL] Epoch ended. INSTR misses = 135, DATA misses = 98. Winner = DATA
[DUEL] Epoch ended. INSTR misses = 159, DATA misses = 134. Winner = DATA
[DUEL] Epoch ended. INSTR misses = 114, DATA misses = 98. Winner = DATA
[DUEL] Epoch ended. INSTR misses = 136, DATA misses = 108. Winner = DATA
[DUEL] Epoch ended. INSTR misses = 109, DATA misses = 100. Winner = DATA
[DUEL] Epoch ended. INSTR misses = 139, DATA misses = 127. Winner = DATA
[DUEL] Epoch ended. INSTR misses = 125, DATA misses = 112. Winner = DATA
[DUEL] Epoch ended. INSTR misses = 148, DATA misses = 144. Winner = DATA
[DUEL] Epoch ended. INSTR misses = 130, DATA misses = 127. Winner = DATA
[DUEL] Epoch ended. INSTR misses = 129, DATA misses = 131. Winner = INSTR
[DUEL] Epoch ended. INSTR misses = 135, DATA misses = 117. Winner = DATA
[DUEL] Epoch ended. INSTR misses = 121, DATA misses = 98. Winner = DATA
Heartbeat CPU 0 instructions: 80000008 cycles: 146485197 heartbeat IPC: 0.3486 cumulative IPC: 0.3574 (Simulation time: 00 hr 20 min 16 sec)
[DUEL] Epoch ended. INSTR misses = 131, DATA misses = 104. Winner = DATA
[DUEL] Epoch ended. INSTR misses = 138, DATA misses = 89. Winner = DATA
[DUEL] Epoch ended. INSTR misses = 129, DATA misses = 107. Winner = DATA
[DUEL] Epoch ended. INSTR misses = 134, DATA misses = 100. Winner = DATA
[DUEL] Epoch ended. INSTR misses = 139, DATA misses = 105. Winner = DATA
[DUEL] Epoch ended. INSTR misses = 105, DATA misses = 75. Winner = DATA
[DUEL] Epoch ended. INSTR misses = 249, DATA misses = 208. Winner = DATA
[DUEL] Epoch ended. INSTR misses = 609, DATA misses = 566. Winner = DATA
[DUEL] Epoch ended. INSTR misses = 447, DATA misses = 437. Winner = DATA
[DUEL] Epoch ended. INSTR misses = 497, DATA misses = 477. Winner = DATA
[DUEL] Epoch ended. INSTR misses = 304, DATA misses = 300. Winner = DATA
[DUEL] Epoch ended. INSTR misses = 259, DATA misses = 271. Winner = INSTR
[DUEL] Epoch ended. INSTR misses = 316, DATA misses = 293. Winner = DATA
[DUEL] Epoch ended. INSTR misses = 276, DATA misses = 299. Winner = INSTR
[DUEL] Epoch ended. INSTR misses = 261, DATA misses = 260. Winner = DATA
[DUEL] Epoch ended. INSTR misses = 297, DATA misses = 226. Winner = DATA
[DUEL] Epoch ended. INSTR misses = 271, DATA misses = 317. Winner = INSTR
[DUEL] Epoch ended. INSTR misses = 259, DATA misses = 279. Winner = INSTR
[DUEL] Epoch ended. INSTR misses = 262, DATA misses = 258. Winner = DATA
[DUEL] Epoch ended. INSTR misses = 260, DATA misses = 258. Winner = DATA
[DUEL] Epoch ended. INSTR misses = 254, DATA misses = 258. Winner = INSTR
[DUEL] Epoch ended. INSTR misses = 260, DATA misses = 258. Winner = DATA
[DUEL] Epoch ended. INSTR misses = 258, DATA misses = 258. Winner = INSTR
[DUEL] Epoch ended. INSTR misses = 244, DATA misses = 242. Winner = DATA
[DUEL] Epoch ended. INSTR misses = 291, DATA misses = 290. Winner = DATA
[DUEL] Epoch ended. INSTR misses = 243, DATA misses = 242. Winner = DATA
[DUEL] Epoch ended. INSTR misses = 244, DATA misses = 240. Winner = DATA
[DUEL] Epoch ended. INSTR misses = 258, DATA misses = 258. Winner = INSTR
[DUEL] Epoch ended. INSTR misses = 277, DATA misses = 274. Winner = DATA
[DUEL] Epoch ended. INSTR misses = 288, DATA misses = 289. Winner = INSTR
[DUEL] Epoch ended. INSTR misses = 275, DATA misses = 274. Winner = DATA
[DUEL] Epoch ended. INSTR misses = 259, DATA misses = 256. Winner = DATA
[DUEL] Epoch ended. INSTR misses = 291, DATA misses = 290. Winner = DATA
[DUEL] Epoch ended. INSTR misses = 231, DATA misses = 226. Winner = DATA
[DUEL] Epoch ended. INSTR misses = 292, DATA misses = 195. Winner = DATA
[DUEL] Epoch ended. INSTR misses = 245, DATA misses = 310. Winner = INSTR
[DUEL] Epoch ended. INSTR misses = 242, DATA misses = 269. Winner = INSTR
[DUEL] Epoch ended. INSTR misses = 292, DATA misses = 285. Winner = DATA
[DUEL] Epoch ended. INSTR misses = 259, DATA misses = 258. Winner = DATA
Heartbeat CPU 0 instructions: 90000002 cycles: 177625604 heartbeat IPC: 0.3211 cumulative IPC: 0.3508 (Simulation time: 00 hr 24 min 21 sec)
*** Reached end of trace: (0, "../traces/public_traces/compute_int/compute_int_37.champsimtrace.xz")
[DUEL] Epoch ended. INSTR misses = 198, DATA misses = 191. Winner = DATA
[DUEL] Epoch ended. INSTR misses = 73, DATA misses = 54. Winner = DATA
[DUEL] Epoch ended. INSTR misses = 46, DATA misses = 29. Winner = DATA
[DUEL] Epoch ended. INSTR misses = 53, DATA misses = 30. Winner = DATA
[DUEL] Epoch ended. INSTR misses = 77, DATA misses = 57. Winner = DATA
[DUEL] Epoch ended. INSTR misses = 72, DATA misses = 55. Winner = DATA
[DUEL] Epoch ended. INSTR misses = 58, DATA misses = 61. Winner = INSTR
[DUEL] Epoch ended. INSTR misses = 78, DATA misses = 73. Winner = DATA
[DUEL] Epoch ended. INSTR misses = 84, DATA misses = 74. Winner = DATA
[DUEL] Epoch ended. INSTR misses = 86, DATA misses = 81. Winner = DATA
[DUEL] Epoch ended. INSTR misses = 92, DATA misses = 110. Winner = INSTR
[DUEL] Epoch ended. INSTR misses = 69, DATA misses = 88. Winner = INSTR
[DUEL] Epoch ended. INSTR misses = 84, DATA misses = 79. Winner = DATA
[DUEL] Epoch ended. INSTR misses = 99, DATA misses = 95. Winner = DATA
[DUEL] Epoch ended. INSTR misses = 86, DATA misses = 67. Winner = DATA
[DUEL] Epoch ended. INSTR misses = 108, DATA misses = 88. Winner = DATA
[DUEL] Epoch ended. INSTR misses = 99, DATA misses = 82. Winner = DATA
[DUEL] Epoch ended. INSTR misses = 98, DATA misses = 70. Winner = DATA
[DUEL] Epoch ended. INSTR misses = 122, DATA misses = 69. Winner = DATA
[DUEL] Epoch ended. INSTR misses = 105, DATA misses = 99. Winner = DATA
[DUEL] Epoch ended. INSTR misses = 110, DATA misses = 77. Winner = DATA
[DUEL] Epoch ended. INSTR misses = 115, DATA misses = 100. Winner = DATA
[DUEL] Epoch ended. INSTR misses = 109, DATA misses = 85. Winner = DATA
[DUEL] Epoch ended. INSTR misses = 104, DATA misses = 90. Winner = DATA
[DUEL] Epoch ended. INSTR misses = 118, DATA misses = 91. Winner = DATA
[DUEL] Epoch ended. INSTR misses = 97, DATA misses = 91. Winner = DATA
[DUEL] Epoch ended. INSTR misses = 129, DATA misses = 138. Winner = INSTR
[DUEL] Epoch ended. INSTR misses = 100, DATA misses = 101. Winner = INSTR
[DUEL] Epoch ended. INSTR misses = 138, DATA misses = 140. Winner = INSTR
[DUEL] Epoch ended. INSTR misses = 99, DATA misses = 101. Winner = INSTR
[DUEL] Epoch ended. INSTR misses = 108, DATA misses = 104. Winner = DATA
[DUEL] Epoch ended. INSTR misses = 125, DATA misses = 114. Winner = DATA
[DUEL] Epoch ended. INSTR misses = 89, DATA misses = 92. Winner = INSTR
[DUEL] Epoch ended. INSTR misses = 117, DATA misses = 142. Winner = INSTR
[DUEL] Epoch ended. INSTR misses = 134, DATA misses = 125. Winner = DATA
[DUEL] Epoch ended. INSTR misses = 101, DATA misses = 116. Winner = INSTR
[DUEL] Epoch ended. INSTR misses = 103, DATA misses = 109. Winner = INSTR
[DUEL] Epoch ended. INSTR misses = 90, DATA misses = 93. Winner = INSTR
[DUEL] Epoch ended. INSTR misses = 101, DATA misses = 101. Winner = INSTR
Heartbeat CPU 0 instructions: 100000006 cycles: 203316933 heartbeat IPC: 0.3892 cumulative IPC: 0.3558 (Simulation time: 00 hr 27 min 43 sec)
[DUEL] Epoch ended. INSTR misses = 112, DATA misses = 109. Winner = DATA
[DUEL] Epoch ended. INSTR misses = 125, DATA misses = 135. Winner = INSTR
[DUEL] Epoch ended. INSTR misses = 105, DATA misses = 102. Winner = DATA
[DUEL] Epoch ended. INSTR misses = 118, DATA misses = 113. Winner = DATA
[DUEL] Epoch ended. INSTR misses = 97, DATA misses = 119. Winner = INSTR
[DUEL] Epoch ended. INSTR misses = 120, DATA misses = 95. Winner = DATA
[DUEL] Epoch ended. INSTR misses = 116, DATA misses = 106. Winner = DATA
[DUEL] Epoch ended. INSTR misses = 108, DATA misses = 97. Winner = DATA
[DUEL] Epoch ended. INSTR misses = 117, DATA misses = 92. Winner = DATA
[DUEL] Epoch ended. INSTR misses = 129, DATA misses = 91. Winner = DATA
[DUEL] Epoch ended. INSTR misses = 139, DATA misses = 90. Winner = DATA
[DUEL] Epoch ended. INSTR misses = 116, DATA misses = 84. Winner = DATA
[DUEL] Epoch ended. INSTR misses = 105, DATA misses = 84. Winner = DATA
[DUEL] Epoch ended. INSTR misses = 109, DATA misses = 82. Winner = DATA
[DUEL] Epoch ended. INSTR misses = 130, DATA misses = 83. Winner = DATA
[DUEL] Epoch ended. INSTR misses = 139, DATA misses = 98. Winner = DATA
[DUEL] Epoch ended. INSTR misses = 144, DATA misses = 111. Winner = DATA
[DUEL] Epoch ended. INSTR misses = 125, DATA misses = 91. Winner = DATA
[DUEL] Epoch ended. INSTR misses = 124, DATA misses = 94. Winner = DATA
[DUEL] Epoch ended. INSTR misses = 141, DATA misses = 93. Winner = DATA
[DUEL] Epoch ended. INSTR misses = 120, DATA misses = 99. Winner = DATA
[DUEL] Epoch ended. INSTR misses = 144, DATA misses = 110. Winner = DATA
[DUEL] Epoch ended. INSTR misses = 173, DATA misses = 136. Winner = DATA
[DUEL] Epoch ended. INSTR misses = 184, DATA misses = 141. Winner = DATA
[DUEL] Epoch ended. INSTR misses = 146, DATA misses = 91. Winner = DATA
[DUEL] Epoch ended. INSTR misses = 137, DATA misses = 107. Winner = DATA
[DUEL] Epoch ended. INSTR misses = 161, DATA misses = 121. Winner = DATA
[DUEL] Epoch ended. INSTR misses = 130, DATA misses = 87. Winner = DATA
[DUEL] Epoch ended. INSTR misses = 151, DATA misses = 125. Winner = DATA
[DUEL] Epoch ended. INSTR misses = 124, DATA misses = 106. Winner = DATA
[DUEL] Epoch ended. INSTR misses = 128, DATA misses = 121. Winner = DATA
[DUEL] Epoch ended. INSTR misses = 125, DATA misses = 105. Winner = DATA
[DUEL] Epoch ended. INSTR misses = 137, DATA misses = 122. Winner = DATA
[DUEL] Epoch ended. INSTR misses = 120, DATA misses = 110. Winner = DATA
[DUEL] Epoch ended. INSTR misses = 129, DATA misses = 132. Winner = INSTR
[DUEL] Epoch ended. INSTR misses = 129, DATA misses = 129. Winner = INSTR
[DUEL] Epoch ended. INSTR misses = 125, DATA misses = 131. Winner = INSTR
[DUEL] Epoch ended. INSTR misses = 139, DATA misses = 125. Winner = DATA
[DUEL] Epoch ended. INSTR misses = 132, DATA misses = 105. Winner = DATA
Heartbeat CPU 0 instructions: 110000006 cycles: 231916029 heartbeat IPC: 0.3497 cumulative IPC: 0.355 (Simulation time: 00 hr 31 min 32 sec)
[DUEL] Epoch ended. INSTR misses = 135, DATA misses = 100. Winner = DATA
[DUEL] Epoch ended. INSTR misses = 135, DATA misses = 97. Winner = DATA
[DUEL] Epoch ended. INSTR misses = 144, DATA misses = 105. Winner = DATA
[DUEL] Epoch ended. INSTR misses = 138, DATA misses = 99. Winner = DATA
[DUEL] Epoch ended. INSTR misses = 141, DATA misses = 99. Winner = DATA
[DUEL] Epoch ended. INSTR misses = 119, DATA misses = 98. Winner = DATA
[DUEL] Epoch ended. INSTR misses = 153, DATA misses = 114. Winner = DATA
[DUEL] Epoch ended. INSTR misses = 620, DATA misses = 559. Winner = DATA
[DUEL] Epoch ended. INSTR misses = 489, DATA misses = 488. Winner = DATA
[DUEL] Epoch ended. INSTR misses = 463, DATA misses = 454. Winner = DATA
[DUEL] Epoch ended. INSTR misses = 372, DATA misses = 345. Winner = DATA
[DUEL] Epoch ended. INSTR misses = 240, DATA misses = 257. Winner = INSTR
[DUEL] Epoch ended. INSTR misses = 300, DATA misses = 274. Winner = DATA
[DUEL] Epoch ended. INSTR misses = 278, DATA misses = 299. Winner = INSTR
[DUEL] Epoch ended. INSTR misses = 279, DATA misses = 280. Winner = INSTR
[DUEL] Epoch ended. INSTR misses = 279, DATA misses = 226. Winner = DATA
[DUEL] Epoch ended. INSTR misses = 289, DATA misses = 290. Winner = INSTR
[DUEL] Epoch ended. INSTR misses = 259, DATA misses = 306. Winner = INSTR
[DUEL] Epoch ended. INSTR misses = 244, DATA misses = 240. Winner = DATA
[DUEL] Epoch ended. INSTR misses = 278, DATA misses = 276. Winner = DATA
[DUEL] Epoch ended. INSTR misses = 252, DATA misses = 256. Winner = INSTR
[DUEL] Epoch ended. INSTR misses = 262, DATA misses = 260. Winner = DATA
[DUEL] Epoch ended. INSTR misses = 226, DATA misses = 226. Winner = INSTR
[DUEL] Epoch ended. INSTR misses = 275, DATA misses = 274. Winner = DATA
[DUEL] Epoch ended. INSTR misses = 275, DATA misses = 274. Winner = DATA
[DUEL] Epoch ended. INSTR misses = 258, DATA misses = 256. Winner = DATA
[DUEL] Epoch ended. INSTR misses = 229, DATA misses = 226. Winner = DATA
[DUEL] Epoch ended. INSTR misses = 275, DATA misses = 274. Winner = DATA
[DUEL] Epoch ended. INSTR misses = 261, DATA misses = 258. Winner = DATA
[DUEL] Epoch ended. INSTR misses = 303, DATA misses = 305. Winner = INSTR
[DUEL] Epoch ended. INSTR misses = 258, DATA misses = 256. Winner = DATA
[DUEL] Epoch ended. INSTR misses = 260, DATA misses = 258. Winner = DATA
[DUEL] Epoch ended. INSTR misses = 306, DATA misses = 306. Winner = INSTR
[DUEL] Epoch ended. INSTR misses = 244, DATA misses = 242. Winner = DATA
[DUEL] Epoch ended. INSTR misses = 255, DATA misses = 178. Winner = DATA
[DUEL] Epoch ended. INSTR misses = 282, DATA misses = 297. Winner = INSTR
[DUEL] Epoch ended. INSTR misses = 228, DATA misses = 283. Winner = INSTR
[DUEL] Epoch ended. INSTR misses = 277, DATA misses = 269. Winner = DATA
[DUEL] Epoch ended. INSTR misses = 275, DATA misses = 274. Winner = DATA
Heartbeat CPU 0 instructions: 120000001 cycles: 263036178 heartbeat IPC: 0.3213 cumulative IPC: 0.3509 (Simulation time: 00 hr 35 min 46 sec)
*** Reached end of trace: (0, "../traces/public_traces/compute_int/compute_int_37.champsimtrace.xz")
[DUEL] Epoch ended. INSTR misses = 235, DATA misses = 231. Winner = DATA
[DUEL] Epoch ended. INSTR misses = 60, DATA misses = 36. Winner = DATA
[DUEL] Epoch ended. INSTR misses = 66, DATA misses = 47. Winner = DATA
[DUEL] Epoch ended. INSTR misses = 55, DATA misses = 30. Winner = DATA
[DUEL] Epoch ended. INSTR misses = 66, DATA misses = 62. Winner = DATA
[DUEL] Epoch ended. INSTR misses = 69, DATA misses = 52. Winner = DATA
[DUEL] Epoch ended. INSTR misses = 68, DATA misses = 60. Winner = DATA
[DUEL] Epoch ended. INSTR misses = 84, DATA misses = 64. Winner = DATA
[DUEL] Epoch ended. INSTR misses = 83, DATA misses = 77. Winner = DATA
[DUEL] Epoch ended. INSTR misses = 95, DATA misses = 75. Winner = DATA
[DUEL] Epoch ended. INSTR misses = 77, DATA misses = 86. Winner = INSTR
[DUEL] Epoch ended. INSTR misses = 105, DATA misses = 127. Winner = INSTR
[DUEL] Epoch ended. INSTR misses = 80, DATA misses = 83. Winner = INSTR
[DUEL] Epoch ended. INSTR misses = 87, DATA misses = 81. Winner = DATA
[DUEL] Epoch ended. INSTR misses = 105, DATA misses = 92. Winner = DATA
[DUEL] Epoch ended. INSTR misses = 99, DATA misses = 79. Winner = DATA
[DUEL] Epoch ended. INSTR misses = 83, DATA misses = 78. Winner = DATA
[DUEL] Epoch ended. INSTR misses = 103, DATA misses = 86. Winner = DATA
[DUEL] Epoch ended. INSTR misses = 104, DATA misses = 75. Winner = DATA
[DUEL] Epoch ended. INSTR misses = 124, DATA misses = 87. Winner = DATA
[DUEL] Epoch ended. INSTR misses = 126, DATA misses = 82. Winner = DATA
[DUEL] Epoch ended. INSTR misses = 97, DATA misses = 84. Winner = DATA
[DUEL] Epoch ended. INSTR misses = 113, DATA misses = 92. Winner = DATA
[DUEL] Epoch ended. INSTR misses = 112, DATA misses = 98. Winner = DATA
[DUEL] Epoch ended. INSTR misses = 114, DATA misses = 91. Winner = DATA
[DUEL] Epoch ended. INSTR misses = 99, DATA misses = 86. Winner = DATA
[DUEL] Epoch ended. INSTR misses = 129, DATA misses = 145. Winner = INSTR
[DUEL] Epoch ended. INSTR misses = 114, DATA misses = 97. Winner = DATA
[DUEL] Epoch ended. INSTR misses = 140, DATA misses = 139. Winner = DATA
[DUEL] Epoch ended. INSTR misses = 104, DATA misses = 95. Winner = DATA
[DUEL] Epoch ended. INSTR misses = 104, DATA misses = 104. Winner = INSTR
[DUEL] Epoch ended. INSTR misses = 113, DATA misses = 126. Winner = INSTR
[DUEL] Epoch ended. INSTR misses = 105, DATA misses = 81. Winner = DATA
[DUEL] Epoch ended. INSTR misses = 105, DATA misses = 112. Winner = INSTR
[DUEL] Epoch ended. INSTR misses = 133, DATA misses = 153. Winner = INSTR
[DUEL] Epoch ended. INSTR misses = 118, DATA misses = 113. Winner = DATA
[DUEL] Epoch ended. INSTR misses = 106, DATA misses = 104. Winner = DATA
[DUEL] Epoch ended. INSTR misses = 88, DATA misses = 95. Winner = INSTR
[DUEL] Epoch ended. INSTR misses = 102, DATA misses = 107. Winner = INSTR
Heartbeat CPU 0 instructions: 130000000 cycles: 288764115 heartbeat IPC: 0.3887 cumulative IPC: 0.3544 (Simulation time: 00 hr 39 min 06 sec)
Simulation finished CPU 0 instructions: 100000004 cycles: 282174867 cumulative IPC: 0.3544 (Simulation time: 00 hr 39 min 06 sec)
Simulation complete CPU 0 instructions: 100000004 cycles: 282174867 cumulative IPC: 0.3544 (Simulation time: 00 hr 39 min 06 sec)

ChampSim completed all CPUs

=== Simulation ===
CPU 0 runs ../traces/public_traces/compute_int/compute_int_37.champsimtrace.xz
Region of Interest Statistics

CPU 0 cumulative IPC: 0.3544 instructions: 100000004 cycles: 282174867
CPU 0 Branch Prediction Accuracy: 99.89% MPKI: 0.1924 Average ROB Occupancy at Mispredict: 135.7
Branch type MPKI
BRANCH_DIRECT_JUMP: 0
BRANCH_INDIRECT: 0.192
BRANCH_CONDITIONAL: 0.00038
BRANCH_DIRECT_CALL: 0
BRANCH_INDIRECT_CALL: 0
BRANCH_RETURN: 0

LLC TOTAL        ACCESS:   15919307 HIT:    1015070 MISS:   14904237
LLC LOAD         ACCESS:    7281604 HIT:     284656 MISS:    6996948
LLC RFO          ACCESS:     263941 HIT:      30818 MISS:     233123
LLC PREFETCH     ACCESS:    3991250 HIT:     260801 MISS:    3730449
LLC WRITE        ACCESS:    2153219 HIT:     241919 MISS:    1911300
LLC TRANSLATION  ACCESS:    2229293 HIT:     196876 MISS:    2032417
LLC PREFETCH REQUESTED:          0 ISSUED:          0 USEFUL:          0 USELESS:          0
LLC AVERAGE MISS LATENCY: 301.9 cycles
cpu0_DTLB TOTAL        ACCESS:   19998635 HIT:   14386888 MISS:    5611747
cpu0_DTLB LOAD         ACCESS:   19998635 HIT:   14386888 MISS:    5611747
cpu0_DTLB RFO          ACCESS:          0 HIT:          0 MISS:          0
cpu0_DTLB PREFETCH     ACCESS:          0 HIT:          0 MISS:          0
cpu0_DTLB WRITE        ACCESS:          0 HIT:          0 MISS:          0
cpu0_DTLB TRANSLATION  ACCESS:          0 HIT:          0 MISS:          0
cpu0_DTLB PREFETCH REQUESTED:          0 ISSUED:          0 USEFUL:          0 USELESS:          0
cpu0_DTLB AVERAGE MISS LATENCY: 219.4 cycles
cpu0_ITLB TOTAL        ACCESS:      54979 HIT:      54979 MISS:          0
cpu0_ITLB LOAD         ACCESS:      54979 HIT:      54979 MISS:          0
cpu0_ITLB RFO          ACCESS:          0 HIT:          0 MISS:          0
cpu0_ITLB PREFETCH     ACCESS:          0 HIT:          0 MISS:          0
cpu0_ITLB WRITE        ACCESS:          0 HIT:          0 MISS:          0
cpu0_ITLB TRANSLATION  ACCESS:          0 HIT:          0 MISS:          0
cpu0_ITLB PREFETCH REQUESTED:          0 ISSUED:          0 USEFUL:          0 USELESS:          0
cpu0_ITLB AVERAGE MISS LATENCY: -nan cycles
cpu0_L1D TOTAL        ACCESS:   33109810 HIT:   12813798 MISS:   20296012
cpu0_L1D LOAD         ACCESS:   19009367 HIT:    7784468 MISS:   11224899
cpu0_L1D RFO          ACCESS:          0 HIT:          0 MISS:          0
cpu0_L1D PREFETCH     ACCESS:    8337755 HIT:    2348167 MISS:    5989588
cpu0_L1D WRITE        ACCESS:    2822159 HIT:    2154074 MISS:     668085
cpu0_L1D TRANSLATION  ACCESS:    2940529 HIT:     527089 MISS:    2413440
cpu0_L1D PREFETCH REQUESTED:  179333893 ISSUED:    8337719 USEFUL:     119374 USELESS:      34408
cpu0_L1D AVERAGE MISS LATENCY: 165.6 cycles
cpu0_L1I TOTAL        ACCESS:      69253 HIT:      68528 MISS:        725
cpu0_L1I LOAD         ACCESS:      35046 HIT:      34654 MISS:        392
cpu0_L1I RFO          ACCESS:          0 HIT:          0 MISS:          0
cpu0_L1I PREFETCH     ACCESS:      34207 HIT:      33874 MISS:        333
cpu0_L1I WRITE        ACCESS:          0 HIT:          0 MISS:          0
cpu0_L1I TRANSLATION  ACCESS:          0 HIT:          0 MISS:          0
cpu0_L1I PREFETCH REQUESTED:      34630 ISSUED:      34207 USEFUL:        241 USELESS:          0
cpu0_L1I AVERAGE MISS LATENCY: 189.7 cycles
cpu0_L2C TOTAL        ACCESS:   34810392 HIT:   15563234 MISS:   19247158
cpu0_L2C LOAD         ACCESS:    9586923 HIT:    2014415 MISS:    7572508
cpu0_L2C RFO          ACCESS:     393949 HIT:     130003 MISS:     263946
cpu0_L2C PREFETCH     ACCESS:   20190467 HIT:   11009107 MISS:    9181360
cpu0_L2C WRITE        ACCESS:    2237457 HIT:    2237430 MISS:         27
cpu0_L2C TRANSLATION  ACCESS:    2401596 HIT:     172279 MISS:    2229317
cpu0_L2C PREFETCH REQUESTED:   14984120 ISSUED:   14881715 USEFUL:     906600 USELESS:    2746426
cpu0_L2C AVERAGE MISS LATENCY: 247.5 cycles
cpu0_STLB TOTAL        ACCESS:    3056949 HIT:     653691 MISS:    2403258
cpu0_STLB LOAD         ACCESS:    3056949 HIT:     653691 MISS:    2403258
cpu0_STLB RFO          ACCESS:          0 HIT:          0 MISS:          0
cpu0_STLB PREFETCH     ACCESS:          0 HIT:          0 MISS:          0
cpu0_STLB WRITE        ACCESS:          0 HIT:          0 MISS:          0
cpu0_STLB TRANSLATION  ACCESS:          0 HIT:          0 MISS:          0
cpu0_STLB PREFETCH REQUESTED:          0 ISSUED:          0 USEFUL:          0 USELESS:          0
cpu0_STLB AVERAGE MISS LATENCY: 537.1 cycles

DRAM Statistics

Channel 0 RQ ROW_BUFFER_HIT:    3012847
  ROW_BUFFER_MISS:    3487676
 AVG DBUS CONGESTED CYCLE: 3.933
WQ ROW_BUFFER_HIT: Channel 0 
  ROW_BUFFER_MISS:      28278
  FULL:     988076

Channel 1 RQ ROW_BUFFER_HIT:    3015015
  ROW_BUFFER_MISS:    3477309
 AVG DBUS CONGESTED CYCLE: 3.918
WQ ROW_BUFFER_HIT: Channel 1 
  ROW_BUFFER_MISS:      27144
  FULL:     986244
BERTI TO_L1: 4316260 TO_L2: 191534718 TO_L2_BC_MSHR: 49473796
BERTI AVG_LAT: 208.962 NUM_TRACK_LATENCY: 12842562 NUM_CANT_TRACK_LATENCY: 3182
BERTI CROSS_PAGE 46057911 NO_CROSS_PAGE: 149793067
BERTI FOUND_BERTI: 62093894 NO_FOUND_BERTI: 15324305
BERTI AVERAGE_ISSUED: 3.86248
CPU 0 L1I Entangling prefetcher final stats
IP accesses: 68 1a00 11536 / 35046
IP misses: 4acb 12b2c0 21 / 392
IP hits: 0 0 0 / 0
IP late: 15b3 56cc0 3 / 208
IP wrong: 0 0 0 / 0
miss rate: 0.0111853
coverage: 0
coverage_late: 0.530613
accuracy: 0
accuracy_late: 1
discarded: 0
evicts entangled j table: 0
evicts entangled k table: 7
max bb size: 9
formats: 4 0 21 3 1 2 0 
hist_lookups: 0 2 5 6 7 5 8 6 3 5 3 2 0 0 0 0 0 256 
hist_lookups_evict: 0 %
hist_lookups_shortlat: 83.1169 %
bb_found_hist: 0 978 2199 164 3154 21 3 0 3 2 0 0 0 0 0 0 0 0 0 0 0 0 0 0 0 0 0 0 0 0 0 0 0 0 0 0 0 0 0 0 0 0 0 0 0 0 0 0 0 0 0 0 0 0 0 0 0 0 0 0 0 0 0 0 
bb_found_summary: 18649 6524 2.85853
entangled_found_hist: 0 2168 1992 263 20 0 0 0 
entangled_found_summary: 7021 4443 1.58024
bb_ent_found_hist: 0 2362 255 2102 13 17 3 0 3 2 0 0 0 0 0 0 0 0 0 0 0 0 0 0 0 0 0 0 0 0 0 0 0 0 0 0 0 0 0 0 0 0 0 0 0 0 0 0 0 0 0 0 0 0 0 0 0 0 0 0 0 0 0 0 
bb_ent_found_summary: 9375 4757 1.97078
