WARNING: physical memory size is smaller than virtual memory size.

*** ChampSim Multicore Out-of-Order Simulator ***
Warmup Instructions: 30000000
Simulation Instructions: 100000000
Number of CPUs: 1
Page size: 4096

BTB:
Basic BTB sets: 1024 ways: 8
Indirect:
history lengths: 0 0 10 16 27 44 60 96 109 219 449 487 714 1313 2146 3881 
ITTAGE tables: 64768 bytes;Region table: 240 bytes;IUM: 384 bytes;Total Storage= 65392 bytes;
RAS:
RAS size: 64
[LLC] INSTR Demand IPV: 1 2 2 1 4 Prefetch IPV: 1 2 1 1 4
[LLC] DATA  Demand IPV: 1 1 1 2 4 Prefetch IPV: 1 1 2 2 4
Berti Prefetcher
CPU 0 Entangling prefetcher
Off-chip DRAM Size: 8 GiB Channels: 2 Width: 64-bit Data Race: 6400 MT/s
[DUEL] Epoch ended. INSTR misses = 26, DATA misses = 14. Winner = DATA
[DUEL] Epoch ended. INSTR misses = 6, DATA misses = 0. Winner = DATA
[DUEL] Epoch ended. INSTR misses = 10, DATA misses = 10. Winner = INSTR
[DUEL] Epoch ended. INSTR misses = 2, DATA misses = 0. Winner = DATA
[DUEL] Epoch ended. INSTR misses = 0, DATA misses = 0. Winner = INSTR
[DUEL] Epoch ended. INSTR misses = 2, DATA misses = 12. Winner = INSTR
[DUEL] Epoch ended. INSTR misses = 2, DATA misses = 5. Winner = INSTR
[DUEL] Epoch ended. INSTR misses = 16, DATA misses = 10. Winner = DATA
[DUEL] Epoch ended. INSTR misses = 0, DATA misses = 6. Winner = INSTR
[DUEL] Epoch ended. INSTR misses = 16, DATA misses = 3. Winner = DATA
[DUEL] Epoch ended. INSTR misses = 1, DATA misses = 16. Winner = INSTR
[DUEL] Epoch ended. INSTR misses = 4, DATA misses = 0. Winner = DATA
[DUEL] Epoch ended. INSTR misses = 7, DATA misses = 0. Winner = DATA
[DUEL] Epoch ended. INSTR misses = 8, DATA misses = 14. Winner = INSTR
[DUEL] Epoch ended. INSTR misses = 0, DATA misses = 0. Winner = INSTR
[DUEL] Epoch ended. INSTR misses = 0, DATA misses = 0. Winner = INSTR
[DUEL] Epoch ended. INSTR misses = 0, DATA misses = 0. Winner = INSTR
[DUEL] Epoch ended. INSTR misses = 0, DATA misses = 0. Winner = INSTR
[DUEL] Epoch ended. INSTR misses = 0, DATA misses = 1. Winner = INSTR
[DUEL] Epoch ended. INSTR misses = 0, DATA misses = 0. Winner = INSTR
[DUEL] Epoch ended. INSTR misses = 0, DATA misses = 0. Winner = INSTR
[DUEL] Epoch ended. INSTR misses = 0, DATA misses = 0. Winner = INSTR
[DUEL] Epoch ended. INSTR misses = 13, DATA misses = 15. Winner = INSTR
[DUEL] Epoch ended. INSTR misses = 0, DATA misses = 0. Winner = INSTR
[DUEL] Epoch ended. INSTR misses = 0, DATA misses = 0. Winner = INSTR
[DUEL] Epoch ended. INSTR misses = 0, DATA misses = 0. Winner = INSTR
[DUEL] Epoch ended. INSTR misses = 9, DATA misses = 0. Winner = DATA
[DUEL] Epoch ended. INSTR misses = 6, DATA misses = 10. Winner = INSTR
[DUEL] Epoch ended. INSTR misses = 1, DATA misses = 0. Winner = DATA
[DUEL] Epoch ended. INSTR misses = 17, DATA misses = 6. Winner = DATA
[DUEL] Epoch ended. INSTR misses = 2, DATA misses = 11. Winner = INSTR
[DUEL] Epoch ended. INSTR misses = 14, DATA misses = 16. Winner = INSTR
[DUEL] Epoch ended. INSTR misses = 0, DATA misses = 0. Winner = INSTR
[DUEL] Epoch ended. INSTR misses = 0, DATA misses = 0. Winner = INSTR
[DUEL] Epoch ended. INSTR misses = 0, DATA misses = 0. Winner = INSTR
[DUEL] Epoch ended. INSTR misses = 0, DATA misses = 3. Winner = INSTR
[DUEL] Epoch ended. INSTR misses = 0, DATA misses = 0. Winner = INSTR
[DUEL] Epoch ended. INSTR misses = 0, DATA misses = 0. Winner = INSTR
Heartbeat CPU 0 instructions: 10000001 cycles: 1689072 heartbeat IPC: 5.92 cumulative IPC: 5.92 (Simulation time: 00 hr 00 min 26 sec)
[DUEL] Epoch ended. INSTR misses = 0, DATA misses = 2. Winner = INSTR
[DUEL] Epoch ended. INSTR misses = 0, DATA misses = 0. Winner = INSTR
[DUEL] Epoch ended. INSTR misses = 0, DATA misses = 0. Winner = INSTR
[DUEL] Epoch ended. INSTR misses = 3, DATA misses = 2. Winner = DATA
[DUEL] Epoch ended. INSTR misses = 0, DATA misses = 1. Winner = INSTR
[DUEL] Epoch ended. INSTR misses = 0, DATA misses = 0. Winner = INSTR
[DUEL] Epoch ended. INSTR misses = 0, DATA misses = 1. Winner = INSTR
[DUEL] Epoch ended. INSTR misses = 0, DATA misses = 0. Winner = INSTR
[DUEL] Epoch ended. INSTR misses = 0, DATA misses = 0. Winner = INSTR
[DUEL] Epoch ended. INSTR misses = 5, DATA misses = 10. Winner = INSTR
[DUEL] Epoch ended. INSTR misses = 7, DATA misses = 13. Winner = INSTR
[DUEL] Epoch ended. INSTR misses = 7, DATA misses = 8. Winner = INSTR
[DUEL] Epoch ended. INSTR misses = 20, DATA misses = 24. Winner = INSTR
[DUEL] Epoch ended. INSTR misses = 9, DATA misses = 10. Winner = INSTR
[DUEL] Epoch ended. INSTR misses = 14, DATA misses = 9. Winner = DATA
[DUEL] Epoch ended. INSTR misses = 145, DATA misses = 123. Winner = DATA
[DUEL] Epoch ended. INSTR misses = 161, DATA misses = 151. Winner = DATA
[DUEL] Epoch ended. INSTR misses = 160, DATA misses = 121. Winner = DATA
[DUEL] Epoch ended. INSTR misses = 110, DATA misses = 95. Winner = DATA
[DUEL] Epoch ended. INSTR misses = 13, DATA misses = 7. Winner = DATA
[DUEL] Epoch ended. INSTR misses = 1, DATA misses = 0. Winner = DATA
[DUEL] Epoch ended. INSTR misses = 23, DATA misses = 15. Winner = DATA
[DUEL] Epoch ended. INSTR misses = 16, DATA misses = 16. Winner = INSTR
[DUEL] Epoch ended. INSTR misses = 31, DATA misses = 30. Winner = DATA
[DUEL] Epoch ended. INSTR misses = 0, DATA misses = 0. Winner = INSTR
[DUEL] Epoch ended. INSTR misses = 31, DATA misses = 31. Winner = INSTR
[DUEL] Epoch ended. INSTR misses = 8, DATA misses = 0. Winner = DATA
[DUEL] Epoch ended. INSTR misses = 16, DATA misses = 16. Winner = INSTR
[DUEL] Epoch ended. INSTR misses = 2, DATA misses = 1. Winner = DATA
[DUEL] Epoch ended. INSTR misses = 16, DATA misses = 16. Winner = INSTR
[DUEL] Epoch ended. INSTR misses = 16, DATA misses = 16. Winner = INSTR
[DUEL] Epoch ended. INSTR misses = 0, DATA misses = 0. Winner = INSTR
[DUEL] Epoch ended. INSTR misses = 22, DATA misses = 20. Winner = DATA
[DUEL] Epoch ended. INSTR misses = 16, DATA misses = 16. Winner = INSTR
[DUEL] Epoch ended. INSTR misses = 33, DATA misses = 30. Winner = DATA
[DUEL] Epoch ended. INSTR misses = 0, DATA misses = 2. Winner = INSTR
[DUEL] Epoch ended. INSTR misses = 17, DATA misses = 16. Winner = DATA
[DUEL] Epoch ended. INSTR misses = 15, DATA misses = 15. Winner = INSTR
[DUEL] Epoch ended. INSTR misses = 16, DATA misses = 16. Winner = INSTR
Heartbeat CPU 0 instructions: 20000006 cycles: 3474807 heartbeat IPC: 5.6 cumulative IPC: 5.756 (Simulation time: 00 hr 00 min 53 sec)
[DUEL] Epoch ended. INSTR misses = 27, DATA misses = 22. Winner = DATA
[DUEL] Epoch ended. INSTR misses = 38, DATA misses = 22. Winner = DATA
[DUEL] Epoch ended. INSTR misses = 0, DATA misses = 19. Winner = INSTR
[DUEL] Epoch ended. INSTR misses = 5, DATA misses = 0. Winner = DATA
[DUEL] Epoch ended. INSTR misses = 16, DATA misses = 16. Winner = INSTR
[DUEL] Epoch ended. INSTR misses = 5, DATA misses = 0. Winner = DATA
[DUEL] Epoch ended. INSTR misses = 17, DATA misses = 16. Winner = DATA
[DUEL] Epoch ended. INSTR misses = 40, DATA misses = 41. Winner = INSTR
[DUEL] Epoch ended. INSTR misses = 2, DATA misses = 1. Winner = DATA
[DUEL] Epoch ended. INSTR misses = 23, DATA misses = 30. Winner = INSTR
[DUEL] Epoch ended. INSTR misses = 39, DATA misses = 40. Winner = INSTR
[DUEL] Epoch ended. INSTR misses = 0, DATA misses = 2. Winner = INSTR
[DUEL] Epoch ended. INSTR misses = 48, DATA misses = 45. Winner = DATA
[DUEL] Epoch ended. INSTR misses = 0, DATA misses = 0. Winner = INSTR
[DUEL] Epoch ended. INSTR misses = 1, DATA misses = 0. Winner = DATA
[DUEL] Epoch ended. INSTR misses = 2, DATA misses = 1. Winner = DATA
[DUEL] Epoch ended. INSTR misses = 1, DATA misses = 0. Winner = DATA
[DUEL] Epoch ended. INSTR misses = 6, DATA misses = 1. Winner = DATA
[DUEL] Epoch ended. INSTR misses = 42, DATA misses = 34. Winner = DATA
[DUEL] Epoch ended. INSTR misses = 4, DATA misses = 0. Winner = DATA
[DUEL] Epoch ended. INSTR misses = 0, DATA misses = 0. Winner = INSTR
[DUEL] Epoch ended. INSTR misses = 3, DATA misses = 0. Winner = DATA
[DUEL] Epoch ended. INSTR misses = 1, DATA misses = 2. Winner = INSTR
[DUEL] Epoch ended. INSTR misses = 2, DATA misses = 0. Winner = DATA
[DUEL] Epoch ended. INSTR misses = 2, DATA misses = 1. Winner = DATA
[DUEL] Epoch ended. INSTR misses = 3, DATA misses = 0. Winner = DATA
[DUEL] Epoch ended. INSTR misses = 1, DATA misses = 0. Winner = DATA
[DUEL] Epoch ended. INSTR misses = 2, DATA misses = 1. Winner = DATA
[DUEL] Epoch ended. INSTR misses = 2, DATA misses = 0. Winner = DATA
[DUEL] Epoch ended. INSTR misses = 1, DATA misses = 0. Winner = DATA
[DUEL] Epoch ended. INSTR misses = 1, DATA misses = 1. Winner = INSTR
[DUEL] Epoch ended. INSTR misses = 0, DATA misses = 0. Winner = INSTR
[DUEL] Epoch ended. INSTR misses = 1, DATA misses = 2. Winner = INSTR
[DUEL] Epoch ended. INSTR misses = 0, DATA misses = 1. Winner = INSTR
[DUEL] Epoch ended. INSTR misses = 2, DATA misses = 1. Winner = DATA
[DUEL] Epoch ended. INSTR misses = 0, DATA misses = 2. Winner = INSTR
[DUEL] Epoch ended. INSTR misses = 0, DATA misses = 1. Winner = INSTR
[DUEL] Epoch ended. INSTR misses = 0, DATA misses = 1. Winner = INSTR
[DUEL] Epoch ended. INSTR misses = 3, DATA misses = 1. Winner = DATA
Heartbeat CPU 0 instructions: 30000003 cycles: 5775970 heartbeat IPC: 4.346 cumulative IPC: 5.194 (Simulation time: 00 hr 01 min 22 sec)
Warmup finished CPU 0 instructions: 30000003 cycles: 5775971 cumulative IPC: 5.194 (Simulation time: 00 hr 01 min 22 sec)
Warmup complete CPU 0 instructions: 30000003 cycles: 5775971 cumulative IPC: 5.194 (Simulation time: 00 hr 01 min 22 sec)
[DUEL] Epoch ended. INSTR misses = 0, DATA misses = 2. Winner = INSTR
[DUEL] Epoch ended. INSTR misses = 2, DATA misses = 1. Winner = DATA
[DUEL] Epoch ended. INSTR misses = 11, DATA misses = 14. Winner = INSTR
*** Reached end of trace: (0, "../traces/public_traces/compute_int/compute_int_32.champsimtrace.xz")
[DUEL] Epoch ended. INSTR misses = 31, DATA misses = 23. Winner = DATA
[DUEL] Epoch ended. INSTR misses = 0, DATA misses = 0. Winner = INSTR
[DUEL] Epoch ended. INSTR misses = 0, DATA misses = 2. Winner = INSTR
[DUEL] Epoch ended. INSTR misses = 2, DATA misses = 1. Winner = DATA
[DUEL] Epoch ended. INSTR misses = 0, DATA misses = 0. Winner = INSTR
[DUEL] Epoch ended. INSTR misses = 1, DATA misses = 12. Winner = INSTR
[DUEL] Epoch ended. INSTR misses = 0, DATA misses = 1. Winner = INSTR
[DUEL] Epoch ended. INSTR misses = 3, DATA misses = 0. Winner = DATA
[DUEL] Epoch ended. INSTR misses = 1, DATA misses = 1. Winner = INSTR
[DUEL] Epoch ended. INSTR misses = 3, DATA misses = 6. Winner = INSTR
[DUEL] Epoch ended. INSTR misses = 16, DATA misses = 16. Winner = INSTR
[DUEL] Epoch ended. INSTR misses = 2, DATA misses = 0. Winner = DATA
[DUEL] Epoch ended. INSTR misses = 0, DATA misses = 1. Winner = INSTR
[DUEL] Epoch ended. INSTR misses = 3, DATA misses = 2. Winner = DATA
[DUEL] Epoch ended. INSTR misses = 0, DATA misses = 0. Winner = INSTR
[DUEL] Epoch ended. INSTR misses = 0, DATA misses = 0. Winner = INSTR
[DUEL] Epoch ended. INSTR misses = 0, DATA misses = 0. Winner = INSTR
[DUEL] Epoch ended. INSTR misses = 0, DATA misses = 0. Winner = INSTR
[DUEL] Epoch ended. INSTR misses = 0, DATA misses = 2. Winner = INSTR
[DUEL] Epoch ended. INSTR misses = 0, DATA misses = 0. Winner = INSTR
[DUEL] Epoch ended. INSTR misses = 0, DATA misses = 0. Winner = INSTR
[DUEL] Epoch ended. INSTR misses = 0, DATA misses = 0. Winner = INSTR
[DUEL] Epoch ended. INSTR misses = 11, DATA misses = 15. Winner = INSTR
[DUEL] Epoch ended. INSTR misses = 3, DATA misses = 0. Winner = DATA
[DUEL] Epoch ended. INSTR misses = 1, DATA misses = 0. Winner = DATA
[DUEL] Epoch ended. INSTR misses = 0, DATA misses = 0. Winner = INSTR
[DUEL] Epoch ended. INSTR misses = 1, DATA misses = 0. Winner = DATA
[DUEL] Epoch ended. INSTR misses = 16, DATA misses = 10. Winner = DATA
[DUEL] Epoch ended. INSTR misses = 0, DATA misses = 1. Winner = INSTR
[DUEL] Epoch ended. INSTR misses = 5, DATA misses = 0. Winner = DATA
[DUEL] Epoch ended. INSTR misses = 4, DATA misses = 4. Winner = INSTR
[DUEL] Epoch ended. INSTR misses = 2, DATA misses = 0. Winner = DATA
[DUEL] Epoch ended. INSTR misses = 0, DATA misses = 0. Winner = INSTR
[DUEL] Epoch ended. INSTR misses = 0, DATA misses = 0. Winner = INSTR
[DUEL] Epoch ended. INSTR misses = 0, DATA misses = 0. Winner = INSTR
[DUEL] Epoch ended. INSTR misses = 0, DATA misses = 1. Winner = INSTR
Heartbeat CPU 0 instructions: 40000008 cycles: 8483206 heartbeat IPC: 3.694 cumulative IPC: 3.694 (Simulation time: 00 hr 02 min 00 sec)
[DUEL] Epoch ended. INSTR misses = 0, DATA misses = 2. Winner = INSTR
[DUEL] Epoch ended. INSTR misses = 0, DATA misses = 0. Winner = INSTR
[DUEL] Epoch ended. INSTR misses = 0, DATA misses = 2. Winner = INSTR
[DUEL] Epoch ended. INSTR misses = 0, DATA misses = 0. Winner = INSTR
[DUEL] Epoch ended. INSTR misses = 1, DATA misses = 0. Winner = DATA
[DUEL] Epoch ended. INSTR misses = 3, DATA misses = 3. Winner = INSTR
[DUEL] Epoch ended. INSTR misses = 2, DATA misses = 1. Winner = DATA
[DUEL] Epoch ended. INSTR misses = 0, DATA misses = 0. Winner = INSTR
[DUEL] Epoch ended. INSTR misses = 0, DATA misses = 2. Winner = INSTR
[DUEL] Epoch ended. INSTR misses = 0, DATA misses = 0. Winner = INSTR
[DUEL] Epoch ended. INSTR misses = 0, DATA misses = 0. Winner = INSTR
[DUEL] Epoch ended. INSTR misses = 5, DATA misses = 15. Winner = INSTR
[DUEL] Epoch ended. INSTR misses = 10, DATA misses = 11. Winner = INSTR
[DUEL] Epoch ended. INSTR misses = 4, DATA misses = 6. Winner = INSTR
[DUEL] Epoch ended. INSTR misses = 16, DATA misses = 13. Winner = DATA
[DUEL] Epoch ended. INSTR misses = 14, DATA misses = 18. Winner = INSTR
[DUEL] Epoch ended. INSTR misses = 4, DATA misses = 8. Winner = INSTR
[DUEL] Epoch ended. INSTR misses = 63, DATA misses = 49. Winner = DATA
[DUEL] Epoch ended. INSTR misses = 127, DATA misses = 124. Winner = DATA
[DUEL] Epoch ended. INSTR misses = 135, DATA misses = 139. Winner = INSTR
[DUEL] Epoch ended. INSTR misses = 144, DATA misses = 127. Winner = DATA
[DUEL] Epoch ended. INSTR misses = 2, DATA misses = 5. Winner = INSTR
[DUEL] Epoch ended. INSTR misses = 8, DATA misses = 1. Winner = DATA
[DUEL] Epoch ended. INSTR misses = 18, DATA misses = 14. Winner = DATA
[DUEL] Epoch ended. INSTR misses = 16, DATA misses = 16. Winner = INSTR
[DUEL] Epoch ended. INSTR misses = 0, DATA misses = 0. Winner = INSTR
[DUEL] Epoch ended. INSTR misses = 31, DATA misses = 30. Winner = DATA
[DUEL] Epoch ended. INSTR misses = 16, DATA misses = 16. Winner = INSTR
[DUEL] Epoch ended. INSTR misses = 25, DATA misses = 14. Winner = DATA
[DUEL] Epoch ended. INSTR misses = 1, DATA misses = 0. Winner = DATA
[DUEL] Epoch ended. INSTR misses = 15, DATA misses = 11. Winner = DATA
[DUEL] Epoch ended. INSTR misses = 16, DATA misses = 16. Winner = INSTR
[DUEL] Epoch ended. INSTR misses = 10, DATA misses = 0. Winner = DATA
[DUEL] Epoch ended. INSTR misses = 6, DATA misses = 16. Winner = INSTR
[DUEL] Epoch ended. INSTR misses = 17, DATA misses = 16. Winner = DATA
[DUEL] Epoch ended. INSTR misses = 20, DATA misses = 19. Winner = DATA
[DUEL] Epoch ended. INSTR misses = 10, DATA misses = 0. Winner = DATA
[DUEL] Epoch ended. INSTR misses = 19, DATA misses = 28. Winner = INSTR
[DUEL] Epoch ended. INSTR misses = 15, DATA misses = 14. Winner = DATA
Heartbeat CPU 0 instructions: 50000007 cycles: 15391340 heartbeat IPC: 1.448 cumulative IPC: 2.08 (Simulation time: 00 hr 03 min 04 sec)
[DUEL] Epoch ended. INSTR misses = 16, DATA misses = 15. Winner = DATA
[DUEL] Epoch ended. INSTR misses = 16, DATA misses = 16. Winner = INSTR
[DUEL] Epoch ended. INSTR misses = 6, DATA misses = 0. Winner = DATA
[DUEL] Epoch ended. INSTR misses = 38, DATA misses = 40. Winner = INSTR
[DUEL] Epoch ended. INSTR misses = 16, DATA misses = 19. Winner = INSTR
[DUEL] Epoch ended. INSTR misses = 5, DATA misses = 0. Winner = DATA
[DUEL] Epoch ended. INSTR misses = 3, DATA misses = 0. Winner = DATA
[DUEL] Epoch ended. INSTR misses = 19, DATA misses = 14. Winner = DATA
[DUEL] Epoch ended. INSTR misses = 17, DATA misses = 16. Winner = DATA
[DUEL] Epoch ended. INSTR misses = 41, DATA misses = 41. Winner = INSTR
[DUEL] Epoch ended. INSTR misses = 7, DATA misses = 1. Winner = DATA
[DUEL] Epoch ended. INSTR misses = 18, DATA misses = 30. Winner = INSTR
[DUEL] Epoch ended. INSTR misses = 23, DATA misses = 22. Winner = DATA
[DUEL] Epoch ended. INSTR misses = 16, DATA misses = 19. Winner = INSTR
[DUEL] Epoch ended. INSTR misses = 30, DATA misses = 31. Winner = INSTR
[DUEL] Epoch ended. INSTR misses = 15, DATA misses = 14. Winner = DATA
[DUEL] Epoch ended. INSTR misses = 0, DATA misses = 0. Winner = INSTR
[DUEL] Epoch ended. INSTR misses = 2, DATA misses = 1. Winner = DATA
[DUEL] Epoch ended. INSTR misses = 1, DATA misses = 0. Winner = DATA
[DUEL] Epoch ended. INSTR misses = 3, DATA misses = 0. Winner = DATA
[DUEL] Epoch ended. INSTR misses = 34, DATA misses = 35. Winner = INSTR
[DUEL] Epoch ended. INSTR misses = 4, DATA misses = 2. Winner = DATA
[DUEL] Epoch ended. INSTR misses = 0, DATA misses = 0. Winner = INSTR
[DUEL] Epoch ended. INSTR misses = 2, DATA misses = 0. Winner = DATA
[DUEL] Epoch ended. INSTR misses = 3, DATA misses = 0. Winner = DATA
[DUEL] Epoch ended. INSTR misses = 1, DATA misses = 0. Winner = DATA
[DUEL] Epoch ended. INSTR misses = 2, DATA misses = 2. Winner = INSTR
[DUEL] Epoch ended. INSTR misses = 1, DATA misses = 0. Winner = DATA
[DUEL] Epoch ended. INSTR misses = 2, DATA misses = 0. Winner = DATA
[DUEL] Epoch ended. INSTR misses = 1, DATA misses = 0. Winner = DATA
[DUEL] Epoch ended. INSTR misses = 2, DATA misses = 0. Winner = DATA
[DUEL] Epoch ended. INSTR misses = 2, DATA misses = 0. Winner = DATA
[DUEL] Epoch ended. INSTR misses = 1, DATA misses = 0. Winner = DATA
[DUEL] Epoch ended. INSTR misses = 1, DATA misses = 1. Winner = INSTR
[DUEL] Epoch ended. INSTR misses = 0, DATA misses = 1. Winner = INSTR
[DUEL] Epoch ended. INSTR misses = 0, DATA misses = 2. Winner = INSTR
[DUEL] Epoch ended. INSTR misses = 0, DATA misses = 1. Winner = INSTR
[DUEL] Epoch ended. INSTR misses = 0, DATA misses = 2. Winner = INSTR
Heartbeat CPU 0 instructions: 60000000 cycles: 19128980 heartbeat IPC: 2.675 cumulative IPC: 2.247 (Simulation time: 00 hr 03 min 50 sec)
[DUEL] Epoch ended. INSTR misses = 0, DATA misses = 0. Winner = INSTR
[DUEL] Epoch ended. INSTR misses = 0, DATA misses = 1. Winner = INSTR
[DUEL] Epoch ended. INSTR misses = 1, DATA misses = 2. Winner = INSTR
[DUEL] Epoch ended. INSTR misses = 0, DATA misses = 1. Winner = INSTR
[DUEL] Epoch ended. INSTR misses = 0, DATA misses = 2. Winner = INSTR
[DUEL] Epoch ended. INSTR misses = 11, DATA misses = 12. Winner = INSTR
*** Reached end of trace: (0, "../traces/public_traces/compute_int/compute_int_32.champsimtrace.xz")
[DUEL] Epoch ended. INSTR misses = 30, DATA misses = 20. Winner = DATA
[DUEL] Epoch ended. INSTR misses = 2, DATA misses = 0. Winner = DATA
[DUEL] Epoch ended. INSTR misses = 0, DATA misses = 2. Winner = INSTR
[DUEL] Epoch ended. INSTR misses = 2, DATA misses = 2. Winner = INSTR
[DUEL] Epoch ended. INSTR misses = 0, DATA misses = 0. Winner = INSTR
[DUEL] Epoch ended. INSTR misses = 1, DATA misses = 12. Winner = INSTR
[DUEL] Epoch ended. INSTR misses = 0, DATA misses = 1. Winner = INSTR
[DUEL] Epoch ended. INSTR misses = 3, DATA misses = 0. Winner = DATA
[DUEL] Epoch ended. INSTR misses = 1, DATA misses = 1. Winner = INSTR
[DUEL] Epoch ended. INSTR misses = 2, DATA misses = 5. Winner = INSTR
[DUEL] Epoch ended. INSTR misses = 16, DATA misses = 17. Winner = INSTR
[DUEL] Epoch ended. INSTR misses = 1, DATA misses = 0. Winner = DATA
[DUEL] Epoch ended. INSTR misses = 0, DATA misses = 1. Winner = INSTR
[DUEL] Epoch ended. INSTR misses = 3, DATA misses = 3. Winner = INSTR
[DUEL] Epoch ended. INSTR misses = 0, DATA misses = 1. Winner = INSTR
[DUEL] Epoch ended. INSTR misses = 0, DATA misses = 0. Winner = INSTR
[DUEL] Epoch ended. INSTR misses = 1, DATA misses = 0. Winner = DATA
[DUEL] Epoch ended. INSTR misses = 0, DATA misses = 0. Winner = INSTR
[DUEL] Epoch ended. INSTR misses = 0, DATA misses = 0. Winner = INSTR
[DUEL] Epoch ended. INSTR misses = 0, DATA misses = 2. Winner = INSTR
[DUEL] Epoch ended. INSTR misses = 0, DATA misses = 0. Winner = INSTR
[DUEL] Epoch ended. INSTR misses = 0, DATA misses = 0. Winner = INSTR
[DUEL] Epoch ended. INSTR misses = 11, DATA misses = 0. Winner = DATA
[DUEL] Epoch ended. INSTR misses = 3, DATA misses = 15. Winner = INSTR
[DUEL] Epoch ended. INSTR misses = 1, DATA misses = 0. Winner = DATA
[DUEL] Epoch ended. INSTR misses = 0, DATA misses = 0. Winner = INSTR
[DUEL] Epoch ended. INSTR misses = 1, DATA misses = 0. Winner = DATA
[DUEL] Epoch ended. INSTR misses = 16, DATA misses = 10. Winner = DATA
[DUEL] Epoch ended. INSTR misses = 0, DATA misses = 1. Winner = INSTR
[DUEL] Epoch ended. INSTR misses = 2, DATA misses = 0. Winner = DATA
[DUEL] Epoch ended. INSTR misses = 6, DATA misses = 3. Winner = DATA
[DUEL] Epoch ended. INSTR misses = 2, DATA misses = 0. Winner = DATA
[DUEL] Epoch ended. INSTR misses = 0, DATA misses = 0. Winner = INSTR
Heartbeat CPU 0 instructions: 70000009 cycles: 21807623 heartbeat IPC: 3.733 cumulative IPC: 2.495 (Simulation time: 00 hr 04 min 28 sec)
[DUEL] Epoch ended. INSTR misses = 0, DATA misses = 0. Winner = INSTR
[DUEL] Epoch ended. INSTR misses = 0, DATA misses = 0. Winner = INSTR
[DUEL] Epoch ended. INSTR misses = 0, DATA misses = 0. Winner = INSTR
[DUEL] Epoch ended. INSTR misses = 0, DATA misses = 1. Winner = INSTR
[DUEL] Epoch ended. INSTR misses = 0, DATA misses = 1. Winner = INSTR
[DUEL] Epoch ended. INSTR misses = 0, DATA misses = 0. Winner = INSTR
[DUEL] Epoch ended. INSTR misses = 0, DATA misses = 2. Winner = INSTR
[DUEL] Epoch ended. INSTR misses = 1, DATA misses = 0. Winner = DATA
[DUEL] Epoch ended. INSTR misses = 3, DATA misses = 2. Winner = DATA
[DUEL] Epoch ended. INSTR misses = 1, DATA misses = 0. Winner = DATA
[DUEL] Epoch ended. INSTR misses = 0, DATA misses = 1. Winner = INSTR
[DUEL] Epoch ended. INSTR misses = 0, DATA misses = 2. Winner = INSTR
[DUEL] Epoch ended. INSTR misses = 0, DATA misses = 0. Winner = INSTR
[DUEL] Epoch ended. INSTR misses = 0, DATA misses = 0. Winner = INSTR
[DUEL] Epoch ended. INSTR misses = 5, DATA misses = 5. Winner = INSTR
[DUEL] Epoch ended. INSTR misses = 8, DATA misses = 20. Winner = INSTR
[DUEL] Epoch ended. INSTR misses = 4, DATA misses = 4. Winner = INSTR
[DUEL] Epoch ended. INSTR misses = 11, DATA misses = 5. Winner = DATA
[DUEL] Epoch ended. INSTR misses = 15, DATA misses = 22. Winner = INSTR
[DUEL] Epoch ended. INSTR misses = 10, DATA misses = 11. Winner = INSTR
[DUEL] Epoch ended. INSTR misses = 39, DATA misses = 33. Winner = DATA
[DUEL] Epoch ended. INSTR misses = 102, DATA misses = 77. Winner = DATA
[DUEL] Epoch ended. INSTR misses = 131, DATA misses = 148. Winner = INSTR
[DUEL] Epoch ended. INSTR misses = 183, DATA misses = 164. Winner = DATA
[DUEL] Epoch ended. INSTR misses = 7, DATA misses = 5. Winner = DATA
[DUEL] Epoch ended. INSTR misses = 6, DATA misses = 2. Winner = DATA
[DUEL] Epoch ended. INSTR misses = 17, DATA misses = 14. Winner = DATA
[DUEL] Epoch ended. INSTR misses = 1, DATA misses = 0. Winner = DATA
[DUEL] Epoch ended. INSTR misses = 16, DATA misses = 16. Winner = INSTR
[DUEL] Epoch ended. INSTR misses = 31, DATA misses = 29. Winner = DATA
[DUEL] Epoch ended. INSTR misses = 16, DATA misses = 16. Winner = INSTR
[DUEL] Epoch ended. INSTR misses = 13, DATA misses = 14. Winner = INSTR
[DUEL] Epoch ended. INSTR misses = 7, DATA misses = 0. Winner = DATA
[DUEL] Epoch ended. INSTR misses = 13, DATA misses = 11. Winner = DATA
[DUEL] Epoch ended. INSTR misses = 17, DATA misses = 16. Winner = DATA
[DUEL] Epoch ended. INSTR misses = 0, DATA misses = 0. Winner = INSTR
[DUEL] Epoch ended. INSTR misses = 16, DATA misses = 16. Winner = INSTR
[DUEL] Epoch ended. INSTR misses = 17, DATA misses = 16. Winner = DATA
[DUEL] Epoch ended. INSTR misses = 4, DATA misses = 4. Winner = INSTR
Heartbeat CPU 0 instructions: 80000001 cycles: 28200732 heartbeat IPC: 1.564 cumulative IPC: 2.23 (Simulation time: 00 hr 05 min 30 sec)
[DUEL] Epoch ended. INSTR misses = 16, DATA misses = 15. Winner = DATA
[DUEL] Epoch ended. INSTR misses = 29, DATA misses = 27. Winner = DATA
[DUEL] Epoch ended. INSTR misses = 15, DATA misses = 14. Winner = DATA
[DUEL] Epoch ended. INSTR misses = 1, DATA misses = 0. Winner = DATA
[DUEL] Epoch ended. INSTR misses = 15, DATA misses = 15. Winner = INSTR
[DUEL] Epoch ended. INSTR misses = 19, DATA misses = 16. Winner = DATA
[DUEL] Epoch ended. INSTR misses = 23, DATA misses = 26. Winner = INSTR
[DUEL] Epoch ended. INSTR misses = 34, DATA misses = 32. Winner = DATA
[DUEL] Epoch ended. INSTR misses = 6, DATA misses = 0. Winner = DATA
[DUEL] Epoch ended. INSTR misses = 1, DATA misses = 0. Winner = DATA
[DUEL] Epoch ended. INSTR misses = 18, DATA misses = 13. Winner = DATA
[DUEL] Epoch ended. INSTR misses = 20, DATA misses = 16. Winner = DATA
[DUEL] Epoch ended. INSTR misses = 1, DATA misses = 0. Winner = DATA
[DUEL] Epoch ended. INSTR misses = 43, DATA misses = 42. Winner = DATA
[DUEL] Epoch ended. INSTR misses = 22, DATA misses = 30. Winner = INSTR
[DUEL] Epoch ended. INSTR misses = 22, DATA misses = 19. Winner = DATA
[DUEL] Epoch ended. INSTR misses = 17, DATA misses = 19. Winner = INSTR
[DUEL] Epoch ended. INSTR misses = 17, DATA misses = 19. Winner = INSTR
[DUEL] Epoch ended. INSTR misses = 29, DATA misses = 29. Winner = INSTR
[DUEL] Epoch ended. INSTR misses = 0, DATA misses = 0. Winner = INSTR
[DUEL] Epoch ended. INSTR misses = 2, DATA misses = 1. Winner = DATA
[DUEL] Epoch ended. INSTR misses = 2, DATA misses = 0. Winner = DATA
[DUEL] Epoch ended. INSTR misses = 2, DATA misses = 0. Winner = DATA
[DUEL] Epoch ended. INSTR misses = 22, DATA misses = 20. Winner = DATA
[DUEL] Epoch ended. INSTR misses = 18, DATA misses = 15. Winner = DATA
[DUEL] Epoch ended. INSTR misses = 1, DATA misses = 3. Winner = INSTR
[DUEL] Epoch ended. INSTR misses = 2, DATA misses = 0. Winner = DATA
[DUEL] Epoch ended. INSTR misses = 2, DATA misses = 0. Winner = DATA
[DUEL] Epoch ended. INSTR misses = 2, DATA misses = 2. Winner = INSTR
[DUEL] Epoch ended. INSTR misses = 2, DATA misses = 0. Winner = DATA
[DUEL] Epoch ended. INSTR misses = 1, DATA misses = 0. Winner = DATA
[DUEL] Epoch ended. INSTR misses = 1, DATA misses = 0. Winner = DATA
[DUEL] Epoch ended. INSTR misses = 2, DATA misses = 0. Winner = DATA
[DUEL] Epoch ended. INSTR misses = 1, DATA misses = 0. Winner = DATA
[DUEL] Epoch ended. INSTR misses = 3, DATA misses = 0. Winner = DATA
[DUEL] Epoch ended. INSTR misses = 2, DATA misses = 0. Winner = DATA
[DUEL] Epoch ended. INSTR misses = 0, DATA misses = 1. Winner = INSTR
[DUEL] Epoch ended. INSTR misses = 0, DATA misses = 1. Winner = INSTR
[DUEL] Epoch ended. INSTR misses = 0, DATA misses = 1. Winner = INSTR
Heartbeat CPU 0 instructions: 90000002 cycles: 31828622 heartbeat IPC: 2.756 cumulative IPC: 2.303 (Simulation time: 00 hr 06 min 14 sec)
[DUEL] Epoch ended. INSTR misses = 0, DATA misses = 1. Winner = INSTR
[DUEL] Epoch ended. INSTR misses = 0, DATA misses = 2. Winner = INSTR
[DUEL] Epoch ended. INSTR misses = 0, DATA misses = 1. Winner = INSTR
[DUEL] Epoch ended. INSTR misses = 0, DATA misses = 1. Winner = INSTR
[DUEL] Epoch ended. INSTR misses = 0, DATA misses = 1. Winner = INSTR
[DUEL] Epoch ended. INSTR misses = 1, DATA misses = 2. Winner = INSTR
[DUEL] Epoch ended. INSTR misses = 0, DATA misses = 1. Winner = INSTR
[DUEL] Epoch ended. INSTR misses = 11, DATA misses = 13. Winner = INSTR
*** Reached end of trace: (0, "../traces/public_traces/compute_int/compute_int_32.champsimtrace.xz")
[DUEL] Epoch ended. INSTR misses = 10, DATA misses = 4. Winner = DATA
[DUEL] Epoch ended. INSTR misses = 21, DATA misses = 15. Winner = DATA
[DUEL] Epoch ended. INSTR misses = 0, DATA misses = 1. Winner = INSTR
[DUEL] Epoch ended. INSTR misses = 2, DATA misses = 1. Winner = DATA
[DUEL] Epoch ended. INSTR misses = 0, DATA misses = 1. Winner = INSTR
[DUEL] Epoch ended. INSTR misses = 0, DATA misses = 0. Winner = INSTR
[DUEL] Epoch ended. INSTR misses = 1, DATA misses = 13. Winner = INSTR
[DUEL] Epoch ended. INSTR misses = 2, DATA misses = 1. Winner = DATA
[DUEL] Epoch ended. INSTR misses = 1, DATA misses = 0. Winner = DATA
[DUEL] Epoch ended. INSTR misses = 0, DATA misses = 0. Winner = INSTR
[DUEL] Epoch ended. INSTR misses = 18, DATA misses = 6. Winner = DATA
[DUEL] Epoch ended. INSTR misses = 0, DATA misses = 17. Winner = INSTR
[DUEL] Epoch ended. INSTR misses = 1, DATA misses = 0. Winner = DATA
[DUEL] Epoch ended. INSTR misses = 2, DATA misses = 0. Winner = DATA
[DUEL] Epoch ended. INSTR misses = 1, DATA misses = 3. Winner = INSTR
[DUEL] Epoch ended. INSTR misses = 0, DATA misses = 1. Winner = INSTR
[DUEL] Epoch ended. INSTR misses = 0, DATA misses = 0. Winner = INSTR
[DUEL] Epoch ended. INSTR misses = 0, DATA misses = 0. Winner = INSTR
[DUEL] Epoch ended. INSTR misses = 0, DATA misses = 0. Winner = INSTR
[DUEL] Epoch ended. INSTR misses = 0, DATA misses = 2. Winner = INSTR
[DUEL] Epoch ended. INSTR misses = 0, DATA misses = 0. Winner = INSTR
[DUEL] Epoch ended. INSTR misses = 0, DATA misses = 0. Winner = INSTR
[DUEL] Epoch ended. INSTR misses = 0, DATA misses = 0. Winner = INSTR
[DUEL] Epoch ended. INSTR misses = 13, DATA misses = 15. Winner = INSTR
[DUEL] Epoch ended. INSTR misses = 2, DATA misses = 0. Winner = DATA
[DUEL] Epoch ended. INSTR misses = 0, DATA misses = 0. Winner = INSTR
[DUEL] Epoch ended. INSTR misses = 1, DATA misses = 0. Winner = DATA
[DUEL] Epoch ended. INSTR misses = 9, DATA misses = 0. Winner = DATA
[DUEL] Epoch ended. INSTR misses = 7, DATA misses = 10. Winner = INSTR
[DUEL] Epoch ended. INSTR misses = 2, DATA misses = 1. Winner = DATA
[DUEL] Epoch ended. INSTR misses = 5, DATA misses = 0. Winner = DATA
Heartbeat CPU 0 instructions: 100000000 cycles: 34520734 heartbeat IPC: 3.715 cumulative IPC: 2.435 (Simulation time: 00 hr 06 min 53 sec)
[DUEL] Epoch ended. INSTR misses = 2, DATA misses = 3. Winner = INSTR
[DUEL] Epoch ended. INSTR misses = 2, DATA misses = 0. Winner = DATA
[DUEL] Epoch ended. INSTR misses = 0, DATA misses = 0. Winner = INSTR
[DUEL] Epoch ended. INSTR misses = 0, DATA misses = 0. Winner = INSTR
[DUEL] Epoch ended. INSTR misses = 0, DATA misses = 0. Winner = INSTR
[DUEL] Epoch ended. INSTR misses = 0, DATA misses = 1. Winner = INSTR
[DUEL] Epoch ended. INSTR misses = 0, DATA misses = 1. Winner = INSTR
[DUEL] Epoch ended. INSTR misses = 0, DATA misses = 0. Winner = INSTR
[DUEL] Epoch ended. INSTR misses = 0, DATA misses = 2. Winner = INSTR
[DUEL] Epoch ended. INSTR misses = 0, DATA misses = 0. Winner = INSTR
[DUEL] Epoch ended. INSTR misses = 1, DATA misses = 0. Winner = DATA
[DUEL] Epoch ended. INSTR misses = 3, DATA misses = 4. Winner = INSTR
[DUEL] Epoch ended. INSTR misses = 1, DATA misses = 1. Winner = INSTR
[DUEL] Epoch ended. INSTR misses = 0, DATA misses = 0. Winner = INSTR
[DUEL] Epoch ended. INSTR misses = 0, DATA misses = 2. Winner = INSTR
[DUEL] Epoch ended. INSTR misses = 0, DATA misses = 0. Winner = INSTR
[DUEL] Epoch ended. INSTR misses = 0, DATA misses = 1. Winner = INSTR
[DUEL] Epoch ended. INSTR misses = 5, DATA misses = 14. Winner = INSTR
[DUEL] Epoch ended. INSTR misses = 9, DATA misses = 11. Winner = INSTR
[DUEL] Epoch ended. INSTR misses = 6, DATA misses = 7. Winner = INSTR
[DUEL] Epoch ended. INSTR misses = 18, DATA misses = 22. Winner = INSTR
[DUEL] Epoch ended. INSTR misses = 9, DATA misses = 8. Winner = DATA
[DUEL] Epoch ended. INSTR misses = 17, DATA misses = 8. Winner = DATA
[DUEL] Epoch ended. INSTR misses = 100, DATA misses = 68. Winner = DATA
[DUEL] Epoch ended. INSTR misses = 120, DATA misses = 124. Winner = INSTR
[DUEL] Epoch ended. INSTR misses = 146, DATA misses = 120. Winner = DATA
[DUEL] Epoch ended. INSTR misses = 99, DATA misses = 108. Winner = INSTR
[DUEL] Epoch ended. INSTR misses = 5, DATA misses = 1. Winner = DATA
[DUEL] Epoch ended. INSTR misses = 0, DATA misses = 0. Winner = INSTR
[DUEL] Epoch ended. INSTR misses = 18, DATA misses = 13. Winner = DATA
[DUEL] Epoch ended. INSTR misses = 16, DATA misses = 16. Winner = INSTR
[DUEL] Epoch ended. INSTR misses = 31, DATA misses = 29. Winner = DATA
[DUEL] Epoch ended. INSTR misses = 0, DATA misses = 0. Winner = INSTR
[DUEL] Epoch ended. INSTR misses = 30, DATA misses = 30. Winner = INSTR
[DUEL] Epoch ended. INSTR misses = 17, DATA misses = 1. Winner = DATA
[DUEL] Epoch ended. INSTR misses = 12, DATA misses = 11. Winner = DATA
[DUEL] Epoch ended. INSTR misses = 2, DATA misses = 0. Winner = DATA
[DUEL] Epoch ended. INSTR misses = 16, DATA misses = 16. Winner = INSTR
[DUEL] Epoch ended. INSTR misses = 16, DATA misses = 16. Winner = INSTR
Heartbeat CPU 0 instructions: 110000010 cycles: 40661645 heartbeat IPC: 1.628 cumulative IPC: 2.293 (Simulation time: 00 hr 07 min 54 sec)
[DUEL] Epoch ended. INSTR misses = 0, DATA misses = 0. Winner = INSTR
[DUEL] Epoch ended. INSTR misses = 21, DATA misses = 20. Winner = DATA
[DUEL] Epoch ended. INSTR misses = 16, DATA misses = 15. Winner = DATA
[DUEL] Epoch ended. INSTR misses = 29, DATA misses = 25. Winner = DATA
[DUEL] Epoch ended. INSTR misses = 0, DATA misses = 1. Winner = INSTR
[DUEL] Epoch ended. INSTR misses = 16, DATA misses = 14. Winner = DATA
[DUEL] Epoch ended. INSTR misses = 15, DATA misses = 15. Winner = INSTR
[DUEL] Epoch ended. INSTR misses = 16, DATA misses = 16. Winner = INSTR
[DUEL] Epoch ended. INSTR misses = 26, DATA misses = 22. Winner = DATA
[DUEL] Epoch ended. INSTR misses = 31, DATA misses = 16. Winner = DATA
[DUEL] Epoch ended. INSTR misses = 3, DATA misses = 19. Winner = INSTR
[DUEL] Epoch ended. INSTR misses = 15, DATA misses = 0. Winner = DATA
[DUEL] Epoch ended. INSTR misses = 17, DATA misses = 13. Winner = DATA
[DUEL] Epoch ended. INSTR misses = 6, DATA misses = 0. Winner = DATA
[DUEL] Epoch ended. INSTR misses = 22, DATA misses = 16. Winner = DATA
[DUEL] Epoch ended. INSTR misses = 35, DATA misses = 41. Winner = INSTR
[DUEL] Epoch ended. INSTR misses = 6, DATA misses = 4. Winner = DATA
[DUEL] Epoch ended. INSTR misses = 18, DATA misses = 27. Winner = INSTR
[DUEL] Epoch ended. INSTR misses = 39, DATA misses = 39. Winner = INSTR
[DUEL] Epoch ended. INSTR misses = 0, DATA misses = 2. Winner = INSTR
[DUEL] Epoch ended. INSTR misses = 45, DATA misses = 45. Winner = INSTR
[DUEL] Epoch ended. INSTR misses = 0, DATA misses = 0. Winner = INSTR
[DUEL] Epoch ended. INSTR misses = 1, DATA misses = 0. Winner = DATA
[DUEL] Epoch ended. INSTR misses = 2, DATA misses = 1. Winner = DATA
[DUEL] Epoch ended. INSTR misses = 1, DATA misses = 0. Winner = DATA
[DUEL] Epoch ended. INSTR misses = 6, DATA misses = 1. Winner = DATA
[DUEL] Epoch ended. INSTR misses = 32, DATA misses = 30. Winner = DATA
[DUEL] Epoch ended. INSTR misses = 0, DATA misses = 2. Winner = INSTR
[DUEL] Epoch ended. INSTR misses = 0, DATA misses = 0. Winner = INSTR
[DUEL] Epoch ended. INSTR misses = 3, DATA misses = 0. Winner = DATA
[DUEL] Epoch ended. INSTR misses = 1, DATA misses = 0. Winner = DATA
[DUEL] Epoch ended. INSTR misses = 2, DATA misses = 0. Winner = DATA
[DUEL] Epoch ended. INSTR misses = 2, DATA misses = 0. Winner = DATA
[DUEL] Epoch ended. INSTR misses = 1, DATA misses = 0. Winner = DATA
[DUEL] Epoch ended. INSTR misses = 1, DATA misses = 0. Winner = DATA
[DUEL] Epoch ended. INSTR misses = 3, DATA misses = 0. Winner = DATA
[DUEL] Epoch ended. INSTR misses = 2, DATA misses = 0. Winner = DATA
[DUEL] Epoch ended. INSTR misses = 1, DATA misses = 0. Winner = DATA
Heartbeat CPU 0 instructions: 120000009 cycles: 44262802 heartbeat IPC: 2.777 cumulative IPC: 2.338 (Simulation time: 00 hr 08 min 38 sec)
[DUEL] Epoch ended. INSTR misses = 1, DATA misses = 1. Winner = INSTR
[DUEL] Epoch ended. INSTR misses = 0, DATA misses = 1. Winner = INSTR
[DUEL] Epoch ended. INSTR misses = 0, DATA misses = 1. Winner = INSTR
[DUEL] Epoch ended. INSTR misses = 0, DATA misses = 1. Winner = INSTR
[DUEL] Epoch ended. INSTR misses = 0, DATA misses = 1. Winner = INSTR
[DUEL] Epoch ended. INSTR misses = 0, DATA misses = 2. Winner = INSTR
[DUEL] Epoch ended. INSTR misses = 0, DATA misses = 1. Winner = INSTR
[DUEL] Epoch ended. INSTR misses = 0, DATA misses = 1. Winner = INSTR
[DUEL] Epoch ended. INSTR misses = 1, DATA misses = 1. Winner = INSTR
[DUEL] Epoch ended. INSTR misses = 0, DATA misses = 2. Winner = INSTR
[DUEL] Epoch ended. INSTR misses = 3, DATA misses = 1. Winner = DATA
[DUEL] Epoch ended. INSTR misses = 9, DATA misses = 12. Winner = INSTR
*** Reached end of trace: (0, "../traces/public_traces/compute_int/compute_int_32.champsimtrace.xz")
[DUEL] Epoch ended. INSTR misses = 31, DATA misses = 18. Winner = DATA
[DUEL] Epoch ended. INSTR misses = 0, DATA misses = 0. Winner = INSTR
[DUEL] Epoch ended. INSTR misses = 0, DATA misses = 1. Winner = INSTR
[DUEL] Epoch ended. INSTR misses = 2, DATA misses = 2. Winner = INSTR
[DUEL] Epoch ended. INSTR misses = 0, DATA misses = 1. Winner = INSTR
[DUEL] Epoch ended. INSTR misses = 1, DATA misses = 12. Winner = INSTR
[DUEL] Epoch ended. INSTR misses = 0, DATA misses = 2. Winner = INSTR
[DUEL] Epoch ended. INSTR misses = 3, DATA misses = 0. Winner = DATA
[DUEL] Epoch ended. INSTR misses = 0, DATA misses = 1. Winner = INSTR
[DUEL] Epoch ended. INSTR misses = 2, DATA misses = 5. Winner = INSTR
[DUEL] Epoch ended. INSTR misses = 16, DATA misses = 17. Winner = INSTR
[DUEL] Epoch ended. INSTR misses = 1, DATA misses = 0. Winner = DATA
[DUEL] Epoch ended. INSTR misses = 0, DATA misses = 0. Winner = INSTR
[DUEL] Epoch ended. INSTR misses = 3, DATA misses = 2. Winner = DATA
[DUEL] Epoch ended. INSTR misses = 0, DATA misses = 0. Winner = INSTR
[DUEL] Epoch ended. INSTR misses = 0, DATA misses = 0. Winner = INSTR
[DUEL] Epoch ended. INSTR misses = 1, DATA misses = 0. Winner = DATA
[DUEL] Epoch ended. INSTR misses = 0, DATA misses = 0. Winner = INSTR
[DUEL] Epoch ended. INSTR misses = 0, DATA misses = 2. Winner = INSTR
[DUEL] Epoch ended. INSTR misses = 0, DATA misses = 0. Winner = INSTR
[DUEL] Epoch ended. INSTR misses = 0, DATA misses = 0. Winner = INSTR
[DUEL] Epoch ended. INSTR misses = 0, DATA misses = 0. Winner = INSTR
[DUEL] Epoch ended. INSTR misses = 11, DATA misses = 15. Winner = INSTR
[DUEL] Epoch ended. INSTR misses = 3, DATA misses = 0. Winner = DATA
[DUEL] Epoch ended. INSTR misses = 1, DATA misses = 0. Winner = DATA
[DUEL] Epoch ended. INSTR misses = 0, DATA misses = 0. Winner = INSTR
[DUEL] Epoch ended. INSTR misses = 1, DATA misses = 0. Winner = DATA
Heartbeat CPU 0 instructions: 130000001 cycles: 46986904 heartbeat IPC: 3.671 cumulative IPC: 2.427 (Simulation time: 00 hr 09 min 17 sec)
Simulation finished CPU 0 instructions: 100000010 cycles: 41210935 cumulative IPC: 2.427 (Simulation time: 00 hr 09 min 17 sec)
Simulation complete CPU 0 instructions: 100000010 cycles: 41210935 cumulative IPC: 2.427 (Simulation time: 00 hr 09 min 17 sec)

ChampSim completed all CPUs

=== Simulation ===
CPU 0 runs ../traces/public_traces/compute_int/compute_int_32.champsimtrace.xz
Region of Interest Statistics

CPU 0 cumulative IPC: 2.427 instructions: 100000010 cycles: 41210935
CPU 0 Branch Prediction Accuracy: 99.8% MPKI: 0.4428 Average ROB Occupancy at Mispredict: 208.4
Branch type MPKI
BRANCH_DIRECT_JUMP: 0.00109
BRANCH_INDIRECT: 0.276
BRANCH_CONDITIONAL: 0.161
BRANCH_DIRECT_CALL: 0.00148
BRANCH_INDIRECT_CALL: 0.00108
BRANCH_RETURN: 0.00193

LLC TOTAL        ACCESS:    1494709 HIT:     327774 MISS:    1166935
LLC LOAD         ACCESS:     248936 HIT:      42469 MISS:     206467
LLC RFO          ACCESS:     106136 HIT:      33876 MISS:      72260
LLC PREFETCH     ACCESS:     853359 HIT:     106943 MISS:     746416
LLC WRITE        ACCESS:     271011 HIT:     143768 MISS:     127243
LLC TRANSLATION  ACCESS:      15267 HIT:        718 MISS:      14549
LLC PREFETCH REQUESTED:          0 ISSUED:          0 USEFUL:          0 USELESS:          0
LLC AVERAGE MISS LATENCY: 315.3 cycles
cpu0_DTLB TOTAL        ACCESS:   18262518 HIT:   17237220 MISS:    1025298
cpu0_DTLB LOAD         ACCESS:   18262518 HIT:   17237220 MISS:    1025298
cpu0_DTLB RFO          ACCESS:          0 HIT:          0 MISS:          0
cpu0_DTLB PREFETCH     ACCESS:          0 HIT:          0 MISS:          0
cpu0_DTLB WRITE        ACCESS:          0 HIT:          0 MISS:          0
cpu0_DTLB TRANSLATION  ACCESS:          0 HIT:          0 MISS:          0
cpu0_DTLB PREFETCH REQUESTED:          0 ISSUED:          0 USEFUL:          0 USELESS:          0
cpu0_DTLB AVERAGE MISS LATENCY: 9.355 cycles
cpu0_ITLB TOTAL        ACCESS:    8346340 HIT:    8340406 MISS:       5934
cpu0_ITLB LOAD         ACCESS:    8346340 HIT:    8340406 MISS:       5934
cpu0_ITLB RFO          ACCESS:          0 HIT:          0 MISS:          0
cpu0_ITLB PREFETCH     ACCESS:          0 HIT:          0 MISS:          0
cpu0_ITLB WRITE        ACCESS:          0 HIT:          0 MISS:          0
cpu0_ITLB TRANSLATION  ACCESS:          0 HIT:          0 MISS:          0
cpu0_ITLB PREFETCH REQUESTED:          0 ISSUED:          0 USEFUL:          0 USELESS:          0
cpu0_ITLB AVERAGE MISS LATENCY: 41.93 cycles
cpu0_L1D TOTAL        ACCESS:   32127782 HIT:   27218739 MISS:    4909043
cpu0_L1D LOAD         ACCESS:   15509914 HIT:   12900706 MISS:    2609208
cpu0_L1D RFO          ACCESS:          0 HIT:          0 MISS:          0
cpu0_L1D PREFETCH     ACCESS:    7300263 HIT:    5442350 MISS:    1857913
cpu0_L1D WRITE        ACCESS:    9282022 HIT:    8861809 MISS:     420213
cpu0_L1D TRANSLATION  ACCESS:      35583 HIT:      13874 MISS:      21709
cpu0_L1D PREFETCH REQUESTED:   30034047 ISSUED:    7300263 USEFUL:     231516 USELESS:      24430
cpu0_L1D AVERAGE MISS LATENCY: 37.71 cycles
cpu0_L1I TOTAL        ACCESS:   12334983 HIT:    9198063 MISS:    3136920
cpu0_L1I LOAD         ACCESS:    5642340 HIT:    3915063 MISS:    1727277
cpu0_L1I RFO          ACCESS:          0 HIT:          0 MISS:          0
cpu0_L1I PREFETCH     ACCESS:    6692643 HIT:    5283000 MISS:    1409643
cpu0_L1I WRITE        ACCESS:          0 HIT:          0 MISS:          0
cpu0_L1I TRANSLATION  ACCESS:          0 HIT:          0 MISS:          0
cpu0_L1I PREFETCH REQUESTED:   26937525 ISSUED:    6692669 USEFUL:     875950 USELESS:     438885
cpu0_L1I AVERAGE MISS LATENCY: 10.52 cycles
cpu0_L2C TOTAL        ACCESS:   12172530 HIT:    9431263 MISS:    2741267
cpu0_L2C LOAD         ACCESS:    3091927 HIT:    2669205 MISS:     422722
cpu0_L2C RFO          ACCESS:     138461 HIT:      30561 MISS:     107900
cpu0_L2C PREFETCH     ACCESS:    8603029 HIT:    6407840 MISS:    2195189
cpu0_L2C WRITE        ACCESS:     317639 HIT:     317456 MISS:        183
cpu0_L2C TRANSLATION  ACCESS:      21474 HIT:       6201 MISS:      15273
cpu0_L2C PREFETCH REQUESTED:    6104025 ISSUED:    5613918 USEFUL:     408399 USELESS:     180453
cpu0_L2C AVERAGE MISS LATENCY: 133.4 cycles
cpu0_STLB TOTAL        ACCESS:     720787 HIT:     688497 MISS:      32290
cpu0_STLB LOAD         ACCESS:     720787 HIT:     688497 MISS:      32290
cpu0_STLB RFO          ACCESS:          0 HIT:          0 MISS:          0
cpu0_STLB PREFETCH     ACCESS:          0 HIT:          0 MISS:          0
cpu0_STLB WRITE        ACCESS:          0 HIT:          0 MISS:          0
cpu0_STLB TRANSLATION  ACCESS:          0 HIT:          0 MISS:          0
cpu0_STLB PREFETCH REQUESTED:          0 ISSUED:          0 USEFUL:          0 USELESS:          0
cpu0_STLB AVERAGE MISS LATENCY: 213 cycles

DRAM Statistics

Channel 0 RQ ROW_BUFFER_HIT:     164415
  ROW_BUFFER_MISS:     358203
 AVG DBUS CONGESTED CYCLE: 3.923
WQ ROW_BUFFER_HIT: Channel 0 
  ROW_BUFFER_MISS:       5174
  FULL:      78898

Channel 1 RQ ROW_BUFFER_HIT:     161832
  ROW_BUFFER_MISS:     355195
 AVG DBUS CONGESTED CYCLE: 3.919
WQ ROW_BUFFER_HIT: Channel 1 
  ROW_BUFFER_MISS:       5156
  FULL:      78547
BERTI TO_L1: 15202123 TO_L2: 20128921 TO_L2_BC_MSHR: 5599781
BERTI AVG_LAT: 73.6977 NUM_TRACK_LATENCY: 2631793 NUM_CANT_TRACK_LATENCY: 27
BERTI CROSS_PAGE 4616433 NO_CROSS_PAGE: 30714611
BERTI FOUND_BERTI: 10793618 NO_FOUND_BERTI: 14918166
BERTI AVERAGE_ISSUED: 4.2976
CPU 0 L1I Entangling prefetcher final stats
IP accesses: 9b7f 26dfc0 54917 / 5689832
IP misses: 6fcd 1bf340 9021 / 1774769
IP hits: 0 0 0 / 0
IP late: 7b19 1ec640 2768 / 731001
IP wrong: 2abc aaf00 3300 / 430479
miss rate: 0.31192
coverage: 0
coverage_late: 0.411886
accuracy: 0
accuracy_late: 0.629371
discarded: 0
evicts entangled j table: 0
evicts entangled k table: 210314
max bb size: 14
formats: 112 0 173608 30044 12895 37363 0 
hist_lookups: 48777 97617 141152 170487 133593 107962 91085 68398 44779 32437 22298 15738 10252 5605 2242 0 60 120908 
hist_lookups_evict: 0.00538895 %
hist_lookups_shortlat: 10.8595 %
bb_found_hist: 0 1171125 676298 382994 174012 152504 104426 38700 20138 3643 4402 2490 1203 8807 1628 0 0 0 0 0 0 0 0 0 0 0 0 0 0 0 0 0 0 0 0 0 0 0 0 0 0 0 0 0 0 0 0 0 0 0 0 0 0 0 0 0 0 0 0 0 0 0 0 0 
bb_found_summary: 6445747 2742370 2.35043
entangled_found_hist: 0 410657 468099 1798961 126913 29097 5654 0 
entangled_found_summary: 7430799 2839381 2.61705
bb_ent_found_hist: 0 2177716 1385502 737252 379894 398020 260097 173722 94041 5 48441 17320 11207 30250 7395 0 0 0 0 0 0 0 0 0 0 0 0 0 0 0 0 0 0 0 0 0 0 0 0 0 0 0 0 0 0 0 0 0 0 0 0 0 0 0 0 0 0 0 0 0 0 0 0 0 
bb_ent_found_summary: 15505355 5720862 2.71032
