WARNING: physical memory size is smaller than virtual memory size.

*** ChampSim Multicore Out-of-Order Simulator ***
Warmup Instructions: 30000000
Simulation Instructions: 100000000
Number of CPUs: 1
Page size: 4096

BTB:
Basic BTB sets: 1024 ways: 8
Indirect:
history lengths: 0 0 10 16 27 44 60 96 109 219 449 487 714 1313 2146 3881 
ITTAGE tables: 64768 bytes;Region table: 240 bytes;IUM: 384 bytes;Total Storage= 65392 bytes;
RAS:
RAS size: 64
[LLC] Demand IPV: 1 2 2 1 4 Prefetch IPV: 1 2 1 1 4
Berti Prefetcher
CPU 0 Entangling prefetcher
Off-chip DRAM Size: 8 GiB Channels: 2 Width: 64-bit Data Race: 6400 MT/s
Heartbeat CPU 0 instructions: 10000003 cycles: 1718649 heartbeat IPC: 5.819 cumulative IPC: 5.819 (Simulation time: 00 hr 00 min 54 sec)
Heartbeat CPU 0 instructions: 20000008 cycles: 3388403 heartbeat IPC: 5.989 cumulative IPC: 5.902 (Simulation time: 00 hr 01 min 41 sec)
Heartbeat CPU 0 instructions: 30000009 cycles: 5057804 heartbeat IPC: 5.99 cumulative IPC: 5.931 (Simulation time: 00 hr 02 min 28 sec)
Warmup finished CPU 0 instructions: 30000009 cycles: 5057805 cumulative IPC: 5.931 (Simulation time: 00 hr 02 min 28 sec)
Warmup complete CPU 0 instructions: 30000009 cycles: 5057805 cumulative IPC: 5.931 (Simulation time: 00 hr 02 min 28 sec)
Heartbeat CPU 0 instructions: 40000000 cycles: 6853927 heartbeat IPC: 5.568 cumulative IPC: 5.568 (Simulation time: 00 hr 03 min 18 sec)
Heartbeat CPU 0 instructions: 50000009 cycles: 8640305 heartbeat IPC: 5.598 cumulative IPC: 5.583 (Simulation time: 00 hr 04 min 02 sec)
Heartbeat CPU 0 instructions: 60000009 cycles: 10440537 heartbeat IPC: 5.555 cumulative IPC: 5.573 (Simulation time: 00 hr 04 min 51 sec)
Heartbeat CPU 0 instructions: 70000006 cycles: 12195529 heartbeat IPC: 5.698 cumulative IPC: 5.604 (Simulation time: 00 hr 05 min 37 sec)
Heartbeat CPU 0 instructions: 80000008 cycles: 13922607 heartbeat IPC: 5.79 cumulative IPC: 5.64 (Simulation time: 00 hr 06 min 26 sec)
Heartbeat CPU 0 instructions: 90000005 cycles: 15643165 heartbeat IPC: 5.812 cumulative IPC: 5.668 (Simulation time: 00 hr 07 min 15 sec)
Heartbeat CPU 0 instructions: 100000001 cycles: 17372990 heartbeat IPC: 5.781 cumulative IPC: 5.684 (Simulation time: 00 hr 07 min 59 sec)
*** Reached end of trace: (0, "../traces/secret_traces/compute_fp/compute_fp_27.champsimtrace.xz")
Heartbeat CPU 0 instructions: 110000005 cycles: 19612245 heartbeat IPC: 4.466 cumulative IPC: 5.497 (Simulation time: 00 hr 08 min 47 sec)
Heartbeat CPU 0 instructions: 120000005 cycles: 21368185 heartbeat IPC: 5.695 cumulative IPC: 5.518 (Simulation time: 00 hr 09 min 33 sec)
Heartbeat CPU 0 instructions: 130000002 cycles: 23102161 heartbeat IPC: 5.767 cumulative IPC: 5.542 (Simulation time: 00 hr 10 min 18 sec)
Simulation finished CPU 0 instructions: 100000004 cycles: 18044358 cumulative IPC: 5.542 (Simulation time: 00 hr 10 min 18 sec)
Simulation complete CPU 0 instructions: 100000004 cycles: 18044358 cumulative IPC: 5.542 (Simulation time: 00 hr 10 min 18 sec)

ChampSim completed all CPUs

=== Simulation ===
CPU 0 runs ../traces/secret_traces/compute_fp/compute_fp_27.champsimtrace.xz
Region of Interest Statistics

CPU 0 cumulative IPC: 5.542 instructions: 100000004 cycles: 18044358
CPU 0 Branch Prediction Accuracy: 99.61% MPKI: 0.6352 Average ROB Occupancy at Mispredict: 56.68
Branch type MPKI
BRANCH_DIRECT_JUMP: 0.242
BRANCH_INDIRECT: 0.117
BRANCH_CONDITIONAL: 0.212
BRANCH_DIRECT_CALL: 0.0222
BRANCH_INDIRECT_CALL: 0.0301
BRANCH_RETURN: 0.0127

LLC TOTAL        ACCESS:      87087 HIT:      77363 MISS:       9724
LLC LOAD         ACCESS:      14712 HIT:      11487 MISS:       3225
LLC RFO          ACCESS:      26217 HIT:      25767 MISS:        450
LLC PREFETCH     ACCESS:      16414 HIT:      11333 MISS:       5081
LLC WRITE        ACCESS:      29539 HIT:      28719 MISS:        820
LLC TRANSLATION  ACCESS:        205 HIT:         57 MISS:        148
LLC PREFETCH REQUESTED:          0 ISSUED:          0 USEFUL:          0 USELESS:          0
LLC AVERAGE MISS LATENCY: 129.7 cycles
cpu0_DTLB TOTAL        ACCESS:   16440574 HIT:   16231391 MISS:     209183
cpu0_DTLB LOAD         ACCESS:   16440574 HIT:   16231391 MISS:     209183
cpu0_DTLB RFO          ACCESS:          0 HIT:          0 MISS:          0
cpu0_DTLB PREFETCH     ACCESS:          0 HIT:          0 MISS:          0
cpu0_DTLB WRITE        ACCESS:          0 HIT:          0 MISS:          0
cpu0_DTLB TRANSLATION  ACCESS:          0 HIT:          0 MISS:          0
cpu0_DTLB PREFETCH REQUESTED:          0 ISSUED:          0 USEFUL:          0 USELESS:          0
cpu0_DTLB AVERAGE MISS LATENCY: 2.408 cycles
cpu0_ITLB TOTAL        ACCESS:    5284479 HIT:    5282734 MISS:       1745
cpu0_ITLB LOAD         ACCESS:    5284479 HIT:    5282734 MISS:       1745
cpu0_ITLB RFO          ACCESS:          0 HIT:          0 MISS:          0
cpu0_ITLB PREFETCH     ACCESS:          0 HIT:          0 MISS:          0
cpu0_ITLB WRITE        ACCESS:          0 HIT:          0 MISS:          0
cpu0_ITLB TRANSLATION  ACCESS:          0 HIT:          0 MISS:          0
cpu0_ITLB PREFETCH REQUESTED:          0 ISSUED:          0 USEFUL:          0 USELESS:          0
cpu0_ITLB AVERAGE MISS LATENCY: 8.382 cycles
cpu0_L1D TOTAL        ACCESS:   28915938 HIT:   27584885 MISS:    1331053
cpu0_L1D LOAD         ACCESS:   18684164 HIT:   17777160 MISS:     907004
cpu0_L1D RFO          ACCESS:          0 HIT:          0 MISS:          0
cpu0_L1D PREFETCH     ACCESS:      67499 HIT:      52497 MISS:      15002
cpu0_L1D WRITE        ACCESS:   10163967 HIT:    9755177 MISS:     408790
cpu0_L1D TRANSLATION  ACCESS:        308 HIT:         51 MISS:        257
cpu0_L1D PREFETCH REQUESTED:     223648 ISSUED:      67499 USEFUL:       1750 USELESS:        158
cpu0_L1D AVERAGE MISS LATENCY: 4.57 cycles
cpu0_L1I TOTAL        ACCESS:    8037158 HIT:    7625581 MISS:     411577
cpu0_L1I LOAD         ACCESS:    2768238 HIT:    2570246 MISS:     197992
cpu0_L1I RFO          ACCESS:          0 HIT:          0 MISS:          0
cpu0_L1I PREFETCH     ACCESS:    5268920 HIT:    5055335 MISS:     213585
cpu0_L1I WRITE        ACCESS:          0 HIT:          0 MISS:          0
cpu0_L1I TRANSLATION  ACCESS:          0 HIT:          0 MISS:          0
cpu0_L1I PREFETCH REQUESTED:   15254222 ISSUED:    5268920 USEFUL:     144552 USELESS:      51747
cpu0_L1I AVERAGE MISS LATENCY: 9.101 cycles
cpu0_L2C TOTAL        ACCESS:    1867233 HIT:    1798472 MISS:      68761
cpu0_L2C LOAD         ACCESS:     565986 HIT:     550345 MISS:      15641
cpu0_L2C RFO          ACCESS:     144261 HIT:     118039 MISS:      26222
cpu0_L2C PREFETCH     ACCESS:     968675 HIT:     941982 MISS:      26693
cpu0_L2C WRITE        ACCESS:     188055 HIT:     188055 MISS:          0
cpu0_L2C TRANSLATION  ACCESS:        256 HIT:         51 MISS:        205
cpu0_L2C PREFETCH REQUESTED:     772133 ISSUED:     762620 USEFUL:       3767 USELESS:       3861
cpu0_L2C AVERAGE MISS LATENCY: 35.07 cycles
cpu0_STLB TOTAL        ACCESS:     102071 HIT:     101806 MISS:        265
cpu0_STLB LOAD         ACCESS:     102071 HIT:     101806 MISS:        265
cpu0_STLB RFO          ACCESS:          0 HIT:          0 MISS:          0
cpu0_STLB PREFETCH     ACCESS:          0 HIT:          0 MISS:          0
cpu0_STLB WRITE        ACCESS:          0 HIT:          0 MISS:          0
cpu0_STLB TRANSLATION  ACCESS:          0 HIT:          0 MISS:          0
cpu0_STLB PREFETCH REQUESTED:          0 ISSUED:          0 USEFUL:          0 USELESS:          0
cpu0_STLB AVERAGE MISS LATENCY: 151.6 cycles

DRAM Statistics

Channel 0 RQ ROW_BUFFER_HIT:       1823
  ROW_BUFFER_MISS:       2788
 AVG DBUS CONGESTED CYCLE: 3.687
WQ ROW_BUFFER_HIT: Channel 0 
  ROW_BUFFER_MISS:         87
  FULL:        219

Channel 1 RQ ROW_BUFFER_HIT:       1696
  ROW_BUFFER_MISS:       2596
 AVG DBUS CONGESTED CYCLE: 3.677
WQ ROW_BUFFER_HIT: Channel 1 
  ROW_BUFFER_MISS:         64
  FULL:        175
BERTI TO_L1: 167665 TO_L2: 254439 TO_L2_BC_MSHR: 51260
BERTI AVG_LAT: 10.6165 NUM_TRACK_LATENCY: 617849 NUM_CANT_TRACK_LATENCY: 0
BERTI CROSS_PAGE 65825 NO_CROSS_PAGE: 356279
BERTI FOUND_BERTI: 2275364 NO_FOUND_BERTI: 22674953
BERTI AVERAGE_ISSUED: 3.29927
CPU 0 L1I Entangling prefetcher final stats
IP accesses: 110e 44380 63970 / 2769257
IP misses: b0f 2c3c0 3446 / 199011
IP hits: 0 0 0 / 0
IP late: ff7 3fdc0 1439 / 80872
IP wrong: b06 2c180 1625 / 51107
miss rate: 0.0718645
coverage: 0
coverage_late: 0.40637
accuracy: 0
accuracy_late: 0.612765
discarded: 0
evicts entangled j table: 0
evicts entangled k table: 7895
max bb size: 65
formats: 449 0 5509 3453 1462 2070 0 
hist_lookups: 5863 8625 9535 10710 8413 8032 4333 3222 3386 1974 1310 744 339 250 127 0 0 12368 
hist_lookups_evict: 0 %
hist_lookups_shortlat: 15.6101 %
bb_found_hist: 0 595690 260585 250928 152716 85917 35607 25878 4093 5286 21471 2875 12 0 3 0 19 0 0 1666 3825 2752 0 0 0 0 0 0 0 0 0 0 0 0 0 0 0 0 0 0 0 0 0 0 0 0 0 0 0 2 0 0 0 0 0 0 0 0 0 0 0 0 0 0 
bb_found_summary: 3798068 1449325 2.62058
entangled_found_hist: 0 216758 243427 799025 127434 64720 15547 0 
entangled_found_summary: 4027305 1466911 2.74544
bb_ent_found_hist: 0 1212834 764004 400080 245388 173822 171711 53199 16557 104 24575 3894 0 0 0 0 2 0 0 0 0 7571 0 0 0 0 0 0 0 0 0 0 0 0 0 0 0 0 0 0 0 0 0 0 0 0 0 0 0 3 0 0 0 0 0 0 0 0 0 0 0 0 0 0 
bb_ent_found_summary: 7775549 3073744 2.52967
