WARNING: physical memory size is smaller than virtual memory size.

*** ChampSim Multicore Out-of-Order Simulator ***
Warmup Instructions: 30000000
Simulation Instructions: 100000000
Number of CPUs: 1
Page size: 4096

BTB:
Basic BTB sets: 1024 ways: 8
Indirect:
history lengths: 0 0 10 16 27 44 60 96 109 219 449 487 714 1313 2146 3881 
ITTAGE tables: 64768 bytes;Region table: 240 bytes;IUM: 384 bytes;Total Storage= 65392 bytes;
RAS:
RAS size: 64
[LLC] Demand IPV: 1 2 2 1 4 Prefetch IPV: 1 2 1 1 4
Berti Prefetcher
CPU 0 Entangling prefetcher
Off-chip DRAM Size: 8 GiB Channels: 2 Width: 64-bit Data Race: 6400 MT/s
Heartbeat CPU 0 instructions: 10000006 cycles: 1795992 heartbeat IPC: 5.568 cumulative IPC: 5.568 (Simulation time: 00 hr 00 min 42 sec)
Heartbeat CPU 0 instructions: 20000001 cycles: 3543469 heartbeat IPC: 5.723 cumulative IPC: 5.644 (Simulation time: 00 hr 01 min 28 sec)
Heartbeat CPU 0 instructions: 30000004 cycles: 5333076 heartbeat IPC: 5.588 cumulative IPC: 5.625 (Simulation time: 00 hr 02 min 14 sec)
Warmup finished CPU 0 instructions: 30000004 cycles: 5333077 cumulative IPC: 5.625 (Simulation time: 00 hr 02 min 14 sec)
Warmup complete CPU 0 instructions: 30000004 cycles: 5333077 cumulative IPC: 5.625 (Simulation time: 00 hr 02 min 14 sec)
Heartbeat CPU 0 instructions: 40000000 cycles: 10381226 heartbeat IPC: 1.981 cumulative IPC: 1.981 (Simulation time: 00 hr 03 min 38 sec)
Heartbeat CPU 0 instructions: 50000002 cycles: 15592374 heartbeat IPC: 1.919 cumulative IPC: 1.949 (Simulation time: 00 hr 04 min 54 sec)
Heartbeat CPU 0 instructions: 60000002 cycles: 20858699 heartbeat IPC: 1.899 cumulative IPC: 1.932 (Simulation time: 00 hr 06 min 16 sec)
Heartbeat CPU 0 instructions: 70000006 cycles: 25756777 heartbeat IPC: 2.042 cumulative IPC: 1.959 (Simulation time: 00 hr 07 min 28 sec)
Heartbeat CPU 0 instructions: 80000002 cycles: 31072799 heartbeat IPC: 1.881 cumulative IPC: 1.943 (Simulation time: 00 hr 08 min 49 sec)
Heartbeat CPU 0 instructions: 90000003 cycles: 36668066 heartbeat IPC: 1.787 cumulative IPC: 1.915 (Simulation time: 00 hr 10 min 16 sec)
Heartbeat CPU 0 instructions: 100000006 cycles: 42020755 heartbeat IPC: 1.868 cumulative IPC: 1.908 (Simulation time: 00 hr 11 min 42 sec)
*** Reached end of trace: (0, "../traces/secret_traces/compute_fp/compute_fp_56.champsimtrace.xz")
Heartbeat CPU 0 instructions: 110000001 cycles: 47475598 heartbeat IPC: 1.833 cumulative IPC: 1.898 (Simulation time: 00 hr 13 min 02 sec)
Heartbeat CPU 0 instructions: 120000001 cycles: 52478367 heartbeat IPC: 1.999 cumulative IPC: 1.909 (Simulation time: 00 hr 14 min 17 sec)
Heartbeat CPU 0 instructions: 130000003 cycles: 57287349 heartbeat IPC: 2.079 cumulative IPC: 1.925 (Simulation time: 00 hr 15 min 29 sec)
Simulation finished CPU 0 instructions: 100000000 cycles: 51954283 cumulative IPC: 1.925 (Simulation time: 00 hr 15 min 29 sec)
Simulation complete CPU 0 instructions: 100000000 cycles: 51954283 cumulative IPC: 1.925 (Simulation time: 00 hr 15 min 29 sec)

ChampSim completed all CPUs

=== Simulation ===
CPU 0 runs ../traces/secret_traces/compute_fp/compute_fp_56.champsimtrace.xz
Region of Interest Statistics

CPU 0 cumulative IPC: 1.925 instructions: 100000000 cycles: 51954283
CPU 0 Branch Prediction Accuracy: 97.51% MPKI: 2.668 Average ROB Occupancy at Mispredict: 105
Branch type MPKI
BRANCH_DIRECT_JUMP: 0.0113
BRANCH_INDIRECT: 1.06
BRANCH_CONDITIONAL: 1.55
BRANCH_DIRECT_CALL: 0.0249
BRANCH_INDIRECT_CALL: 0.00311
BRANCH_RETURN: 0.0138

LLC TOTAL        ACCESS:    3004000 HIT:     405428 MISS:    2598572
LLC LOAD         ACCESS:     377739 HIT:      55917 MISS:     321822
LLC RFO          ACCESS:     111299 HIT:      93057 MISS:      18242
LLC PREFETCH     ACCESS:    2327405 HIT:     113207 MISS:    2214198
LLC WRITE        ACCESS:     170696 HIT:     140779 MISS:      29917
LLC TRANSLATION  ACCESS:      16861 HIT:       2468 MISS:      14393
LLC PREFETCH REQUESTED:          0 ISSUED:          0 USEFUL:          0 USELESS:          0
LLC AVERAGE MISS LATENCY: 254.6 cycles
cpu0_DTLB TOTAL        ACCESS:   19916044 HIT:   19568957 MISS:     347087
cpu0_DTLB LOAD         ACCESS:   19916044 HIT:   19568957 MISS:     347087
cpu0_DTLB RFO          ACCESS:          0 HIT:          0 MISS:          0
cpu0_DTLB PREFETCH     ACCESS:          0 HIT:          0 MISS:          0
cpu0_DTLB WRITE        ACCESS:          0 HIT:          0 MISS:          0
cpu0_DTLB TRANSLATION  ACCESS:          0 HIT:          0 MISS:          0
cpu0_DTLB PREFETCH REQUESTED:          0 ISSUED:          0 USEFUL:          0 USELESS:          0
cpu0_DTLB AVERAGE MISS LATENCY: 14.32 cycles
cpu0_ITLB TOTAL        ACCESS:     176799 HIT:     175044 MISS:       1755
cpu0_ITLB LOAD         ACCESS:     176799 HIT:     175044 MISS:       1755
cpu0_ITLB RFO          ACCESS:          0 HIT:          0 MISS:          0
cpu0_ITLB PREFETCH     ACCESS:          0 HIT:          0 MISS:          0
cpu0_ITLB WRITE        ACCESS:          0 HIT:          0 MISS:          0
cpu0_ITLB TRANSLATION  ACCESS:          0 HIT:          0 MISS:          0
cpu0_ITLB PREFETCH REQUESTED:          0 ISSUED:          0 USEFUL:          0 USELESS:          0
cpu0_ITLB AVERAGE MISS LATENCY: 60.92 cycles
cpu0_L1D TOTAL        ACCESS:   39332784 HIT:   27784280 MISS:   11548504
cpu0_L1D LOAD         ACCESS:   20286236 HIT:   15754247 MISS:    4531989
cpu0_L1D RFO          ACCESS:          0 HIT:          0 MISS:          0
cpu0_L1D PREFETCH     ACCESS:   16196801 HIT:    9515889 MISS:    6680912
cpu0_L1D WRITE        ACCESS:    2778982 HIT:    2485411 MISS:     293571
cpu0_L1D TRANSLATION  ACCESS:      70765 HIT:      28733 MISS:      42032
cpu0_L1D PREFETCH REQUESTED:   55962529 ISSUED:   16196833 USEFUL:    1146691 USELESS:     194568
cpu0_L1D AVERAGE MISS LATENCY: 25.61 cycles
cpu0_L1I TOTAL        ACCESS:     259460 HIT:     217672 MISS:      41788
cpu0_L1I LOAD         ACCESS:      91471 HIT:      80478 MISS:      10993
cpu0_L1I RFO          ACCESS:          0 HIT:          0 MISS:          0
cpu0_L1I PREFETCH     ACCESS:     167989 HIT:     137194 MISS:      30795
cpu0_L1I WRITE        ACCESS:          0 HIT:          0 MISS:          0
cpu0_L1I TRANSLATION  ACCESS:          0 HIT:          0 MISS:          0
cpu0_L1I PREFETCH REQUESTED:     255749 ISSUED:     167989 USEFUL:      17662 USELESS:      10887
cpu0_L1I AVERAGE MISS LATENCY: 82.91 cycles
cpu0_L2C TOTAL        ACCESS:   14431107 HIT:    5262753 MISS:    9168354
cpu0_L2C LOAD         ACCESS:    1624335 HIT:    1009139 MISS:     615196
cpu0_L2C RFO          ACCESS:     149063 HIT:      37717 MISS:     111346
cpu0_L2C PREFETCH     ACCESS:   12394955 HIT:    3970198 MISS:    8424757
cpu0_L2C WRITE        ACCESS:     221424 HIT:     221230 MISS:        194
cpu0_L2C TRANSLATION  ACCESS:      41330 HIT:      24469 MISS:      16861
cpu0_L2C PREFETCH REQUESTED:    7309913 ISSUED:    6760974 USEFUL:     663736 USELESS:     513412
cpu0_L2C AVERAGE MISS LATENCY: 75.25 cycles
cpu0_STLB TOTAL        ACCESS:     127874 HIT:      57475 MISS:      70399
cpu0_STLB LOAD         ACCESS:     127874 HIT:      57475 MISS:      70399
cpu0_STLB RFO          ACCESS:          0 HIT:          0 MISS:          0
cpu0_STLB PREFETCH     ACCESS:          0 HIT:          0 MISS:          0
cpu0_STLB WRITE        ACCESS:          0 HIT:          0 MISS:          0
cpu0_STLB TRANSLATION  ACCESS:          0 HIT:          0 MISS:          0
cpu0_STLB PREFETCH REQUESTED:          0 ISSUED:          0 USEFUL:          0 USELESS:          0
cpu0_STLB AVERAGE MISS LATENCY: 93.19 cycles

DRAM Statistics

Channel 0 RQ ROW_BUFFER_HIT:     978138
  ROW_BUFFER_MISS:     311213
 AVG DBUS CONGESTED CYCLE: 3.925
WQ ROW_BUFFER_HIT: Channel 0 
  ROW_BUFFER_MISS:       2572
  FULL:      12913

Channel 1 RQ ROW_BUFFER_HIT:     971022
  ROW_BUFFER_MISS:     308190
 AVG DBUS CONGESTED CYCLE: 3.919
WQ ROW_BUFFER_HIT: Channel 1 
  ROW_BUFFER_MISS:       2478
  FULL:      12240
BERTI TO_L1: 43157269 TO_L2: 36369078 TO_L2_BC_MSHR: 8472009
BERTI AVG_LAT: 114.499 NUM_TRACK_LATENCY: 3823972 NUM_CANT_TRACK_LATENCY: 0
BERTI CROSS_PAGE 15212661 NO_CROSS_PAGE: 64313686
BERTI FOUND_BERTI: 16064406 NO_FOUND_BERTI: 11835512
BERTI AVERAGE_ISSUED: 3.62329
CPU 0 L1I Entangling prefetcher final stats
IP accesses: 6d 1b40 1061 / 102917
IP misses: eaca 3ab280 370 / 22439
IP hits: 0 0 0 / 0
IP late: 5aed 16bb40 18 / 5783
IP wrong: e8c9 3a3240 28 / 10837
miss rate: 0.218031
coverage: 0
coverage_late: 0.257721
accuracy: 0
accuracy_late: 0.347955
discarded: 0
evicts entangled j table: 0
evicts entangled k table: 1605
max bb size: 65
formats: 461 0 1425 721 326 789 0 
hist_lookups: 1319 1355 982 888 796 652 563 419 317 247 171 129 93 38 20 0 6 3784 
hist_lookups_evict: 0.0509382 %
hist_lookups_shortlat: 32.125 %
bb_found_hist: 0 19588 7846 3986 2083 1139 1231 92 125 68 59 20 12 26 3 2 20 0 20 0 0 0 0 0 0 0 0 0 0 0 0 0 0 0 0 0 0 0 0 0 0 0 0 0 0 0 0 0 0 2 0 0 0 0 0 0 0 0 0 0 0 0 0 0 
bb_found_summary: 73049 36322 2.01116
entangled_found_hist: 0 11297 7731 12282 2489 741 71 0 
entangled_found_summary: 77692 34611 2.24472
bb_ent_found_hist: 0 25523 11959 7255 4241 3294 656 223 376 175 92 3 0 203 0 54 6 0 243 0 0 0 0 0 0 0 0 0 0 0 0 0 0 0 0 0 0 0 0 0 0 0 0 0 0 0 0 0 0 2 0 0 0 0 0 0 0 0 0 0 0 0 0 0 
bb_ent_found_summary: 123690 54305 2.2777
