WARNING: physical memory size is smaller than virtual memory size.

*** ChampSim Multicore Out-of-Order Simulator ***
Warmup Instructions: 30000000
Simulation Instructions: 100000000
Number of CPUs: 1
Page size: 4096

BTB:
Basic BTB sets: 1024 ways: 8
Indirect:
history lengths: 0 0 10 16 27 44 60 96 109 219 449 487 714 1313 2146 3881 
ITTAGE tables: 64768 bytes;Region table: 240 bytes;IUM: 384 bytes;Total Storage= 65392 bytes;
RAS:
RAS size: 64
[LLC] Demand IPV: 1 2 2 1 4 Prefetch IPV: 1 2 1 1 4
Berti Prefetcher
CPU 0 Entangling prefetcher
Off-chip DRAM Size: 8 GiB Channels: 2 Width: 64-bit Data Race: 6400 MT/s
Heartbeat CPU 0 instructions: 10000009 cycles: 1713313 heartbeat IPC: 5.837 cumulative IPC: 5.837 (Simulation time: 00 hr 00 min 37 sec)
Heartbeat CPU 0 instructions: 20000005 cycles: 3380041 heartbeat IPC: 6 cumulative IPC: 5.917 (Simulation time: 00 hr 01 min 17 sec)
Heartbeat CPU 0 instructions: 30000003 cycles: 5046708 heartbeat IPC: 6 cumulative IPC: 5.944 (Simulation time: 00 hr 01 min 59 sec)
Warmup finished CPU 0 instructions: 30000003 cycles: 5046709 cumulative IPC: 5.944 (Simulation time: 00 hr 01 min 59 sec)
Warmup complete CPU 0 instructions: 30000003 cycles: 5046709 cumulative IPC: 5.944 (Simulation time: 00 hr 01 min 59 sec)
Heartbeat CPU 0 instructions: 40000004 cycles: 6713702 heartbeat IPC: 5.999 cumulative IPC: 5.999 (Simulation time: 00 hr 02 min 43 sec)
Heartbeat CPU 0 instructions: 50000011 cycles: 8380554 heartbeat IPC: 5.999 cumulative IPC: 5.999 (Simulation time: 00 hr 03 min 26 sec)
Heartbeat CPU 0 instructions: 60000005 cycles: 10047351 heartbeat IPC: 6 cumulative IPC: 5.999 (Simulation time: 00 hr 04 min 08 sec)
Heartbeat CPU 0 instructions: 70000000 cycles: 11752091 heartbeat IPC: 5.866 cumulative IPC: 5.965 (Simulation time: 00 hr 04 min 49 sec)
Heartbeat CPU 0 instructions: 80000003 cycles: 13419071 heartbeat IPC: 5.999 cumulative IPC: 5.972 (Simulation time: 00 hr 05 min 31 sec)
Heartbeat CPU 0 instructions: 90000000 cycles: 15085939 heartbeat IPC: 5.999 cumulative IPC: 5.977 (Simulation time: 00 hr 06 min 12 sec)
Heartbeat CPU 0 instructions: 100000001 cycles: 16752797 heartbeat IPC: 5.999 cumulative IPC: 5.98 (Simulation time: 00 hr 06 min 58 sec)
*** Reached end of trace: (0, "../traces/secret_traces/compute_fp/compute_fp_19.champsimtrace.xz")
Heartbeat CPU 0 instructions: 110000001 cycles: 19540528 heartbeat IPC: 3.587 cumulative IPC: 5.52 (Simulation time: 00 hr 07 min 52 sec)
Heartbeat CPU 0 instructions: 120000001 cycles: 21211909 heartbeat IPC: 5.983 cumulative IPC: 5.568 (Simulation time: 00 hr 08 min 37 sec)
Heartbeat CPU 0 instructions: 130000011 cycles: 22878815 heartbeat IPC: 5.999 cumulative IPC: 5.608 (Simulation time: 00 hr 09 min 19 sec)
Simulation finished CPU 0 instructions: 100000008 cycles: 17832107 cumulative IPC: 5.608 (Simulation time: 00 hr 09 min 19 sec)
Simulation complete CPU 0 instructions: 100000008 cycles: 17832107 cumulative IPC: 5.608 (Simulation time: 00 hr 09 min 19 sec)

ChampSim completed all CPUs

=== Simulation ===
CPU 0 runs ../traces/secret_traces/compute_fp/compute_fp_19.champsimtrace.xz
Region of Interest Statistics

CPU 0 cumulative IPC: 5.608 instructions: 100000008 cycles: 17832107
CPU 0 Branch Prediction Accuracy: 99.75% MPKI: 0.4765 Average ROB Occupancy at Mispredict: 36.8
Branch type MPKI
BRANCH_DIRECT_JUMP: 0.0047
BRANCH_INDIRECT: 0.196
BRANCH_CONDITIONAL: 0.2
BRANCH_DIRECT_CALL: 0.00787
BRANCH_INDIRECT_CALL: 0.0618
BRANCH_RETURN: 0.00556

LLC TOTAL        ACCESS:      46505 HIT:      45482 MISS:       1023
LLC LOAD         ACCESS:       5050 HIT:       4884 MISS:        166
LLC RFO          ACCESS:       6550 HIT:       6538 MISS:         12
LLC PREFETCH     ACCESS:      24216 HIT:      23414 MISS:        802
LLC WRITE        ACCESS:      10635 HIT:      10631 MISS:          4
LLC TRANSLATION  ACCESS:         54 HIT:         15 MISS:         39
LLC PREFETCH REQUESTED:          0 ISSUED:          0 USEFUL:          0 USELESS:          0
LLC AVERAGE MISS LATENCY: 144.5 cycles
cpu0_DTLB TOTAL        ACCESS:   16821460 HIT:   16800408 MISS:      21052
cpu0_DTLB LOAD         ACCESS:   16821460 HIT:   16800408 MISS:      21052
cpu0_DTLB RFO          ACCESS:          0 HIT:          0 MISS:          0
cpu0_DTLB PREFETCH     ACCESS:          0 HIT:          0 MISS:          0
cpu0_DTLB WRITE        ACCESS:          0 HIT:          0 MISS:          0
cpu0_DTLB TRANSLATION  ACCESS:          0 HIT:          0 MISS:          0
cpu0_DTLB PREFETCH REQUESTED:          0 ISSUED:          0 USEFUL:          0 USELESS:          0
cpu0_DTLB AVERAGE MISS LATENCY: 6.334 cycles
cpu0_ITLB TOTAL        ACCESS:     307931 HIT:     307279 MISS:        652
cpu0_ITLB LOAD         ACCESS:     307931 HIT:     307279 MISS:        652
cpu0_ITLB RFO          ACCESS:          0 HIT:          0 MISS:          0
cpu0_ITLB PREFETCH     ACCESS:          0 HIT:          0 MISS:          0
cpu0_ITLB WRITE        ACCESS:          0 HIT:          0 MISS:          0
cpu0_ITLB TRANSLATION  ACCESS:          0 HIT:          0 MISS:          0
cpu0_ITLB PREFETCH REQUESTED:          0 ISSUED:          0 USEFUL:          0 USELESS:          0
cpu0_ITLB AVERAGE MISS LATENCY: 9.008 cycles
cpu0_L1D TOTAL        ACCESS:   32271561 HIT:   31269287 MISS:    1002274
cpu0_L1D LOAD         ACCESS:   14342490 HIT:   14225677 MISS:     116813
cpu0_L1D RFO          ACCESS:          0 HIT:          0 MISS:          0
cpu0_L1D PREFETCH     ACCESS:   11802726 HIT:   11114266 MISS:     688460
cpu0_L1D WRITE        ACCESS:    6126283 HIT:    5929343 MISS:     196940
cpu0_L1D TRANSLATION  ACCESS:         62 HIT:          1 MISS:         61
cpu0_L1D PREFETCH REQUESTED:   64225497 ISSUED:   11802731 USEFUL:     540627 USELESS:       1644
cpu0_L1D AVERAGE MISS LATENCY: 7.688 cycles
cpu0_L1I TOTAL        ACCESS:     458392 HIT:     432678 MISS:      25714
cpu0_L1I LOAD         ACCESS:     131521 HIT:     124158 MISS:       7363
cpu0_L1I RFO          ACCESS:          0 HIT:          0 MISS:          0
cpu0_L1I PREFETCH     ACCESS:     326871 HIT:     308520 MISS:      18351
cpu0_L1I WRITE        ACCESS:          0 HIT:          0 MISS:          0
cpu0_L1I TRANSLATION  ACCESS:          0 HIT:          0 MISS:          0
cpu0_L1I PREFETCH REQUESTED:     532539 ISSUED:     326871 USEFUL:       9125 USELESS:       7909
cpu0_L1I AVERAGE MISS LATENCY: 13.52 cycles
cpu0_L2C TOTAL        ACCESS:    1861314 HIT:    1814683 MISS:      46631
cpu0_L2C LOAD         ACCESS:      75862 HIT:      70662 MISS:       5200
cpu0_L2C RFO          ACCESS:     146665 HIT:     140114 MISS:       6551
cpu0_L2C PREFETCH     ACCESS:    1479912 HIT:    1445086 MISS:      34826
cpu0_L2C WRITE        ACCESS:     158814 HIT:     158814 MISS:          0
cpu0_L2C TRANSLATION  ACCESS:         61 HIT:          7 MISS:         54
cpu0_L2C PREFETCH REQUESTED:     778953 ISSUED:     776823 USEFUL:      12367 USELESS:       2533
cpu0_L2C AVERAGE MISS LATENCY: 18.55 cycles
cpu0_STLB TOTAL        ACCESS:      17691 HIT:      17647 MISS:         44
cpu0_STLB LOAD         ACCESS:      17691 HIT:      17647 MISS:         44
cpu0_STLB RFO          ACCESS:          0 HIT:          0 MISS:          0
cpu0_STLB PREFETCH     ACCESS:          0 HIT:          0 MISS:          0
cpu0_STLB WRITE        ACCESS:          0 HIT:          0 MISS:          0
cpu0_STLB TRANSLATION  ACCESS:          0 HIT:          0 MISS:          0
cpu0_STLB PREFETCH REQUESTED:          0 ISSUED:          0 USEFUL:          0 USELESS:          0
cpu0_STLB AVERAGE MISS LATENCY: 321.8 cycles

DRAM Statistics

Channel 0 RQ ROW_BUFFER_HIT:        130
  ROW_BUFFER_MISS:        399
 AVG DBUS CONGESTED CYCLE: 3.721
WQ ROW_BUFFER_HIT: Channel 0 
  ROW_BUFFER_MISS:          0
  FULL:          1

Channel 1 RQ ROW_BUFFER_HIT:        136
  ROW_BUFFER_MISS:        354
 AVG DBUS CONGESTED CYCLE: 3.673
WQ ROW_BUFFER_HIT: Channel 1 
  ROW_BUFFER_MISS:          0
  FULL:          2
BERTI TO_L1: 72058716 TO_L2: 6716789 TO_L2_BC_MSHR: 2724
BERTI AVG_LAT: 45.1017 NUM_TRACK_LATENCY: 813254 NUM_CANT_TRACK_LATENCY: 0
BERTI CROSS_PAGE 10091999 NO_CROSS_PAGE: 68683506
BERTI FOUND_BERTI: 7211715 NO_FOUND_BERTI: 12455436
BERTI AVERAGE_ISSUED: 3.86105
CPU 0 L1I Entangling prefetcher final stats
IP accesses: e7e5 39f940 3813 / 131524
IP misses: 7fd3 1ff4c0 67 / 7366
IP hits: 0 0 0 / 0
IP late: 7fd3 1ff4c0 23 / 3456
IP wrong: 1595 56540 41 / 7825
miss rate: 0.056005
coverage: 0
coverage_late: 0.469183
accuracy: 0
accuracy_late: 0.306356
discarded: 0
evicts entangled j table: 0
evicts entangled k table: 983
max bb size: 18
formats: 14 0 1538 326 116 305 0 
hist_lookups: 1123 1005 661 618 529 417 315 192 130 95 62 49 17 13 5 0 0 772 
hist_lookups_evict: 0 %
hist_lookups_shortlat: 12.8603 %
bb_found_hist: 0 32922 18450 8741 3999 2748 2355 1761 584 437 69 34 184 30 0 10 0 98 1 0 0 0 0 0 0 0 0 0 0 0 0 0 0 0 0 0 0 0 0 0 0 0 0 0 0 0 0 0 0 0 0 0 0 0 0 0 0 0 0 0 0 0 0 0 
bb_found_summary: 166339 72423 2.29678
entangled_found_hist: 0 15618 12485 32691 1771 349 53 0 
entangled_found_summary: 147808 62967 2.34739
bb_ent_found_hist: 0 38783 20210 14017 5153 7144 2677 2384 1538 78 74 358 3 0 51 40 0 0 2 0 0 0 0 0 0 0 0 0 0 0 0 0 0 0 0 0 0 0 0 0 0 0 0 0 0 0 0 0 0 0 0 0 0 0 0 0 0 0 0 0 0 0 0 0 
bb_ent_found_summary: 229406 92512 2.47975
