WARNING: physical memory size is smaller than virtual memory size.

*** ChampSim Multicore Out-of-Order Simulator ***
Warmup Instructions: 30000000
Simulation Instructions: 100000000
Number of CPUs: 1
Page size: 4096

BTB:
Basic BTB sets: 1024 ways: 8
Indirect:
history lengths: 0 0 10 16 27 44 60 96 109 219 449 487 714 1313 2146 3881 
ITTAGE tables: 64768 bytes;Region table: 240 bytes;IUM: 384 bytes;Total Storage= 65392 bytes;
RAS:
RAS size: 64
[LLC] Demand IPV: 1 2 2 1 4 Prefetch IPV: 1 2 1 1 4
Berti Prefetcher
CPU 0 Entangling prefetcher
Off-chip DRAM Size: 8 GiB Channels: 2 Width: 64-bit Data Race: 6400 MT/s
Heartbeat CPU 0 instructions: 10000001 cycles: 1716410 heartbeat IPC: 5.826 cumulative IPC: 5.826 (Simulation time: 00 hr 00 min 33 sec)
Heartbeat CPU 0 instructions: 20000007 cycles: 3383742 heartbeat IPC: 5.998 cumulative IPC: 5.911 (Simulation time: 00 hr 01 min 09 sec)
Heartbeat CPU 0 instructions: 30000003 cycles: 5050579 heartbeat IPC: 5.999 cumulative IPC: 5.94 (Simulation time: 00 hr 01 min 44 sec)
Warmup finished CPU 0 instructions: 30000003 cycles: 5050580 cumulative IPC: 5.94 (Simulation time: 00 hr 01 min 44 sec)
Warmup complete CPU 0 instructions: 30000003 cycles: 5050580 cumulative IPC: 5.94 (Simulation time: 00 hr 01 min 44 sec)
Heartbeat CPU 0 instructions: 40000005 cycles: 6743703 heartbeat IPC: 5.906 cumulative IPC: 5.906 (Simulation time: 00 hr 02 min 25 sec)
Heartbeat CPU 0 instructions: 50000002 cycles: 8435991 heartbeat IPC: 5.909 cumulative IPC: 5.908 (Simulation time: 00 hr 03 min 04 sec)
Heartbeat CPU 0 instructions: 60000004 cycles: 10121763 heartbeat IPC: 5.932 cumulative IPC: 5.916 (Simulation time: 00 hr 03 min 40 sec)
Heartbeat CPU 0 instructions: 70000003 cycles: 11819741 heartbeat IPC: 5.889 cumulative IPC: 5.909 (Simulation time: 00 hr 04 min 16 sec)
Heartbeat CPU 0 instructions: 80000007 cycles: 13516385 heartbeat IPC: 5.894 cumulative IPC: 5.906 (Simulation time: 00 hr 04 min 53 sec)
Heartbeat CPU 0 instructions: 90000000 cycles: 15217152 heartbeat IPC: 5.88 cumulative IPC: 5.902 (Simulation time: 00 hr 05 min 29 sec)
Heartbeat CPU 0 instructions: 100000001 cycles: 17109612 heartbeat IPC: 5.284 cumulative IPC: 5.805 (Simulation time: 00 hr 06 min 12 sec)
*** Reached end of trace: (0, "../traces/secret_traces/compute_fp/compute_fp_72.champsimtrace.xz")
Heartbeat CPU 0 instructions: 110000002 cycles: 19562607 heartbeat IPC: 4.077 cumulative IPC: 5.513 (Simulation time: 00 hr 06 min 59 sec)
Heartbeat CPU 0 instructions: 120000007 cycles: 21282496 heartbeat IPC: 5.814 cumulative IPC: 5.545 (Simulation time: 00 hr 07 min 36 sec)
Heartbeat CPU 0 instructions: 130000005 cycles: 22969175 heartbeat IPC: 5.929 cumulative IPC: 5.581 (Simulation time: 00 hr 08 min 13 sec)
Simulation finished CPU 0 instructions: 100000002 cycles: 17918596 cumulative IPC: 5.581 (Simulation time: 00 hr 08 min 13 sec)
Simulation complete CPU 0 instructions: 100000002 cycles: 17918596 cumulative IPC: 5.581 (Simulation time: 00 hr 08 min 13 sec)

ChampSim completed all CPUs

=== Simulation ===
CPU 0 runs ../traces/secret_traces/compute_fp/compute_fp_72.champsimtrace.xz
Region of Interest Statistics

CPU 0 cumulative IPC: 5.581 instructions: 100000002 cycles: 17918596
CPU 0 Branch Prediction Accuracy: 93.56% MPKI: 0.4637 Average ROB Occupancy at Mispredict: 38.15
Branch type MPKI
BRANCH_DIRECT_JUMP: 0.00754
BRANCH_INDIRECT: 0.0745
BRANCH_CONDITIONAL: 0.348
BRANCH_DIRECT_CALL: 0.0203
BRANCH_INDIRECT_CALL: 0.00246
BRANCH_RETURN: 0.0113

LLC TOTAL        ACCESS:     137971 HIT:      78744 MISS:      59227
LLC LOAD         ACCESS:      18843 HIT:      10085 MISS:       8758
LLC RFO          ACCESS:      25720 HIT:      25156 MISS:        564
LLC PREFETCH     ACCESS:      53373 HIT:      10802 MISS:      42571
LLC WRITE        ACCESS:      39553 HIT:      32600 MISS:       6953
LLC TRANSLATION  ACCESS:        482 HIT:        101 MISS:        381
LLC PREFETCH REQUESTED:          0 ISSUED:          0 USEFUL:          0 USELESS:          0
LLC AVERAGE MISS LATENCY: 106.8 cycles
cpu0_DTLB TOTAL        ACCESS:   13290354 HIT:   13265280 MISS:      25074
cpu0_DTLB LOAD         ACCESS:   13290354 HIT:   13265280 MISS:      25074
cpu0_DTLB RFO          ACCESS:          0 HIT:          0 MISS:          0
cpu0_DTLB PREFETCH     ACCESS:          0 HIT:          0 MISS:          0
cpu0_DTLB WRITE        ACCESS:          0 HIT:          0 MISS:          0
cpu0_DTLB TRANSLATION  ACCESS:          0 HIT:          0 MISS:          0
cpu0_DTLB PREFETCH REQUESTED:          0 ISSUED:          0 USEFUL:          0 USELESS:          0
cpu0_DTLB AVERAGE MISS LATENCY: 5.484 cycles
cpu0_ITLB TOTAL        ACCESS:     166308 HIT:     164759 MISS:       1549
cpu0_ITLB LOAD         ACCESS:     166308 HIT:     164759 MISS:       1549
cpu0_ITLB RFO          ACCESS:          0 HIT:          0 MISS:          0
cpu0_ITLB PREFETCH     ACCESS:          0 HIT:          0 MISS:          0
cpu0_ITLB WRITE        ACCESS:          0 HIT:          0 MISS:          0
cpu0_ITLB TRANSLATION  ACCESS:          0 HIT:          0 MISS:          0
cpu0_ITLB PREFETCH REQUESTED:          0 ISSUED:          0 USEFUL:          0 USELESS:          0
cpu0_ITLB AVERAGE MISS LATENCY: 19.09 cycles
cpu0_L1D TOTAL        ACCESS:   23031683 HIT:   20494571 MISS:    2537112
cpu0_L1D LOAD         ACCESS:   13161959 HIT:   10787936 MISS:    2374023
cpu0_L1D RFO          ACCESS:          0 HIT:          0 MISS:          0
cpu0_L1D PREFETCH     ACCESS:     495250 HIT:     406817 MISS:      88433
cpu0_L1D WRITE        ACCESS:    9373216 HIT:    9299433 MISS:      73783
cpu0_L1D TRANSLATION  ACCESS:       1258 HIT:        385 MISS:        873
cpu0_L1D PREFETCH REQUESTED:    1242604 ISSUED:     495250 USEFUL:      26093 USELESS:        429
cpu0_L1D AVERAGE MISS LATENCY: 3.472 cycles
cpu0_L1I TOTAL        ACCESS:     243523 HIT:     209281 MISS:      34242
cpu0_L1I LOAD         ACCESS:      83273 HIT:      72007 MISS:      11266
cpu0_L1I RFO          ACCESS:          0 HIT:          0 MISS:          0
cpu0_L1I PREFETCH     ACCESS:     160250 HIT:     137274 MISS:      22976
cpu0_L1I WRITE        ACCESS:          0 HIT:          0 MISS:          0
cpu0_L1I TRANSLATION  ACCESS:          0 HIT:          0 MISS:          0
cpu0_L1I PREFETCH REQUESTED:     224519 ISSUED:     160250 USEFUL:      12384 USELESS:       8798
cpu0_L1I AVERAGE MISS LATENCY: 32.57 cycles
cpu0_L2C TOTAL        ACCESS:    2350026 HIT:    2220489 MISS:     129537
cpu0_L2C LOAD         ACCESS:     840482 HIT:     819102 MISS:      21380
cpu0_L2C RFO          ACCESS:      28957 HIT:       3231 MISS:      25726
cpu0_L2C PREFETCH     ACCESS:    1041605 HIT:     959659 MISS:      81946
cpu0_L2C WRITE        ACCESS:     438110 HIT:     438107 MISS:          3
cpu0_L2C TRANSLATION  ACCESS:        872 HIT:        390 MISS:        482
cpu0_L2C PREFETCH REQUESTED:     943379 ISSUED:     938819 USEFUL:      34038 USELESS:       7339
cpu0_L2C AVERAGE MISS LATENCY: 63.47 cycles
cpu0_STLB TOTAL        ACCESS:      10421 HIT:       9238 MISS:       1183
cpu0_STLB LOAD         ACCESS:      10421 HIT:       9238 MISS:       1183
cpu0_STLB RFO          ACCESS:          0 HIT:          0 MISS:          0
cpu0_STLB PREFETCH     ACCESS:          0 HIT:          0 MISS:          0
cpu0_STLB WRITE        ACCESS:          0 HIT:          0 MISS:          0
cpu0_STLB TRANSLATION  ACCESS:          0 HIT:          0 MISS:          0
cpu0_STLB PREFETCH REQUESTED:          0 ISSUED:          0 USEFUL:          0 USELESS:          0
cpu0_STLB AVERAGE MISS LATENCY: 136.5 cycles

DRAM Statistics

Channel 0 RQ ROW_BUFFER_HIT:      16803
  ROW_BUFFER_MISS:       9439
 AVG DBUS CONGESTED CYCLE: 3.823
WQ ROW_BUFFER_HIT: Channel 0 
  ROW_BUFFER_MISS:        450
  FULL:       2228

Channel 1 RQ ROW_BUFFER_HIT:      17050
  ROW_BUFFER_MISS:       8981
 AVG DBUS CONGESTED CYCLE: 3.805
WQ ROW_BUFFER_HIT: Channel 1 
  ROW_BUFFER_MISS:        416
  FULL:       2051
BERTI TO_L1: 805962 TO_L2: 672522 TO_L2_BC_MSHR: 119027
BERTI AVG_LAT: 12.3551 NUM_TRACK_LATENCY: 1133021 NUM_CANT_TRACK_LATENCY: 0
BERTI CROSS_PAGE 213028 NO_CROSS_PAGE: 1265456
BERTI FOUND_BERTI: 4999861 NO_FOUND_BERTI: 12559796
BERTI AVERAGE_ISSUED: 1.63862
CPU 0 L1I Entangling prefetcher final stats
IP accesses: 6594 196500 1659 / 83746
IP misses: 5830 160c00 57 / 11739
IP hits: 0 0 0 / 0
IP late: 215c 85700 14 / 5668
IP wrong: 2172 85c80 23 / 8751
miss rate: 0.140174
coverage: 0
coverage_late: 0.482835
accuracy: 0
accuracy_late: 0.393093
discarded: 0
evicts entangled j table: 0
evicts entangled k table: 1710
max bb size: 65
formats: 455 0 1418 721 314 726 0 
hist_lookups: 1141 1280 1044 982 905 740 623 468 377 279 193 134 91 36 7 0 0 2668 
hist_lookups_evict: 0 %
hist_lookups_shortlat: 24.3254 %
bb_found_hist: 0 18373 8869 5135 2334 801 380 95 88 13 32 4 12 0 3 18 35 0 0 0 0 0 0 16 10 0 0 0 0 0 0 0 0 0 0 0 0 0 0 0 0 0 0 0 0 0 0 0 0 0 0 0 0 0 0 0 0 0 0 0 0 0 0 0 
bb_found_summary: 70611 36218 1.94962
entangled_found_hist: 0 10428 7686 12140 1748 342 58 0 
entangled_found_summary: 71270 32402 2.19956
bb_ent_found_hist: 0 22331 12822 5932 3531 1597 1110 189 113 5 41 0 0 0 0 0 6 0 0 0 0 0 0 33 29 0 0 0 0 0 0 0 0 0 0 0 0 0 0 0 0 0 0 0 0 0 0 0 0 0 0 0 0 0 0 0 0 0 0 0 0 0 0 0 
bb_ent_found_summary: 98773 47739 2.06903
