WARNING: physical memory size is smaller than virtual memory size.

*** ChampSim Multicore Out-of-Order Simulator ***
Warmup Instructions: 30000000
Simulation Instructions: 100000000
Number of CPUs: 1
Page size: 4096

BTB:
Basic BTB sets: 1024 ways: 8
Indirect:
history lengths: 0 0 10 16 27 44 60 96 109 219 449 487 714 1313 2146 3881 
ITTAGE tables: 64768 bytes;Region table: 240 bytes;IUM: 384 bytes;Total Storage= 65392 bytes;
RAS:
RAS size: 64
[LLC] Demand IPV: 1 2 2 1 4 Prefetch IPV: 1 2 1 1 4
Berti Prefetcher
CPU 0 Entangling prefetcher
Off-chip DRAM Size: 8 GiB Channels: 2 Width: 64-bit Data Race: 6400 MT/s
Heartbeat CPU 0 instructions: 10000001 cycles: 1982999 heartbeat IPC: 5.043 cumulative IPC: 5.043 (Simulation time: 00 hr 00 min 44 sec)
Heartbeat CPU 0 instructions: 20000011 cycles: 3940904 heartbeat IPC: 5.108 cumulative IPC: 5.075 (Simulation time: 00 hr 01 min 27 sec)
Heartbeat CPU 0 instructions: 30000009 cycles: 5899252 heartbeat IPC: 5.106 cumulative IPC: 5.085 (Simulation time: 00 hr 02 min 18 sec)
Warmup finished CPU 0 instructions: 30000009 cycles: 5899253 cumulative IPC: 5.085 (Simulation time: 00 hr 02 min 18 sec)
Warmup complete CPU 0 instructions: 30000009 cycles: 5899253 cumulative IPC: 5.085 (Simulation time: 00 hr 02 min 18 sec)
Heartbeat CPU 0 instructions: 40000008 cycles: 8479773 heartbeat IPC: 3.875 cumulative IPC: 3.875 (Simulation time: 00 hr 03 min 25 sec)
Heartbeat CPU 0 instructions: 50000000 cycles: 11026690 heartbeat IPC: 3.926 cumulative IPC: 3.901 (Simulation time: 00 hr 04 min 29 sec)
Heartbeat CPU 0 instructions: 60000000 cycles: 13591147 heartbeat IPC: 3.899 cumulative IPC: 3.9 (Simulation time: 00 hr 05 min 31 sec)
Heartbeat CPU 0 instructions: 70000001 cycles: 16267136 heartbeat IPC: 3.737 cumulative IPC: 3.858 (Simulation time: 00 hr 06 min 29 sec)
Heartbeat CPU 0 instructions: 80000000 cycles: 19439075 heartbeat IPC: 3.153 cumulative IPC: 3.693 (Simulation time: 00 hr 07 min 32 sec)
Heartbeat CPU 0 instructions: 90000006 cycles: 22599160 heartbeat IPC: 3.164 cumulative IPC: 3.593 (Simulation time: 00 hr 08 min 33 sec)
Heartbeat CPU 0 instructions: 100000002 cycles: 25751454 heartbeat IPC: 3.172 cumulative IPC: 3.526 (Simulation time: 00 hr 09 min 38 sec)
*** Reached end of trace: (0, "../traces/secret_traces/compute_fp/compute_fp_24.champsimtrace.xz")
Heartbeat CPU 0 instructions: 110000002 cycles: 29194410 heartbeat IPC: 2.904 cumulative IPC: 3.434 (Simulation time: 00 hr 10 min 48 sec)
Heartbeat CPU 0 instructions: 120000009 cycles: 31681485 heartbeat IPC: 4.021 cumulative IPC: 3.491 (Simulation time: 00 hr 11 min 49 sec)
Heartbeat CPU 0 instructions: 130000003 cycles: 34127401 heartbeat IPC: 4.088 cumulative IPC: 3.543 (Simulation time: 00 hr 12 min 49 sec)
Simulation finished CPU 0 instructions: 100000002 cycles: 28228152 cumulative IPC: 3.543 (Simulation time: 00 hr 12 min 49 sec)
Simulation complete CPU 0 instructions: 100000002 cycles: 28228152 cumulative IPC: 3.543 (Simulation time: 00 hr 12 min 49 sec)

ChampSim completed all CPUs

=== Simulation ===
CPU 0 runs ../traces/secret_traces/compute_fp/compute_fp_24.champsimtrace.xz
Region of Interest Statistics

CPU 0 cumulative IPC: 3.543 instructions: 100000002 cycles: 28228152
CPU 0 Branch Prediction Accuracy: 99.59% MPKI: 0.1312 Average ROB Occupancy at Mispredict: 28.1
Branch type MPKI
BRANCH_DIRECT_JUMP: 0.00709
BRANCH_INDIRECT: 0.0651
BRANCH_CONDITIONAL: 0.0263
BRANCH_DIRECT_CALL: 0.0196
BRANCH_INDIRECT_CALL: 0.00226
BRANCH_RETURN: 0.0109

LLC TOTAL        ACCESS:     939711 HIT:      94088 MISS:     845623
LLC LOAD         ACCESS:      85563 HIT:       7538 MISS:      78025
LLC RFO          ACCESS:     229850 HIT:      34712 MISS:     195138
LLC PREFETCH     ACCESS:     378213 HIT:       6938 MISS:     371275
LLC WRITE        ACCESS:     234003 HIT:      44785 MISS:     189218
LLC TRANSLATION  ACCESS:      12082 HIT:        115 MISS:      11967
LLC PREFETCH REQUESTED:          0 ISSUED:          0 USEFUL:          0 USELESS:          0
LLC AVERAGE MISS LATENCY: 216.2 cycles
cpu0_DTLB TOTAL        ACCESS:   19421297 HIT:   14286213 MISS:    5135084
cpu0_DTLB LOAD         ACCESS:   19421297 HIT:   14286213 MISS:    5135084
cpu0_DTLB RFO          ACCESS:          0 HIT:          0 MISS:          0
cpu0_DTLB PREFETCH     ACCESS:          0 HIT:          0 MISS:          0
cpu0_DTLB WRITE        ACCESS:          0 HIT:          0 MISS:          0
cpu0_DTLB TRANSLATION  ACCESS:          0 HIT:          0 MISS:          0
cpu0_DTLB PREFETCH REQUESTED:          0 ISSUED:          0 USEFUL:          0 USELESS:          0
cpu0_DTLB AVERAGE MISS LATENCY: 8.887 cycles
cpu0_ITLB TOTAL        ACCESS:     119440 HIT:     117983 MISS:       1457
cpu0_ITLB LOAD         ACCESS:     119440 HIT:     117983 MISS:       1457
cpu0_ITLB RFO          ACCESS:          0 HIT:          0 MISS:          0
cpu0_ITLB PREFETCH     ACCESS:          0 HIT:          0 MISS:          0
cpu0_ITLB WRITE        ACCESS:          0 HIT:          0 MISS:          0
cpu0_ITLB TRANSLATION  ACCESS:          0 HIT:          0 MISS:          0
cpu0_ITLB PREFETCH REQUESTED:          0 ISSUED:          0 USEFUL:          0 USELESS:          0
cpu0_ITLB AVERAGE MISS LATENCY: 52.23 cycles
cpu0_L1D TOTAL        ACCESS:   35448542 HIT:   24717316 MISS:   10731226
cpu0_L1D LOAD         ACCESS:   13640790 HIT:    9418796 MISS:    4221994
cpu0_L1D RFO          ACCESS:          0 HIT:          0 MISS:          0
cpu0_L1D PREFETCH     ACCESS:   10284269 HIT:    7872694 MISS:    2411575
cpu0_L1D WRITE        ACCESS:   11502355 HIT:    7424815 MISS:    4077540
cpu0_L1D TRANSLATION  ACCESS:      21128 HIT:       1011 MISS:      20117
cpu0_L1D PREFETCH REQUESTED:   31112041 ISSUED:   10284237 USEFUL:     273936 USELESS:      70912
cpu0_L1D AVERAGE MISS LATENCY: 13.23 cycles
cpu0_L1I TOTAL        ACCESS:     173341 HIT:     138470 MISS:      34871
cpu0_L1I LOAD         ACCESS:      61093 HIT:      50595 MISS:      10498
cpu0_L1I RFO          ACCESS:          0 HIT:          0 MISS:          0
cpu0_L1I PREFETCH     ACCESS:     112248 HIT:      87875 MISS:      24373
cpu0_L1I WRITE        ACCESS:          0 HIT:          0 MISS:          0
cpu0_L1I TRANSLATION  ACCESS:          0 HIT:          0 MISS:          0
cpu0_L1I PREFETCH REQUESTED:     174055 ISSUED:     112248 USEFUL:      13492 USELESS:       8929
cpu0_L1I AVERAGE MISS LATENCY: 62.65 cycles
cpu0_L2C TOTAL        ACCESS:   15510482 HIT:   14779428 MISS:     731054
cpu0_L2C LOAD         ACCESS:    3895417 HIT:    3807593 MISS:      87824
cpu0_L2C RFO          ACCESS:    2206355 HIT:    1976487 MISS:     229868
cpu0_L2C PREFETCH     ACCESS:    6756027 HIT:    6354747 MISS:     401280
cpu0_L2C WRITE        ACCESS:    2632597 HIT:    2632597 MISS:          0
cpu0_L2C TRANSLATION  ACCESS:      20086 HIT:       8004 MISS:      12082
cpu0_L2C PREFETCH REQUESTED:    6197702 ISSUED:    4484227 USEFUL:     354069 USELESS:      13756
cpu0_L2C AVERAGE MISS LATENCY: 270.1 cycles
cpu0_STLB TOTAL        ACCESS:    4949814 HIT:    4936865 MISS:      12949
cpu0_STLB LOAD         ACCESS:    4949814 HIT:    4936865 MISS:      12949
cpu0_STLB RFO          ACCESS:          0 HIT:          0 MISS:          0
cpu0_STLB PREFETCH     ACCESS:          0 HIT:          0 MISS:          0
cpu0_STLB WRITE        ACCESS:          0 HIT:          0 MISS:          0
cpu0_STLB TRANSLATION  ACCESS:          0 HIT:          0 MISS:          0
cpu0_STLB PREFETCH REQUESTED:          0 ISSUED:          0 USEFUL:          0 USELESS:          0
cpu0_STLB AVERAGE MISS LATENCY: 483.1 cycles

DRAM Statistics

Channel 0 RQ ROW_BUFFER_HIT:      48440
  ROW_BUFFER_MISS:     283663
 AVG DBUS CONGESTED CYCLE: 3.947
WQ ROW_BUFFER_HIT: Channel 0 
  ROW_BUFFER_MISS:       6462
  FULL:      89395

Channel 1 RQ ROW_BUFFER_HIT:      47674
  ROW_BUFFER_MISS:     276616
 AVG DBUS CONGESTED CYCLE: 3.943
WQ ROW_BUFFER_HIT: Channel 1 
  ROW_BUFFER_MISS:       6875
  FULL:      88660
BERTI TO_L1: 19894058 TO_L2: 23066414 TO_L2_BC_MSHR: 3914691
BERTI AVG_LAT: 24.9913 NUM_TRACK_LATENCY: 5397894 NUM_CANT_TRACK_LATENCY: 16
BERTI CROSS_PAGE 2195444 NO_CROSS_PAGE: 40765028
BERTI FOUND_BERTI: 13378474 NO_FOUND_BERTI: 7245212
BERTI AVERAGE_ISSUED: 4.17489
CPU 0 L1I Entangling prefetcher final stats
IP accesses: 399c e6700 313 / 67399
IP misses: 399c e6700 303 / 16804
IP hits: 0 0 0 / 0
IP late: 1526 54980 11 / 5393
IP wrong: 38b7 e2dc0 22 / 8884
miss rate: 0.249322
coverage: 0
coverage_late: 0.320936
accuracy: 0
accuracy_late: 0.377741
discarded: 0
evicts entangled j table: 0
evicts entangled k table: 1581
max bb size: 65
formats: 468 0 1284 727 285 654 0 
hist_lookups: 1099 1184 989 908 776 663 504 400 348 281 200 113 66 47 15 0 9 3458 
hist_lookups_evict: 0.0813744 %
hist_lookups_shortlat: 31.2659 %
bb_found_hist: 0 14774 6124 2705 1118 709 234 67 68 11 11 37 12 0 29 0 154 0 0 0 0 0 0 0 8 32 0 0 0 0 0 0 0 0 0 0 0 0 0 0 0 0 0 0 0 0 0 0 0 0 0 0 0 0 0 0 0 0 0 0 0 0 0 0 
bb_found_summary: 50193 26093 1.92362
entangled_found_hist: 0 7818 4899 9873 1746 404 43 0 
entangled_found_summary: 56497 24783 2.27967
bb_ent_found_hist: 0 19247 9526 5480 2315 1543 765 193 285 5 21 3 0 0 33 0 0 0 0 0 0 0 0 0 14 98 0 0 0 0 0 0 0 0 0 0 0 0 0 0 0 0 0 0 0 0 0 0 0 0 0 0 0 0 0 0 0 0 0 0 0 0 0 0 
bb_ent_found_summary: 83471 39528 2.1117
