WARNING: physical memory size is smaller than virtual memory size.

*** ChampSim Multicore Out-of-Order Simulator ***
Warmup Instructions: 30000000
Simulation Instructions: 100000000
Number of CPUs: 1
Page size: 4096

BTB:
Basic BTB sets: 1024 ways: 8
Indirect:
history lengths: 0 0 10 16 27 44 60 96 109 219 449 487 714 1313 2146 3881 
ITTAGE tables: 64768 bytes;Region table: 240 bytes;IUM: 384 bytes;Total Storage= 65392 bytes;
RAS:
RAS size: 64
[LLC] Demand IPV: 1 2 2 1 4 Prefetch IPV: 1 2 1 1 4
Berti Prefetcher
CPU 0 Entangling prefetcher
Off-chip DRAM Size: 8 GiB Channels: 2 Width: 64-bit Data Race: 6400 MT/s
Heartbeat CPU 0 instructions: 10000004 cycles: 1716573 heartbeat IPC: 5.826 cumulative IPC: 5.826 (Simulation time: 00 hr 00 min 40 sec)
Heartbeat CPU 0 instructions: 20000005 cycles: 3383360 heartbeat IPC: 6 cumulative IPC: 5.911 (Simulation time: 00 hr 01 min 20 sec)
Heartbeat CPU 0 instructions: 30000011 cycles: 5050740 heartbeat IPC: 5.997 cumulative IPC: 5.94 (Simulation time: 00 hr 02 min 00 sec)
Warmup finished CPU 0 instructions: 30000011 cycles: 5050741 cumulative IPC: 5.94 (Simulation time: 00 hr 02 min 00 sec)
Warmup complete CPU 0 instructions: 30000011 cycles: 5050741 cumulative IPC: 5.94 (Simulation time: 00 hr 02 min 00 sec)
[cpu0_PTW_MSHR] entry:   0 address: 0x1c947c0 v_addr: 0x1fb87c0 translation_level: 0 event_cycle: 18446744073709551615

DRAM Channel 0
[RQ] entry:   0 empty
[RQ] entry:   1 empty
[RQ] entry:   2 empty
[RQ] entry:   3 empty
[RQ] entry:   4 empty
[RQ] entry:   5 empty
[RQ] entry:   6 empty
[RQ] entry:   7 empty
[RQ] entry:   8 empty
[RQ] entry:   9 empty
[RQ] entry:  10 empty
[RQ] entry:  11 empty
[RQ] entry:  12 empty
[RQ] entry:  13 empty
[RQ] entry:  14 empty
[RQ] entry:  15 empty
[RQ] entry:  16 empty
[RQ] entry:  17 empty
[RQ] entry:  18 empty
[RQ] entry:  19 empty
[RQ] entry:  20 empty
[RQ] entry:  21 empty
[RQ] entry:  22 empty
[RQ] entry:  23 empty
[RQ] entry:  24 empty
[RQ] entry:  25 empty
[RQ] entry:  26 empty
[RQ] entry:  27 empty
[RQ] entry:  28 empty
[RQ] entry:  29 empty
[RQ] entry:  30 empty
[RQ] entry:  31 empty
[RQ] entry:  32 empty
[RQ] entry:  33 empty
[RQ] entry:  34 empty
[RQ] entry:  35 empty
[RQ] entry:  36 empty
[RQ] entry:  37 empty
[RQ] entry:  38 empty
[RQ] entry:  39 empty
[RQ] entry:  40 empty
[RQ] entry:  41 empty
[RQ] entry:  42 empty
[RQ] entry:  43 empty
[RQ] entry:  44 empty
[RQ] entry:  45 empty
[RQ] entry:  46 empty
[RQ] entry:  47 empty
[RQ] entry:  48 empty
[RQ] entry:  49 empty
[RQ] entry:  50 empty
[RQ] entry:  51 empty
[RQ] entry:  52 empty
[RQ] entry:  53 empty
[RQ] entry:  54 empty
[RQ] entry:  55 empty
[RQ] entry:  56 empty
[RQ] entry:  57 empty
[RQ] entry:  58 empty
[RQ] entry:  59 empty
[RQ] entry:  60 empty
[RQ] entry:  61 empty
[RQ] entry:  62 empty
[RQ] entry:  63 empty

[WQ] entry:   0 empty
[WQ] entry:   1 empty
[WQ] entry:   2 empty
[WQ] entry:   3 empty
[WQ] entry:   4 empty
[WQ] entry:   5 empty
[WQ] entry:   6 empty
[WQ] entry:   7 empty
[WQ] entry:   8 empty
[WQ] entry:   9 empty
[WQ] entry:  10 empty
[WQ] entry:  11 empty
[WQ] entry:  12 empty
[WQ] entry:  13 empty
[WQ] entry:  14 empty
[WQ] entry:  15 empty
[WQ] entry:  16 empty
[WQ] entry:  17 empty
[WQ] entry:  18 empty
[WQ] entry:  19 empty
[WQ] entry:  20 empty
[WQ] entry:  21 empty
[WQ] entry:  22 empty
[WQ] entry:  23 empty
[WQ] entry:  24 empty
[WQ] entry:  25 empty
[WQ] entry:  26 empty
[WQ] entry:  27 empty
[WQ] entry:  28 empty
[WQ] entry:  29 empty
[WQ] entry:  30 empty
[WQ] entry:  31 empty
[WQ] entry:  32 empty
[WQ] entry:  33 empty
[WQ] entry:  34 empty
[WQ] entry:  35 empty
[WQ] entry:  36 empty
[WQ] entry:  37 empty
[WQ] entry:  38 empty
[WQ] entry:  39 empty
[WQ] entry:  40 empty
[WQ] entry:  41 empty
[WQ] entry:  42 empty
[WQ] entry:  43 empty
[WQ] entry:  44 empty
[WQ] entry:  45 empty
[WQ] entry:  46 empty
[WQ] entry:  47 empty
[WQ] entry:  48 empty
[WQ] entry:  49 empty
[WQ] entry:  50 empty
[WQ] entry:  51 empty
[WQ] entry:  52 empty
[WQ] entry:  53 empty
[WQ] entry:  54 empty
[WQ] entry:  55 empty
[WQ] entry:  56 empty
[WQ] entry:  57 empty
[WQ] entry:  58 empty
[WQ] entry:  59 empty
[WQ] entry:  60 empty
[WQ] entry:  61 empty
[WQ] entry:  62 empty
[WQ] entry:  63 empty

DRAM Channel 1
[RQ] entry:   0 empty
[RQ] entry:   1 empty
[RQ] entry:   2 empty
[RQ] entry:   3 empty
[RQ] entry:   4 empty
[RQ] entry:   5 empty
[RQ] entry:   6 empty
[RQ] entry:   7 empty
[RQ] entry:   8 empty
[RQ] entry:   9 empty
[RQ] entry:  10 empty
[RQ] entry:  11 empty
[RQ] entry:  12 empty
[RQ] entry:  13 empty
[RQ] entry:  14 empty
[RQ] entry:  15 empty
[RQ] entry:  16 empty
[RQ] entry:  17 empty
[RQ] entry:  18 empty
[RQ] entry:  19 empty
[RQ] entry:  20 empty
[RQ] entry:  21 empty
[RQ] entry:  22 empty
[RQ] entry:  23 empty
[RQ] entry:  24 empty
[RQ] entry:  25 empty
[RQ] entry:  26 empty
[RQ] entry:  27 empty
[RQ] entry:  28 empty
[RQ] entry:  29 empty
[RQ] entry:  30 empty
[RQ] entry:  31 empty
[RQ] entry:  32 empty
[RQ] entry:  33 empty
[RQ] entry:  34 empty
[RQ] entry:  35 empty
[RQ] entry:  36 empty
[RQ] entry:  37 empty
[RQ] entry:  38 empty
[RQ] entry:  39 empty
[RQ] entry:  40 empty
[RQ] entry:  41 empty
[RQ] entry:  42 empty
[RQ] entry:  43 empty
[RQ] entry:  44 empty
[RQ] entry:  45 empty
[RQ] entry:  46 empty
[RQ] entry:  47 empty
[RQ] entry:  48 empty
[RQ] entry:  49 empty
[RQ] entry:  50 empty
[RQ] entry:  51 empty
[RQ] entry:  52 empty
[RQ] entry:  53 empty
[RQ] entry:  54 empty
[RQ] entry:  55 empty
[RQ] entry:  56 empty
[RQ] entry:  57 empty
[RQ] entry:  58 empty
[RQ] entry:  59 empty
[RQ] entry:  60 empty
[RQ] entry:  61 empty
[RQ] entry:  62 empty
[RQ] entry:  63 empty

[WQ] entry:   0 empty
[WQ] entry:   1 empty
[WQ] entry:   2 empty
[WQ] entry:   3 empty
[WQ] entry:   4 empty
[WQ] entry:   5 empty
[WQ] entry:   6 empty
[WQ] entry:   7 empty
[WQ] entry:   8 empty
[WQ] entry:   9 empty
[WQ] entry:  10 empty
[WQ] entry:  11 empty
[WQ] entry:  12 empty
[WQ] entry:  13 empty
[WQ] entry:  14 empty
[WQ] entry:  15 empty
[WQ] entry:  16 empty
[WQ] entry:  17 empty
[WQ] entry:  18 empty
[WQ] entry:  19 empty
[WQ] entry:  20 empty
[WQ] entry:  21 empty
[WQ] entry:  22 empty
[WQ] entry:  23 empty
[WQ] entry:  24 empty
[WQ] entry:  25 empty
[WQ] entry:  26 empty
[WQ] entry:  27 empty
[WQ] entry:  28 empty
[WQ] entry:  29 empty
[WQ] entry:  30 empty
[WQ] entry:  31 empty
[WQ] entry:  32 empty
[WQ] entry:  33 empty
[WQ] entry:  34 empty
[WQ] entry:  35 empty
[WQ] entry:  36 empty
[WQ] entry:  37 empty
[WQ] entry:  38 empty
[WQ] entry:  39 empty
[WQ] entry:  40 empty
[WQ] entry:  41 empty
[WQ] entry:  42 empty
[WQ] entry:  43 empty
[WQ] entry:  44 empty
[WQ] entry:  45 empty
[WQ] entry:  46 empty
[WQ] entry:  47 empty
[WQ] entry:  48 empty
[WQ] entry:  49 empty
[WQ] entry:  50 empty
[WQ] entry:  51 empty
[WQ] entry:  52 empty
[WQ] entry:  53 empty
[WQ] entry:  54 empty
[WQ] entry:  55 empty
[WQ] entry:  56 empty
[WQ] entry:  57 empty
[WQ] entry:  58 empty
[WQ] entry:  59 empty
[WQ] entry:  60 empty
[WQ] entry:  61 empty
[WQ] entry:  62 empty
[WQ] entry:  63 empty

DEADLOCK! CPU 0 cycle 11323351
[cpu0_IFETCH] entry:   0 instr_id: 32573158 fetched: 2 scheduled: 0 executed: 0 num_reg_dependent: 0 num_mem_ops: 0 event: 11315803
[cpu0_IFETCH] entry:   1 instr_id: 32573159 fetched: 2 scheduled: 0 executed: 0 num_reg_dependent: 0 num_mem_ops: 2 event: 11315803
[cpu0_IFETCH] entry:   2 instr_id: 32573160 fetched: 2 scheduled: 0 executed: 0 num_reg_dependent: 0 num_mem_ops: 0 event: 11315803
[cpu0_IFETCH] entry:   3 instr_id: 32573161 fetched: 2 scheduled: 0 executed: 0 num_reg_dependent: 0 num_mem_ops: 1 event: 11315803
[cpu0_IFETCH] entry:   4 instr_id: 32573162 fetched: 2 scheduled: 0 executed: 0 num_reg_dependent: 0 num_mem_ops: 0 event: 11315804
[cpu0_IFETCH] entry:   5 instr_id: 32573163 fetched: 2 scheduled: 0 executed: 0 num_reg_dependent: 0 num_mem_ops: 1 event: 11315804
[cpu0_IFETCH] entry:   6 instr_id: 32573164 fetched: 2 scheduled: 0 executed: 0 num_reg_dependent: 0 num_mem_ops: 0 event: 11315804
[cpu0_IFETCH] entry:   7 instr_id: 32573165 fetched: 2 scheduled: 0 executed: 0 num_reg_dependent: 0 num_mem_ops: 1 event: 11315804
[cpu0_IFETCH] entry:   8 instr_id: 32573166 fetched: 2 scheduled: 0 executed: 0 num_reg_dependent: 0 num_mem_ops: 0 event: 11315804
[cpu0_IFETCH] entry:   9 instr_id: 32573167 fetched: 2 scheduled: 0 executed: 0 num_reg_dependent: 0 num_mem_ops: 1 event: 11315804
[cpu0_IFETCH] entry:  10 instr_id: 32573168 fetched: 2 scheduled: 0 executed: 0 num_reg_dependent: 0 num_mem_ops: 0 event: 11315805
[cpu0_IFETCH] entry:  11 instr_id: 32573169 fetched: 2 scheduled: 0 executed: 0 num_reg_dependent: 0 num_mem_ops: 0 event: 11315805
[cpu0_IFETCH] entry:  12 instr_id: 32573170 fetched: 2 scheduled: 0 executed: 0 num_reg_dependent: 0 num_mem_ops: 0 event: 11315805
[cpu0_IFETCH] entry:  13 instr_id: 32573171 fetched: 2 scheduled: 0 executed: 0 num_reg_dependent: 0 num_mem_ops: 0 event: 11315805
[cpu0_IFETCH] entry:  14 instr_id: 32573172 fetched: 2 scheduled: 0 executed: 0 num_reg_dependent: 0 num_mem_ops: 1 event: 11315805
[cpu0_IFETCH] entry:  15 instr_id: 32573173 fetched: 2 scheduled: 0 executed: 0 num_reg_dependent: 0 num_mem_ops: 0 event: 11315805
[cpu0_IFETCH] entry:  16 instr_id: 32573174 fetched: 2 scheduled: 0 executed: 0 num_reg_dependent: 0 num_mem_ops: 0 event: 11315806
[cpu0_IFETCH] entry:  17 instr_id: 32573175 fetched: 2 scheduled: 0 executed: 0 num_reg_dependent: 0 num_mem_ops: 1 event: 11315806
[cpu0_IFETCH] entry:  18 instr_id: 32573176 fetched: 2 scheduled: 0 executed: 0 num_reg_dependent: 0 num_mem_ops: 0 event: 11315806
[cpu0_IFETCH] entry:  19 instr_id: 32573177 fetched: 2 scheduled: 0 executed: 0 num_reg_dependent: 0 num_mem_ops: 1 event: 11315806
[cpu0_IFETCH] entry:  20 instr_id: 32573178 fetched: 2 scheduled: 0 executed: 0 num_reg_dependent: 0 num_mem_ops: 0 event: 11315806
[cpu0_IFETCH] entry:  21 instr_id: 32573179 fetched: 2 scheduled: 0 executed: 0 num_reg_dependent: 0 num_mem_ops: 1 event: 11315806
[cpu0_IFETCH] entry:  22 instr_id: 32573180 fetched: 2 scheduled: 0 executed: 0 num_reg_dependent: 0 num_mem_ops: 0 event: 11315807
[cpu0_IFETCH] entry:  23 instr_id: 32573181 fetched: 2 scheduled: 0 executed: 0 num_reg_dependent: 0 num_mem_ops: 1 event: 11315807
[cpu0_IFETCH] entry:  24 instr_id: 32573182 fetched: 2 scheduled: 0 executed: 0 num_reg_dependent: 0 num_mem_ops: 1 event: 11315807
[cpu0_IFETCH] entry:  25 instr_id: 32573183 fetched: 2 scheduled: 0 executed: 0 num_reg_dependent: 0 num_mem_ops: 0 event: 11315807
[cpu0_IFETCH] entry:  26 instr_id: 32573184 fetched: 2 scheduled: 0 executed: 0 num_reg_dependent: 0 num_mem_ops: 1 event: 11315807
[cpu0_IFETCH] entry:  27 instr_id: 32573185 fetched: 2 scheduled: 0 executed: 0 num_reg_dependent: 0 num_mem_ops: 1 event: 11315807
[cpu0_IFETCH] entry:  28 instr_id: 32573186 fetched: 2 scheduled: 0 executed: 0 num_reg_dependent: 0 num_mem_ops: 1 event: 11315808
[cpu0_IFETCH] entry:  29 instr_id: 32573187 fetched: 2 scheduled: 0 executed: 0 num_reg_dependent: 0 num_mem_ops: 1 event: 11315808
[cpu0_IFETCH] entry:  30 instr_id: 32573188 fetched: 2 scheduled: 0 executed: 0 num_reg_dependent: 0 num_mem_ops: 1 event: 11315808
[cpu0_IFETCH] entry:  31 instr_id: 32573189 fetched: 2 scheduled: 0 executed: 0 num_reg_dependent: 0 num_mem_ops: 1 event: 11315808
[cpu0_IFETCH] entry:  32 instr_id: 32573190 fetched: 2 scheduled: 0 executed: 0 num_reg_dependent: 0 num_mem_ops: 0 event: 11315808
[cpu0_IFETCH] entry:  33 instr_id: 32573191 fetched: 2 scheduled: 0 executed: 0 num_reg_dependent: 0 num_mem_ops: 0 event: 11315808
[cpu0_IFETCH] entry:  34 instr_id: 32573192 fetched: 2 scheduled: 0 executed: 0 num_reg_dependent: 0 num_mem_ops: 0 event: 11315809
[cpu0_IFETCH] entry:  35 instr_id: 32573193 fetched: 2 scheduled: 0 executed: 0 num_reg_dependent: 0 num_mem_ops: 0 event: 11315809
[cpu0_IFETCH] entry:  36 instr_id: 32573194 fetched: 2 scheduled: 0 executed: 0 num_reg_dependent: 0 num_mem_ops: 1 event: 11315809
[cpu0_IFETCH] entry:  37 instr_id: 32573195 fetched: 2 scheduled: 0 executed: 0 num_reg_dependent: 0 num_mem_ops: 1 event: 11315809
[cpu0_IFETCH] entry:  38 instr_id: 32573196 fetched: 2 scheduled: 0 executed: 0 num_reg_dependent: 0 num_mem_ops: 1 event: 11315809
[cpu0_IFETCH] entry:  39 instr_id: 32573197 fetched: 2 scheduled: 0 executed: 0 num_reg_dependent: 0 num_mem_ops: 1 event: 11315809
[cpu0_IFETCH] entry:  40 instr_id: 32573198 fetched: 2 scheduled: 0 executed: 0 num_reg_dependent: 0 num_mem_ops: 0 event: 11315810
[cpu0_IFETCH] entry:  41 instr_id: 32573199 fetched: 2 scheduled: 0 executed: 0 num_reg_dependent: 0 num_mem_ops: 0 event: 11315810
[cpu0_IFETCH] entry:  42 instr_id: 32573200 fetched: 2 scheduled: 0 executed: 0 num_reg_dependent: 0 num_mem_ops: 0 event: 11315810
[cpu0_IFETCH] entry:  43 instr_id: 32573201 fetched: 2 scheduled: 0 executed: 0 num_reg_dependent: 0 num_mem_ops: 1 event: 11315810
[cpu0_IFETCH] entry:  44 instr_id: 32573202 fetched: 2 scheduled: 0 executed: 0 num_reg_dependent: 0 num_mem_ops: 1 event: 11315810
[cpu0_IFETCH] entry:  45 instr_id: 32573203 fetched: 2 scheduled: 0 executed: 0 num_reg_dependent: 0 num_mem_ops: 1 event: 11315810
[cpu0_IFETCH] entry:  46 instr_id: 32573204 fetched: 2 scheduled: 0 executed: 0 num_reg_dependent: 0 num_mem_ops: 1 event: 11315811
[cpu0_IFETCH] entry:  47 instr_id: 32573205 fetched: 2 scheduled: 0 executed: 0 num_reg_dependent: 0 num_mem_ops: 0 event: 11315811
[cpu0_IFETCH] entry:  48 instr_id: 32573206 fetched: 2 scheduled: 0 executed: 0 num_reg_dependent: 0 num_mem_ops: 0 event: 11315811
[cpu0_IFETCH] entry:  49 instr_id: 32573207 fetched: 2 scheduled: 0 executed: 0 num_reg_dependent: 0 num_mem_ops: 0 event: 11315811
[cpu0_IFETCH] entry:  50 instr_id: 32573208 fetched: 2 scheduled: 0 executed: 0 num_reg_dependent: 0 num_mem_ops: 1 event: 11315811
[cpu0_IFETCH] entry:  51 instr_id: 32573209 fetched: 2 scheduled: 0 executed: 0 num_reg_dependent: 0 num_mem_ops: 1 event: 11315811
[cpu0_IFETCH] entry:  52 instr_id: 32573210 fetched: 2 scheduled: 0 executed: 0 num_reg_dependent: 0 num_mem_ops: 1 event: 11315812
[cpu0_IFETCH] entry:  53 instr_id: 32573211 fetched: 2 scheduled: 0 executed: 0 num_reg_dependent: 0 num_mem_ops: 0 event: 11315812
[cpu0_IFETCH] entry:  54 instr_id: 32573212 fetched: 2 scheduled: 0 executed: 0 num_reg_dependent: 0 num_mem_ops: 0 event: 11315812
[cpu0_IFETCH] entry:  55 instr_id: 32573213 fetched: 2 scheduled: 0 executed: 0 num_reg_dependent: 0 num_mem_ops: 1 event: 11315812
[cpu0_IFETCH] entry:  56 instr_id: 32573214 fetched: 2 scheduled: 0 executed: 0 num_reg_dependent: 0 num_mem_ops: 0 event: 11315812
[cpu0_IFETCH] entry:  57 instr_id: 32573215 fetched: 2 scheduled: 0 executed: 0 num_reg_dependent: 0 num_mem_ops: 0 event: 11315816
[cpu0_IFETCH] entry:  58 instr_id: 32573216 fetched: 2 scheduled: 0 executed: 0 num_reg_dependent: 0 num_mem_ops: 0 event: 11315816
[cpu0_IFETCH] entry:  59 instr_id: 32573217 fetched: 2 scheduled: 0 executed: 0 num_reg_dependent: 0 num_mem_ops: 1 event: 11315817
[cpu0_IFETCH] entry:  60 instr_id: 32573218 fetched: 2 scheduled: 0 executed: 0 num_reg_dependent: 0 num_mem_ops: 1 event: 11315817
[cpu0_IFETCH] entry:  61 instr_id: 32573219 fetched: 2 scheduled: 0 executed: 0 num_reg_dependent: 0 num_mem_ops: 1 event: 11315817
[cpu0_IFETCH] entry:  62 instr_id: 32573220 fetched: 2 scheduled: 0 executed: 0 num_reg_dependent: 0 num_mem_ops: 1 event: 11315817
[cpu0_IFETCH] entry:  63 instr_id: 32573221 fetched: 2 scheduled: 0 executed: 0 num_reg_dependent: 0 num_mem_ops: 0 event: 11315817
[cpu0_IFETCH] entry:  64 instr_id: 32573222 fetched: 2 scheduled: 0 executed: 0 num_reg_dependent: 0 num_mem_ops: 2 event: 11315817
[cpu0_IFETCH] entry:  65 instr_id: 32573223 fetched: 2 scheduled: 0 executed: 0 num_reg_dependent: 0 num_mem_ops: 0 event: 11315817
[cpu0_IFETCH] entry:  66 instr_id: 32573224 fetched: 2 scheduled: 0 executed: 0 num_reg_dependent: 0 num_mem_ops: 1 event: 11315817
[cpu0_IFETCH] entry:  67 instr_id: 32573225 fetched: 2 scheduled: 0 executed: 0 num_reg_dependent: 0 num_mem_ops: 0 event: 11315818
[cpu0_IFETCH] entry:  68 instr_id: 32573226 fetched: 2 scheduled: 0 executed: 0 num_reg_dependent: 0 num_mem_ops: 1 event: 11315818
[cpu0_IFETCH] entry:  69 instr_id: 32573227 fetched: 2 scheduled: 0 executed: 0 num_reg_dependent: 0 num_mem_ops: 0 event: 11315818
[cpu0_IFETCH] entry:  70 instr_id: 32573228 fetched: 2 scheduled: 0 executed: 0 num_reg_dependent: 0 num_mem_ops: 1 event: 11315818
[cpu0_IFETCH] entry:  71 instr_id: 32573229 fetched: 2 scheduled: 0 executed: 0 num_reg_dependent: 0 num_mem_ops: 0 event: 11315818
[cpu0_IFETCH] entry:  72 instr_id: 32573230 fetched: 2 scheduled: 0 executed: 0 num_reg_dependent: 0 num_mem_ops: 1 event: 11315818
[cpu0_IFETCH] entry:  73 instr_id: 32573231 fetched: 2 scheduled: 0 executed: 0 num_reg_dependent: 0 num_mem_ops: 0 event: 11315819
[cpu0_IFETCH] entry:  74 instr_id: 32573232 fetched: 2 scheduled: 0 executed: 0 num_reg_dependent: 0 num_mem_ops: 0 event: 11315819
[cpu0_IFETCH] entry:  75 instr_id: 32573233 fetched: 2 scheduled: 0 executed: 0 num_reg_dependent: 0 num_mem_ops: 0 event: 11315819
[cpu0_IFETCH] entry:  76 instr_id: 32573234 fetched: 2 scheduled: 0 executed: 0 num_reg_dependent: 0 num_mem_ops: 0 event: 11315819
[cpu0_IFETCH] entry:  77 instr_id: 32573235 fetched: 2 scheduled: 0 executed: 0 num_reg_dependent: 0 num_mem_ops: 1 event: 11315819
[cpu0_IFETCH] entry:  78 instr_id: 32573236 fetched: 2 scheduled: 0 executed: 0 num_reg_dependent: 0 num_mem_ops: 0 event: 11315819
[cpu0_IFETCH] entry:  79 instr_id: 32573237 fetched: 2 scheduled: 0 executed: 0 num_reg_dependent: 0 num_mem_ops: 0 event: 11315820
[cpu0_IFETCH] entry:  80 instr_id: 32573238 fetched: 2 scheduled: 0 executed: 0 num_reg_dependent: 0 num_mem_ops: 1 event: 11315820
[cpu0_IFETCH] entry:  81 instr_id: 32573239 fetched: 2 scheduled: 0 executed: 0 num_reg_dependent: 0 num_mem_ops: 0 event: 11315820
[cpu0_IFETCH] entry:  82 instr_id: 32573240 fetched: 2 scheduled: 0 executed: 0 num_reg_dependent: 0 num_mem_ops: 1 event: 11315820
[cpu0_IFETCH] entry:  83 instr_id: 32573241 fetched: 2 scheduled: 0 executed: 0 num_reg_dependent: 0 num_mem_ops: 0 event: 11315820
[cpu0_IFETCH] entry:  84 instr_id: 32573242 fetched: 2 scheduled: 0 executed: 0 num_reg_dependent: 0 num_mem_ops: 1 event: 11315820
[cpu0_IFETCH] entry:  85 instr_id: 32573243 fetched: 2 scheduled: 0 executed: 0 num_reg_dependent: 0 num_mem_ops: 0 event: 11315821
[cpu0_IFETCH] entry:  86 instr_id: 32573244 fetched: 2 scheduled: 0 executed: 0 num_reg_dependent: 0 num_mem_ops: 1 event: 11315821
[cpu0_IFETCH] entry:  87 instr_id: 32573245 fetched: 2 scheduled: 0 executed: 0 num_reg_dependent: 0 num_mem_ops: 1 event: 11315821
[cpu0_IFETCH] entry:  88 instr_id: 32573246 fetched: 2 scheduled: 0 executed: 0 num_reg_dependent: 0 num_mem_ops: 0 event: 11315821
[cpu0_IFETCH] entry:  89 instr_id: 32573247 fetched: 2 scheduled: 0 executed: 0 num_reg_dependent: 0 num_mem_ops: 1 event: 11315821
[cpu0_IFETCH] entry:  90 instr_id: 32573248 fetched: 2 scheduled: 0 executed: 0 num_reg_dependent: 0 num_mem_ops: 1 event: 11315821
[cpu0_IFETCH] entry:  91 instr_id: 32573249 fetched: 2 scheduled: 0 executed: 0 num_reg_dependent: 0 num_mem_ops: 1 event: 11315822
[cpu0_IFETCH] entry:  92 instr_id: 32573250 fetched: 2 scheduled: 0 executed: 0 num_reg_dependent: 0 num_mem_ops: 1 event: 11315822
[cpu0_IFETCH] entry:  93 instr_id: 32573251 fetched: 2 scheduled: 0 executed: 0 num_reg_dependent: 0 num_mem_ops: 1 event: 11315822
[cpu0_IFETCH] entry:  94 instr_id: 32573252 fetched: 2 scheduled: 0 executed: 0 num_reg_dependent: 0 num_mem_ops: 1 event: 11315822
[cpu0_IFETCH] entry:  95 instr_id: 32573253 fetched: 2 scheduled: 0 executed: 0 num_reg_dependent: 0 num_mem_ops: 0 event: 11315822
[cpu0_IFETCH] entry:  96 instr_id: 32573254 fetched: 2 scheduled: 0 executed: 0 num_reg_dependent: 0 num_mem_ops: 0 event: 11315822
[cpu0_IFETCH] entry:  97 instr_id: 32573255 fetched: 2 scheduled: 0 executed: 0 num_reg_dependent: 0 num_mem_ops: 0 event: 11315823
[cpu0_IFETCH] entry:  98 instr_id: 32573256 fetched: 2 scheduled: 0 executed: 0 num_reg_dependent: 0 num_mem_ops: 0 event: 11315823
[cpu0_IFETCH] entry:  99 instr_id: 32573257 fetched: 2 scheduled: 0 executed: 0 num_reg_dependent: 0 num_mem_ops: 1 event: 11315823
[cpu0_IFETCH] entry: 100 instr_id: 32573258 fetched: 2 scheduled: 0 executed: 0 num_reg_dependent: 0 num_mem_ops: 1 event: 11315823
[cpu0_IFETCH] entry: 101 instr_id: 32573259 fetched: 2 scheduled: 0 executed: 0 num_reg_dependent: 0 num_mem_ops: 1 event: 11315823
[cpu0_IFETCH] entry: 102 instr_id: 32573260 fetched: 2 scheduled: 0 executed: 0 num_reg_dependent: 0 num_mem_ops: 1 event: 11315823
[cpu0_IFETCH] entry: 103 instr_id: 32573261 fetched: 2 scheduled: 0 executed: 0 num_reg_dependent: 0 num_mem_ops: 0 event: 11315824
[cpu0_IFETCH] entry: 104 instr_id: 32573262 fetched: 2 scheduled: 0 executed: 0 num_reg_dependent: 0 num_mem_ops: 0 event: 11315824
[cpu0_IFETCH] entry: 105 instr_id: 32573263 fetched: 2 scheduled: 0 executed: 0 num_reg_dependent: 0 num_mem_ops: 0 event: 11315824
[cpu0_IFETCH] entry: 106 instr_id: 32573264 fetched: 2 scheduled: 0 executed: 0 num_reg_dependent: 0 num_mem_ops: 1 event: 11315824
[cpu0_IFETCH] entry: 107 instr_id: 32573265 fetched: 2 scheduled: 0 executed: 0 num_reg_dependent: 0 num_mem_ops: 1 event: 11315824
[cpu0_IFETCH] entry: 108 instr_id: 32573266 fetched: 2 scheduled: 0 executed: 0 num_reg_dependent: 0 num_mem_ops: 1 event: 11315824
[cpu0_IFETCH] entry: 109 instr_id: 32573267 fetched: 2 scheduled: 0 executed: 0 num_reg_dependent: 0 num_mem_ops: 1 event: 11315825
[cpu0_IFETCH] entry: 110 instr_id: 32573268 fetched: 2 scheduled: 0 executed: 0 num_reg_dependent: 0 num_mem_ops: 0 event: 11315825
[cpu0_IFETCH] entry: 111 instr_id: 32573269 fetched: 2 scheduled: 0 executed: 0 num_reg_dependent: 0 num_mem_ops: 0 event: 11315825
[cpu0_IFETCH] entry: 112 instr_id: 32573270 fetched: 2 scheduled: 0 executed: 0 num_reg_dependent: 0 num_mem_ops: 0 event: 11315825
[cpu0_IFETCH] entry: 113 instr_id: 32573271 fetched: 2 scheduled: 0 executed: 0 num_reg_dependent: 0 num_mem_ops: 1 event: 11315825
[cpu0_IFETCH] entry: 114 instr_id: 32573272 fetched: 2 scheduled: 0 executed: 0 num_reg_dependent: 0 num_mem_ops: 1 event: 11315825
[cpu0_IFETCH] entry: 115 instr_id: 32573273 fetched: 2 scheduled: 0 executed: 0 num_reg_dependent: 0 num_mem_ops: 1 event: 11315826
[cpu0_IFETCH] entry: 116 instr_id: 32573274 fetched: 2 scheduled: 0 executed: 0 num_reg_dependent: 0 num_mem_ops: 0 event: 11315826
[cpu0_IFETCH] entry: 117 instr_id: 32573275 fetched: 2 scheduled: 0 executed: 0 num_reg_dependent: 0 num_mem_ops: 0 event: 11315826
[cpu0_IFETCH] entry: 118 instr_id: 32573276 fetched: 2 scheduled: 0 executed: 0 num_reg_dependent: 0 num_mem_ops: 1 event: 11315826
[cpu0_IFETCH] entry: 119 instr_id: 32573277 fetched: 2 scheduled: 0 executed: 0 num_reg_dependent: 0 num_mem_ops: 0 event: 11315826
[cpu0_IFETCH] entry: 120 instr_id: 32573278 fetched: 2 scheduled: 0 executed: 0 num_reg_dependent: 0 num_mem_ops: 0 event: 11315882
[cpu0_IFETCH] entry: 121 instr_id: 32573279 fetched: 2 scheduled: 0 executed: 0 num_reg_dependent: 0 num_mem_ops: 0 event: 11315882
[cpu0_IFETCH] entry: 122 instr_id: 32573280 fetched: 2 scheduled: 0 executed: 0 num_reg_dependent: 0 num_mem_ops: 1 event: 11315883
[cpu0_IFETCH] entry: 123 instr_id: 32573281 fetched: 2 scheduled: 0 executed: 0 num_reg_dependent: 0 num_mem_ops: 1 event: 11315883
[cpu0_IFETCH] entry: 124 instr_id: 32573282 fetched: 2 scheduled: 0 executed: 0 num_reg_dependent: 0 num_mem_ops: 1 event: 11315883
[cpu0_IFETCH] entry: 125 instr_id: 32573283 fetched: 2 scheduled: 0 executed: 0 num_reg_dependent: 0 num_mem_ops: 1 event: 11315883
[cpu0_IFETCH] entry: 126 instr_id: 32573284 fetched: 2 scheduled: 0 executed: 0 num_reg_dependent: 0 num_mem_ops: 0 event: 11315883
[cpu0_IFETCH] entry: 127 instr_id: 32573285 fetched: 2 scheduled: 0 executed: 0 num_reg_dependent: 0 num_mem_ops: 2 event: 11315883
[cpu0_IFETCH] entry: 128 instr_id: 32573286 fetched: 2 scheduled: 0 executed: 0 num_reg_dependent: 0 num_mem_ops: 0 event: 11315883
[cpu0_IFETCH] entry: 129 instr_id: 32573287 fetched: 2 scheduled: 0 executed: 0 num_reg_dependent: 0 num_mem_ops: 1 event: 11315883
[cpu0_IFETCH] entry: 130 instr_id: 32573288 fetched: 2 scheduled: 0 executed: 0 num_reg_dependent: 0 num_mem_ops: 0 event: 11315884
[cpu0_IFETCH] entry: 131 instr_id: 32573289 fetched: 2 scheduled: 0 executed: 0 num_reg_dependent: 0 num_mem_ops: 1 event: 11315884
[cpu0_IFETCH] entry: 132 instr_id: 32573290 fetched: 2 scheduled: 0 executed: 0 num_reg_dependent: 0 num_mem_ops: 0 event: 11315884
[cpu0_IFETCH] entry: 133 instr_id: 32573291 fetched: 2 scheduled: 0 executed: 0 num_reg_dependent: 0 num_mem_ops: 1 event: 11315884
[cpu0_IFETCH] entry: 134 instr_id: 32573292 fetched: 2 scheduled: 0 executed: 0 num_reg_dependent: 0 num_mem_ops: 0 event: 11315884
[cpu0_IFETCH] entry: 135 instr_id: 32573293 fetched: 2 scheduled: 0 executed: 0 num_reg_dependent: 0 num_mem_ops: 1 event: 11315884
[cpu0_IFETCH] entry: 136 instr_id: 32573294 fetched: 2 scheduled: 0 executed: 0 num_reg_dependent: 0 num_mem_ops: 0 event: 11315885
[cpu0_IFETCH] entry: 137 instr_id: 32573295 fetched: 2 scheduled: 0 executed: 0 num_reg_dependent: 0 num_mem_ops: 0 event: 11315885
[cpu0_IFETCH] entry: 138 instr_id: 32573296 fetched: 2 scheduled: 0 executed: 0 num_reg_dependent: 0 num_mem_ops: 0 event: 11315885
[cpu0_IFETCH] entry: 139 instr_id: 32573297 fetched: 2 scheduled: 0 executed: 0 num_reg_dependent: 0 num_mem_ops: 0 event: 11315885
[cpu0_IFETCH] entry: 140 instr_id: 32573298 fetched: 2 scheduled: 0 executed: 0 num_reg_dependent: 0 num_mem_ops: 1 event: 11315885
[cpu0_IFETCH] entry: 141 instr_id: 32573299 fetched: 2 scheduled: 0 executed: 0 num_reg_dependent: 0 num_mem_ops: 0 event: 11315885
[cpu0_IFETCH] entry: 142 instr_id: 32573300 fetched: 2 scheduled: 0 executed: 0 num_reg_dependent: 0 num_mem_ops: 0 event: 11315886
[cpu0_IFETCH] entry: 143 instr_id: 32573301 fetched: 2 scheduled: 0 executed: 0 num_reg_dependent: 0 num_mem_ops: 1 event: 11315886
[cpu0_IFETCH] entry: 144 instr_id: 32573302 fetched: 2 scheduled: 0 executed: 0 num_reg_dependent: 0 num_mem_ops: 0 event: 11315886
[cpu0_IFETCH] entry: 145 instr_id: 32573303 fetched: 2 scheduled: 0 executed: 0 num_reg_dependent: 0 num_mem_ops: 1 event: 11315886
[cpu0_IFETCH] entry: 146 instr_id: 32573304 fetched: 2 scheduled: 0 executed: 0 num_reg_dependent: 0 num_mem_ops: 0 event: 11315886
[cpu0_IFETCH] entry: 147 instr_id: 32573305 fetched: 2 scheduled: 0 executed: 0 num_reg_dependent: 0 num_mem_ops: 1 event: 11315886
[cpu0_IFETCH] entry: 148 instr_id: 32573306 fetched: 2 scheduled: 0 executed: 0 num_reg_dependent: 0 num_mem_ops: 0 event: 11315887
[cpu0_IFETCH] entry: 149 instr_id: 32573307 fetched: 2 scheduled: 0 executed: 0 num_reg_dependent: 0 num_mem_ops: 1 event: 11315887
[cpu0_IFETCH] entry: 150 instr_id: 32573308 fetched: 2 scheduled: 0 executed: 0 num_reg_dependent: 0 num_mem_ops: 1 event: 11315887
[cpu0_IFETCH] entry: 151 instr_id: 32573309 fetched: 2 scheduled: 0 executed: 0 num_reg_dependent: 0 num_mem_ops: 0 event: 11315887
[cpu0_IFETCH] entry: 152 instr_id: 32573310 fetched: 2 scheduled: 0 executed: 0 num_reg_dependent: 0 num_mem_ops: 1 event: 11315887
[cpu0_IFETCH] entry: 153 instr_id: 32573311 fetched: 2 scheduled: 0 executed: 0 num_reg_dependent: 0 num_mem_ops: 1 event: 11315887
[cpu0_IFETCH] entry: 154 instr_id: 32573312 fetched: 2 scheduled: 0 executed: 0 num_reg_dependent: 0 num_mem_ops: 1 event: 11315888
[cpu0_IFETCH] entry: 155 instr_id: 32573313 fetched: 2 scheduled: 0 executed: 0 num_reg_dependent: 0 num_mem_ops: 1 event: 11315888
[cpu0_IFETCH] entry: 156 instr_id: 32573314 fetched: 2 scheduled: 0 executed: 0 num_reg_dependent: 0 num_mem_ops: 1 event: 11315888
[cpu0_IFETCH] entry: 157 instr_id: 32573315 fetched: 2 scheduled: 0 executed: 0 num_reg_dependent: 0 num_mem_ops: 1 event: 11315888
[cpu0_IFETCH] entry: 158 instr_id: 32573316 fetched: 2 scheduled: 0 executed: 0 num_reg_dependent: 0 num_mem_ops: 0 event: 11315888
[cpu0_IFETCH] entry: 159 instr_id: 32573317 fetched: 2 scheduled: 0 executed: 0 num_reg_dependent: 0 num_mem_ops: 0 event: 11315888
[cpu0_IFETCH] entry: 160 instr_id: 32573318 fetched: 2 scheduled: 0 executed: 0 num_reg_dependent: 0 num_mem_ops: 0 event: 11315889
[cpu0_IFETCH] entry: 161 instr_id: 32573319 fetched: 2 scheduled: 0 executed: 0 num_reg_dependent: 0 num_mem_ops: 0 event: 11318076
[cpu0_IFETCH] entry: 162 instr_id: 32573320 fetched: 2 scheduled: 0 executed: 0 num_reg_dependent: 0 num_mem_ops: 1 event: 11318076
[cpu0_IFETCH] entry: 163 instr_id: 32573321 fetched: 2 scheduled: 0 executed: 0 num_reg_dependent: 0 num_mem_ops: 1 event: 11318076
[cpu0_IFETCH] entry: 164 instr_id: 32573322 fetched: 2 scheduled: 0 executed: 0 num_reg_dependent: 0 num_mem_ops: 1 event: 11318077
[cpu0_IFETCH] entry: 165 instr_id: 32573323 fetched: 2 scheduled: 0 executed: 0 num_reg_dependent: 0 num_mem_ops: 1 event: 11318077
[cpu0_IFETCH] entry: 166 instr_id: 32573324 fetched: 2 scheduled: 0 executed: 0 num_reg_dependent: 0 num_mem_ops: 0 event: 11318077
[cpu0_IFETCH] entry: 167 instr_id: 32573325 fetched: 2 scheduled: 0 executed: 0 num_reg_dependent: 0 num_mem_ops: 0 event: 11318078
[cpu0_IFETCH] entry: 168 instr_id: 32573326 fetched: 2 scheduled: 0 executed: 0 num_reg_dependent: 0 num_mem_ops: 0 event: 11318078
[cpu0_IFETCH] entry: 169 instr_id: 32573327 fetched: 2 scheduled: 0 executed: 0 num_reg_dependent: 0 num_mem_ops: 1 event: 11318078
[cpu0_IFETCH] entry: 170 instr_id: 32573328 fetched: 2 scheduled: 0 executed: 0 num_reg_dependent: 0 num_mem_ops: 1 event: 11318078
[cpu0_IFETCH] entry: 171 instr_id: 32573329 fetched: 2 scheduled: 0 executed: 0 num_reg_dependent: 0 num_mem_ops: 1 event: 11318078
[cpu0_IFETCH] entry: 172 instr_id: 32573330 fetched: 2 scheduled: 0 executed: 0 num_reg_dependent: 0 num_mem_ops: 1 event: 11318078
[cpu0_IFETCH] entry: 173 instr_id: 32573331 fetched: 2 scheduled: 0 executed: 0 num_reg_dependent: 0 num_mem_ops: 0 event: 11318079
[cpu0_IFETCH] entry: 174 instr_id: 32573332 fetched: 2 scheduled: 0 executed: 0 num_reg_dependent: 0 num_mem_ops: 0 event: 11318079
[cpu0_IFETCH] entry: 175 instr_id: 32573333 fetched: 2 scheduled: 0 executed: 0 num_reg_dependent: 0 num_mem_ops: 0 event: 11318079
[cpu0_IFETCH] entry: 176 instr_id: 32573334 fetched: 2 scheduled: 0 executed: 0 num_reg_dependent: 0 num_mem_ops: 1 event: 11318079
[cpu0_IFETCH] entry: 177 instr_id: 32573335 fetched: 2 scheduled: 0 executed: 0 num_reg_dependent: 0 num_mem_ops: 1 event: 11318079
[cpu0_IFETCH] entry: 178 instr_id: 32573336 fetched: 2 scheduled: 0 executed: 0 num_reg_dependent: 0 num_mem_ops: 1 event: 11318079
[cpu0_IFETCH] entry: 179 instr_id: 32573337 fetched: 2 scheduled: 0 executed: 0 num_reg_dependent: 0 num_mem_ops: 0 event: 11318080
[cpu0_IFETCH] entry: 180 instr_id: 32573338 fetched: 2 scheduled: 0 executed: 0 num_reg_dependent: 0 num_mem_ops: 0 event: 11318080
[cpu0_IFETCH] entry: 181 instr_id: 32573339 fetched: 2 scheduled: 0 executed: 0 num_reg_dependent: 0 num_mem_ops: 1 event: 11318080
[cpu0_IFETCH] entry: 182 instr_id: 32573340 fetched: 2 scheduled: 0 executed: 0 num_reg_dependent: 0 num_mem_ops: 0 event: 11318080
[cpu0_IFETCH] entry: 183 instr_id: 32573341 fetched: 2 scheduled: 0 executed: 0 num_reg_dependent: 0 num_mem_ops: 0 event: 11318080
[cpu0_IFETCH] entry: 184 instr_id: 32573342 fetched: 2 scheduled: 0 executed: 0 num_reg_dependent: 0 num_mem_ops: 0 event: 11318080
[cpu0_IFETCH] entry: 185 instr_id: 32573343 fetched: 2 scheduled: 0 executed: 0 num_reg_dependent: 0 num_mem_ops: 1 event: 11318081
[cpu0_IFETCH] entry: 186 instr_id: 32573344 fetched: 2 scheduled: 0 executed: 0 num_reg_dependent: 0 num_mem_ops: 1 event: 11318081
[cpu0_IFETCH] entry: 187 instr_id: 32573345 fetched: 2 scheduled: 0 executed: 0 num_reg_dependent: 0 num_mem_ops: 1 event: 11318081
[cpu0_IFETCH] entry: 188 instr_id: 32573346 fetched: 2 scheduled: 0 executed: 0 num_reg_dependent: 0 num_mem_ops: 1 event: 11318081
[cpu0_IFETCH] entry: 189 instr_id: 32573347 fetched: 2 scheduled: 0 executed: 0 num_reg_dependent: 0 num_mem_ops: 0 event: 11318081
[cpu0_IFETCH] entry: 190 instr_id: 32573348 fetched: 2 scheduled: 0 executed: 0 num_reg_dependent: 0 num_mem_ops: 2 event: 11318081
[cpu0_IFETCH] entry: 191 instr_id: 32573349 fetched: 2 scheduled: 0 executed: 0 num_reg_dependent: 0 num_mem_ops: 0 event: 11318082

[cpu0_DECODE] entry:   0 instr_id: 32573014 fetched: 2 scheduled: 0 executed: 0 num_reg_dependent: 0 num_mem_ops: 1 event: 11315810
[cpu0_DECODE] entry:   1 instr_id: 32573015 fetched: 2 scheduled: 0 executed: 0 num_reg_dependent: 0 num_mem_ops: 1 event: 11315810
[cpu0_DECODE] entry:   2 instr_id: 32573016 fetched: 2 scheduled: 0 executed: 0 num_reg_dependent: 0 num_mem_ops: 0 event: 11315810
[cpu0_DECODE] entry:   3 instr_id: 32573017 fetched: 2 scheduled: 0 executed: 0 num_reg_dependent: 0 num_mem_ops: 0 event: 11315810
[cpu0_DECODE] entry:   4 instr_id: 32573018 fetched: 2 scheduled: 0 executed: 0 num_reg_dependent: 0 num_mem_ops: 0 event: 11315811
[cpu0_DECODE] entry:   5 instr_id: 32573019 fetched: 2 scheduled: 0 executed: 0 num_reg_dependent: 0 num_mem_ops: 1 event: 11315811
[cpu0_DECODE] entry:   6 instr_id: 32573020 fetched: 2 scheduled: 0 executed: 0 num_reg_dependent: 0 num_mem_ops: 1 event: 11315811
[cpu0_DECODE] entry:   7 instr_id: 32573021 fetched: 2 scheduled: 0 executed: 0 num_reg_dependent: 0 num_mem_ops: 1 event: 11315811
[cpu0_DECODE] entry:   8 instr_id: 32573022 fetched: 2 scheduled: 0 executed: 0 num_reg_dependent: 0 num_mem_ops: 0 event: 11315811
[cpu0_DECODE] entry:   9 instr_id: 32573023 fetched: 2 scheduled: 0 executed: 0 num_reg_dependent: 0 num_mem_ops: 0 event: 11315815
[cpu0_DECODE] entry:  10 instr_id: 32573024 fetched: 2 scheduled: 0 executed: 0 num_reg_dependent: 0 num_mem_ops: 1 event: 11315815
[cpu0_DECODE] entry:  11 instr_id: 32573025 fetched: 2 scheduled: 0 executed: 0 num_reg_dependent: 0 num_mem_ops: 0 event: 11315815
[cpu0_DECODE] entry:  12 instr_id: 32573026 fetched: 2 scheduled: 0 executed: 0 num_reg_dependent: 0 num_mem_ops: 0 event: 11315815
[cpu0_DECODE] entry:  13 instr_id: 32573027 fetched: 2 scheduled: 0 executed: 0 num_reg_dependent: 0 num_mem_ops: 0 event: 11315816
[cpu0_DECODE] entry:  14 instr_id: 32573028 fetched: 2 scheduled: 0 executed: 0 num_reg_dependent: 0 num_mem_ops: 1 event: 11315816
[cpu0_DECODE] entry:  15 instr_id: 32573029 fetched: 2 scheduled: 0 executed: 0 num_reg_dependent: 0 num_mem_ops: 1 event: 11315816
[cpu0_DECODE] entry:  16 instr_id: 32573030 fetched: 2 scheduled: 0 executed: 0 num_reg_dependent: 0 num_mem_ops: 1 event: 11315816
[cpu0_DECODE] entry:  17 instr_id: 32573031 fetched: 2 scheduled: 0 executed: 0 num_reg_dependent: 0 num_mem_ops: 1 event: 11315816
[cpu0_DECODE] entry:  18 instr_id: 32573032 fetched: 2 scheduled: 0 executed: 0 num_reg_dependent: 0 num_mem_ops: 0 event: 11315816
[cpu0_DECODE] entry:  19 instr_id: 32573033 fetched: 2 scheduled: 0 executed: 0 num_reg_dependent: 0 num_mem_ops: 2 event: 11315817
[cpu0_DECODE] entry:  20 instr_id: 32573034 fetched: 2 scheduled: 0 executed: 0 num_reg_dependent: 0 num_mem_ops: 0 event: 11315817
[cpu0_DECODE] entry:  21 instr_id: 32573035 fetched: 2 scheduled: 0 executed: 0 num_reg_dependent: 0 num_mem_ops: 1 event: 11315817
[cpu0_DECODE] entry:  22 instr_id: 32573036 fetched: 2 scheduled: 0 executed: 0 num_reg_dependent: 0 num_mem_ops: 0 event: 11315817
[cpu0_DECODE] entry:  23 instr_id: 32573037 fetched: 2 scheduled: 0 executed: 0 num_reg_dependent: 0 num_mem_ops: 1 event: 11315817
[cpu0_DECODE] entry:  24 instr_id: 32573038 fetched: 2 scheduled: 0 executed: 0 num_reg_dependent: 0 num_mem_ops: 0 event: 11315817
[cpu0_DECODE] entry:  25 instr_id: 32573039 fetched: 2 scheduled: 0 executed: 0 num_reg_dependent: 0 num_mem_ops: 1 event: 11315818
[cpu0_DECODE] entry:  26 instr_id: 32573040 fetched: 2 scheduled: 0 executed: 0 num_reg_dependent: 0 num_mem_ops: 0 event: 11315818
[cpu0_DECODE] entry:  27 instr_id: 32573041 fetched: 2 scheduled: 0 executed: 0 num_reg_dependent: 0 num_mem_ops: 1 event: 11315818
[cpu0_DECODE] entry:  28 instr_id: 32573042 fetched: 2 scheduled: 0 executed: 0 num_reg_dependent: 0 num_mem_ops: 0 event: 11315818
[cpu0_DECODE] entry:  29 instr_id: 32573043 fetched: 2 scheduled: 0 executed: 0 num_reg_dependent: 0 num_mem_ops: 0 event: 11315818
[cpu0_DECODE] entry:  30 instr_id: 32573044 fetched: 2 scheduled: 0 executed: 0 num_reg_dependent: 0 num_mem_ops: 0 event: 11315818
[cpu0_DECODE] entry:  31 instr_id: 32573045 fetched: 2 scheduled: 0 executed: 0 num_reg_dependent: 0 num_mem_ops: 0 event: 11315819
[cpu0_DECODE] entry:  32 instr_id: 32573046 fetched: 2 scheduled: 0 executed: 0 num_reg_dependent: 0 num_mem_ops: 1 event: 11315819
[cpu0_DECODE] entry:  33 instr_id: 32573047 fetched: 2 scheduled: 0 executed: 0 num_reg_dependent: 0 num_mem_ops: 0 event: 11315819
[cpu0_DECODE] entry:  34 instr_id: 32573048 fetched: 2 scheduled: 0 executed: 0 num_reg_dependent: 0 num_mem_ops: 0 event: 11315819
[cpu0_DECODE] entry:  35 instr_id: 32573049 fetched: 2 scheduled: 0 executed: 0 num_reg_dependent: 0 num_mem_ops: 1 event: 11315819
[cpu0_DECODE] entry:  36 instr_id: 32573050 fetched: 2 scheduled: 0 executed: 0 num_reg_dependent: 0 num_mem_ops: 0 event: 11315819
[cpu0_DECODE] entry:  37 instr_id: 32573051 fetched: 2 scheduled: 0 executed: 0 num_reg_dependent: 0 num_mem_ops: 1 event: 11315820
[cpu0_DECODE] entry:  38 instr_id: 32573052 fetched: 2 scheduled: 0 executed: 0 num_reg_dependent: 0 num_mem_ops: 0 event: 11315820
[cpu0_DECODE] entry:  39 instr_id: 32573053 fetched: 2 scheduled: 0 executed: 0 num_reg_dependent: 0 num_mem_ops: 1 event: 11315820
[cpu0_DECODE] entry:  40 instr_id: 32573054 fetched: 2 scheduled: 0 executed: 0 num_reg_dependent: 0 num_mem_ops: 0 event: 11315820
[cpu0_DECODE] entry:  41 instr_id: 32573055 fetched: 2 scheduled: 0 executed: 0 num_reg_dependent: 0 num_mem_ops: 1 event: 11315820
[cpu0_DECODE] entry:  42 instr_id: 32573056 fetched: 2 scheduled: 0 executed: 0 num_reg_dependent: 0 num_mem_ops: 1 event: 11315820
[cpu0_DECODE] entry:  43 instr_id: 32573057 fetched: 2 scheduled: 0 executed: 0 num_reg_dependent: 0 num_mem_ops: 0 event: 11315821
[cpu0_DECODE] entry:  44 instr_id: 32573058 fetched: 2 scheduled: 0 executed: 0 num_reg_dependent: 0 num_mem_ops: 1 event: 11315821
[cpu0_DECODE] entry:  45 instr_id: 32573059 fetched: 2 scheduled: 0 executed: 0 num_reg_dependent: 0 num_mem_ops: 1 event: 11315821
[cpu0_DECODE] entry:  46 instr_id: 32573060 fetched: 2 scheduled: 0 executed: 0 num_reg_dependent: 0 num_mem_ops: 1 event: 11315821
[cpu0_DECODE] entry:  47 instr_id: 32573061 fetched: 2 scheduled: 0 executed: 0 num_reg_dependent: 0 num_mem_ops: 1 event: 11315821
[cpu0_DECODE] entry:  48 instr_id: 32573062 fetched: 2 scheduled: 0 executed: 0 num_reg_dependent: 0 num_mem_ops: 1 event: 11315821
[cpu0_DECODE] entry:  49 instr_id: 32573063 fetched: 2 scheduled: 0 executed: 0 num_reg_dependent: 0 num_mem_ops: 1 event: 11315822
[cpu0_DECODE] entry:  50 instr_id: 32573064 fetched: 2 scheduled: 0 executed: 0 num_reg_dependent: 0 num_mem_ops: 0 event: 11315822
[cpu0_DECODE] entry:  51 instr_id: 32573065 fetched: 2 scheduled: 0 executed: 0 num_reg_dependent: 0 num_mem_ops: 0 event: 11315822
[cpu0_DECODE] entry:  52 instr_id: 32573066 fetched: 2 scheduled: 0 executed: 0 num_reg_dependent: 0 num_mem_ops: 0 event: 11315822
[cpu0_DECODE] entry:  53 instr_id: 32573067 fetched: 2 scheduled: 0 executed: 0 num_reg_dependent: 0 num_mem_ops: 0 event: 11315822
[cpu0_DECODE] entry:  54 instr_id: 32573068 fetched: 2 scheduled: 0 executed: 0 num_reg_dependent: 0 num_mem_ops: 1 event: 11315822
[cpu0_DECODE] entry:  55 instr_id: 32573069 fetched: 2 scheduled: 0 executed: 0 num_reg_dependent: 0 num_mem_ops: 1 event: 11315823
[cpu0_DECODE] entry:  56 instr_id: 32573070 fetched: 2 scheduled: 0 executed: 0 num_reg_dependent: 0 num_mem_ops: 1 event: 11315823
[cpu0_DECODE] entry:  57 instr_id: 32573071 fetched: 2 scheduled: 0 executed: 0 num_reg_dependent: 0 num_mem_ops: 1 event: 11315823
[cpu0_DECODE] entry:  58 instr_id: 32573072 fetched: 2 scheduled: 0 executed: 0 num_reg_dependent: 0 num_mem_ops: 0 event: 11315823
[cpu0_DECODE] entry:  59 instr_id: 32573073 fetched: 2 scheduled: 0 executed: 0 num_reg_dependent: 0 num_mem_ops: 0 event: 11315823
[cpu0_DECODE] entry:  60 instr_id: 32573074 fetched: 2 scheduled: 0 executed: 0 num_reg_dependent: 0 num_mem_ops: 0 event: 11315823
[cpu0_DECODE] entry:  61 instr_id: 32573075 fetched: 2 scheduled: 0 executed: 0 num_reg_dependent: 0 num_mem_ops: 1 event: 11315824
[cpu0_DECODE] entry:  62 instr_id: 32573076 fetched: 2 scheduled: 0 executed: 0 num_reg_dependent: 0 num_mem_ops: 1 event: 11315824
[cpu0_DECODE] entry:  63 instr_id: 32573077 fetched: 2 scheduled: 0 executed: 0 num_reg_dependent: 0 num_mem_ops: 1 event: 11315824
[cpu0_DECODE] entry:  64 instr_id: 32573078 fetched: 2 scheduled: 0 executed: 0 num_reg_dependent: 0 num_mem_ops: 1 event: 11315824
[cpu0_DECODE] entry:  65 instr_id: 32573079 fetched: 2 scheduled: 0 executed: 0 num_reg_dependent: 0 num_mem_ops: 0 event: 11315824
[cpu0_DECODE] entry:  66 instr_id: 32573080 fetched: 2 scheduled: 0 executed: 0 num_reg_dependent: 0 num_mem_ops: 0 event: 11315824
[cpu0_DECODE] entry:  67 instr_id: 32573081 fetched: 2 scheduled: 0 executed: 0 num_reg_dependent: 0 num_mem_ops: 0 event: 11315825
[cpu0_DECODE] entry:  68 instr_id: 32573082 fetched: 2 scheduled: 0 executed: 0 num_reg_dependent: 0 num_mem_ops: 1 event: 11315825
[cpu0_DECODE] entry:  69 instr_id: 32573083 fetched: 2 scheduled: 0 executed: 0 num_reg_dependent: 0 num_mem_ops: 1 event: 11315825
[cpu0_DECODE] entry:  70 instr_id: 32573084 fetched: 2 scheduled: 0 executed: 0 num_reg_dependent: 0 num_mem_ops: 1 event: 11315825
[cpu0_DECODE] entry:  71 instr_id: 32573085 fetched: 2 scheduled: 0 executed: 0 num_reg_dependent: 0 num_mem_ops: 0 event: 11315825
[cpu0_DECODE] entry:  72 instr_id: 32573086 fetched: 2 scheduled: 0 executed: 0 num_reg_dependent: 0 num_mem_ops: 0 event: 11315881
[cpu0_DECODE] entry:  73 instr_id: 32573087 fetched: 2 scheduled: 0 executed: 0 num_reg_dependent: 0 num_mem_ops: 1 event: 11315881
[cpu0_DECODE] entry:  74 instr_id: 32573088 fetched: 2 scheduled: 0 executed: 0 num_reg_dependent: 0 num_mem_ops: 0 event: 11315881
[cpu0_DECODE] entry:  75 instr_id: 32573089 fetched: 2 scheduled: 0 executed: 0 num_reg_dependent: 0 num_mem_ops: 0 event: 11315881
[cpu0_DECODE] entry:  76 instr_id: 32573090 fetched: 2 scheduled: 0 executed: 0 num_reg_dependent: 0 num_mem_ops: 0 event: 11315882
[cpu0_DECODE] entry:  77 instr_id: 32573091 fetched: 2 scheduled: 0 executed: 0 num_reg_dependent: 0 num_mem_ops: 1 event: 11315882
[cpu0_DECODE] entry:  78 instr_id: 32573092 fetched: 2 scheduled: 0 executed: 0 num_reg_dependent: 0 num_mem_ops: 1 event: 11315882
[cpu0_DECODE] entry:  79 instr_id: 32573093 fetched: 2 scheduled: 0 executed: 0 num_reg_dependent: 0 num_mem_ops: 1 event: 11315882
[cpu0_DECODE] entry:  80 instr_id: 32573094 fetched: 2 scheduled: 0 executed: 0 num_reg_dependent: 0 num_mem_ops: 1 event: 11315882
[cpu0_DECODE] entry:  81 instr_id: 32573095 fetched: 2 scheduled: 0 executed: 0 num_reg_dependent: 0 num_mem_ops: 0 event: 11315882
[cpu0_DECODE] entry:  82 instr_id: 32573096 fetched: 2 scheduled: 0 executed: 0 num_reg_dependent: 0 num_mem_ops: 2 event: 11315883
[cpu0_DECODE] entry:  83 instr_id: 32573097 fetched: 2 scheduled: 0 executed: 0 num_reg_dependent: 0 num_mem_ops: 0 event: 11315883
[cpu0_DECODE] entry:  84 instr_id: 32573098 fetched: 2 scheduled: 0 executed: 0 num_reg_dependent: 0 num_mem_ops: 1 event: 11315883
[cpu0_DECODE] entry:  85 instr_id: 32573099 fetched: 2 scheduled: 0 executed: 0 num_reg_dependent: 0 num_mem_ops: 0 event: 11315883
[cpu0_DECODE] entry:  86 instr_id: 32573100 fetched: 2 scheduled: 0 executed: 0 num_reg_dependent: 0 num_mem_ops: 1 event: 11315883
[cpu0_DECODE] entry:  87 instr_id: 32573101 fetched: 2 scheduled: 0 executed: 0 num_reg_dependent: 0 num_mem_ops: 0 event: 11315883
[cpu0_DECODE] entry:  88 instr_id: 32573102 fetched: 2 scheduled: 0 executed: 0 num_reg_dependent: 0 num_mem_ops: 1 event: 11315884
[cpu0_DECODE] entry:  89 instr_id: 32573103 fetched: 2 scheduled: 0 executed: 0 num_reg_dependent: 0 num_mem_ops: 0 event: 11315884
[cpu0_DECODE] entry:  90 instr_id: 32573104 fetched: 2 scheduled: 0 executed: 0 num_reg_dependent: 0 num_mem_ops: 1 event: 11315884
[cpu0_DECODE] entry:  91 instr_id: 32573105 fetched: 2 scheduled: 0 executed: 0 num_reg_dependent: 0 num_mem_ops: 0 event: 11315884
[cpu0_DECODE] entry:  92 instr_id: 32573106 fetched: 2 scheduled: 0 executed: 0 num_reg_dependent: 0 num_mem_ops: 0 event: 11315884
[cpu0_DECODE] entry:  93 instr_id: 32573107 fetched: 2 scheduled: 0 executed: 0 num_reg_dependent: 0 num_mem_ops: 0 event: 11315884
[cpu0_DECODE] entry:  94 instr_id: 32573108 fetched: 2 scheduled: 0 executed: 0 num_reg_dependent: 0 num_mem_ops: 0 event: 11315885
[cpu0_DECODE] entry:  95 instr_id: 32573109 fetched: 2 scheduled: 0 executed: 0 num_reg_dependent: 0 num_mem_ops: 1 event: 11315885
[cpu0_DECODE] entry:  96 instr_id: 32573110 fetched: 2 scheduled: 0 executed: 0 num_reg_dependent: 0 num_mem_ops: 0 event: 11315885
[cpu0_DECODE] entry:  97 instr_id: 32573111 fetched: 2 scheduled: 0 executed: 0 num_reg_dependent: 0 num_mem_ops: 0 event: 11315885
[cpu0_DECODE] entry:  98 instr_id: 32573112 fetched: 2 scheduled: 0 executed: 0 num_reg_dependent: 0 num_mem_ops: 1 event: 11315885
[cpu0_DECODE] entry:  99 instr_id: 32573113 fetched: 2 scheduled: 0 executed: 0 num_reg_dependent: 0 num_mem_ops: 0 event: 11315885
[cpu0_DECODE] entry: 100 instr_id: 32573114 fetched: 2 scheduled: 0 executed: 0 num_reg_dependent: 0 num_mem_ops: 1 event: 11315886
[cpu0_DECODE] entry: 101 instr_id: 32573115 fetched: 2 scheduled: 0 executed: 0 num_reg_dependent: 0 num_mem_ops: 0 event: 11315886
[cpu0_DECODE] entry: 102 instr_id: 32573116 fetched: 2 scheduled: 0 executed: 0 num_reg_dependent: 0 num_mem_ops: 1 event: 11315886
[cpu0_DECODE] entry: 103 instr_id: 32573117 fetched: 2 scheduled: 0 executed: 0 num_reg_dependent: 0 num_mem_ops: 0 event: 11315886
[cpu0_DECODE] entry: 104 instr_id: 32573118 fetched: 2 scheduled: 0 executed: 0 num_reg_dependent: 0 num_mem_ops: 1 event: 11315886
[cpu0_DECODE] entry: 105 instr_id: 32573119 fetched: 2 scheduled: 0 executed: 0 num_reg_dependent: 0 num_mem_ops: 1 event: 11315886
[cpu0_DECODE] entry: 106 instr_id: 32573120 fetched: 2 scheduled: 0 executed: 0 num_reg_dependent: 0 num_mem_ops: 0 event: 11315887
[cpu0_DECODE] entry: 107 instr_id: 32573121 fetched: 2 scheduled: 0 executed: 0 num_reg_dependent: 0 num_mem_ops: 1 event: 11315887
[cpu0_DECODE] entry: 108 instr_id: 32573122 fetched: 2 scheduled: 0 executed: 0 num_reg_dependent: 0 num_mem_ops: 1 event: 11315887
[cpu0_DECODE] entry: 109 instr_id: 32573123 fetched: 2 scheduled: 0 executed: 0 num_reg_dependent: 0 num_mem_ops: 1 event: 11315887
[cpu0_DECODE] entry: 110 instr_id: 32573124 fetched: 2 scheduled: 0 executed: 0 num_reg_dependent: 0 num_mem_ops: 1 event: 11315887
[cpu0_DECODE] entry: 111 instr_id: 32573125 fetched: 2 scheduled: 0 executed: 0 num_reg_dependent: 0 num_mem_ops: 1 event: 11315887
[cpu0_DECODE] entry: 112 instr_id: 32573126 fetched: 2 scheduled: 0 executed: 0 num_reg_dependent: 0 num_mem_ops: 1 event: 11315888
[cpu0_DECODE] entry: 113 instr_id: 32573127 fetched: 2 scheduled: 0 executed: 0 num_reg_dependent: 0 num_mem_ops: 0 event: 11318075
[cpu0_DECODE] entry: 114 instr_id: 32573128 fetched: 2 scheduled: 0 executed: 0 num_reg_dependent: 0 num_mem_ops: 0 event: 11318075
[cpu0_DECODE] entry: 115 instr_id: 32573129 fetched: 2 scheduled: 0 executed: 0 num_reg_dependent: 0 num_mem_ops: 0 event: 11318075
[cpu0_DECODE] entry: 116 instr_id: 32573130 fetched: 2 scheduled: 0 executed: 0 num_reg_dependent: 0 num_mem_ops: 0 event: 11318076
[cpu0_DECODE] entry: 117 instr_id: 32573131 fetched: 2 scheduled: 0 executed: 0 num_reg_dependent: 0 num_mem_ops: 1 event: 11318076
[cpu0_DECODE] entry: 118 instr_id: 32573132 fetched: 2 scheduled: 0 executed: 0 num_reg_dependent: 0 num_mem_ops: 1 event: 11318076
[cpu0_DECODE] entry: 119 instr_id: 32573133 fetched: 2 scheduled: 0 executed: 0 num_reg_dependent: 0 num_mem_ops: 1 event: 11318077
[cpu0_DECODE] entry: 120 instr_id: 32573134 fetched: 2 scheduled: 0 executed: 0 num_reg_dependent: 0 num_mem_ops: 1 event: 11318077
[cpu0_DECODE] entry: 121 instr_id: 32573135 fetched: 2 scheduled: 0 executed: 0 num_reg_dependent: 0 num_mem_ops: 0 event: 11318077
[cpu0_DECODE] entry: 122 instr_id: 32573136 fetched: 2 scheduled: 0 executed: 0 num_reg_dependent: 0 num_mem_ops: 0 event: 11318077
[cpu0_DECODE] entry: 123 instr_id: 32573137 fetched: 2 scheduled: 0 executed: 0 num_reg_dependent: 0 num_mem_ops: 0 event: 11318077
[cpu0_DECODE] entry: 124 instr_id: 32573138 fetched: 2 scheduled: 0 executed: 0 num_reg_dependent: 0 num_mem_ops: 1 event: 11318077
[cpu0_DECODE] entry: 125 instr_id: 32573139 fetched: 2 scheduled: 0 executed: 0 num_reg_dependent: 0 num_mem_ops: 1 event: 11318078
[cpu0_DECODE] entry: 126 instr_id: 32573140 fetched: 2 scheduled: 0 executed: 0 num_reg_dependent: 0 num_mem_ops: 1 event: 11318078
[cpu0_DECODE] entry: 127 instr_id: 32573141 fetched: 2 scheduled: 0 executed: 0 num_reg_dependent: 0 num_mem_ops: 1 event: 11318078
[cpu0_DECODE] entry: 128 instr_id: 32573142 fetched: 2 scheduled: 0 executed: 0 num_reg_dependent: 0 num_mem_ops: 0 event: 11318078
[cpu0_DECODE] entry: 129 instr_id: 32573143 fetched: 2 scheduled: 0 executed: 0 num_reg_dependent: 0 num_mem_ops: 0 event: 11318078
[cpu0_DECODE] entry: 130 instr_id: 32573144 fetched: 2 scheduled: 0 executed: 0 num_reg_dependent: 0 num_mem_ops: 0 event: 11318078
[cpu0_DECODE] entry: 131 instr_id: 32573145 fetched: 2 scheduled: 0 executed: 0 num_reg_dependent: 0 num_mem_ops: 1 event: 11318079
[cpu0_DECODE] entry: 132 instr_id: 32573146 fetched: 2 scheduled: 0 executed: 0 num_reg_dependent: 0 num_mem_ops: 1 event: 11318079
[cpu0_DECODE] entry: 133 instr_id: 32573147 fetched: 2 scheduled: 0 executed: 0 num_reg_dependent: 0 num_mem_ops: 1 event: 11318079
[cpu0_DECODE] entry: 134 instr_id: 32573148 fetched: 2 scheduled: 0 executed: 0 num_reg_dependent: 0 num_mem_ops: 0 event: 11318079
[cpu0_DECODE] entry: 135 instr_id: 32573149 fetched: 2 scheduled: 0 executed: 0 num_reg_dependent: 0 num_mem_ops: 0 event: 11318079
[cpu0_DECODE] entry: 136 instr_id: 32573150 fetched: 2 scheduled: 0 executed: 0 num_reg_dependent: 0 num_mem_ops: 1 event: 11318079
[cpu0_DECODE] entry: 137 instr_id: 32573151 fetched: 2 scheduled: 0 executed: 0 num_reg_dependent: 0 num_mem_ops: 0 event: 11318080
[cpu0_DECODE] entry: 138 instr_id: 32573152 fetched: 2 scheduled: 0 executed: 0 num_reg_dependent: 0 num_mem_ops: 0 event: 11318080
[cpu0_DECODE] entry: 139 instr_id: 32573153 fetched: 2 scheduled: 0 executed: 0 num_reg_dependent: 0 num_mem_ops: 0 event: 11318080
[cpu0_DECODE] entry: 140 instr_id: 32573154 fetched: 2 scheduled: 0 executed: 0 num_reg_dependent: 0 num_mem_ops: 1 event: 11318080
[cpu0_DECODE] entry: 141 instr_id: 32573155 fetched: 2 scheduled: 0 executed: 0 num_reg_dependent: 0 num_mem_ops: 1 event: 11318080
[cpu0_DECODE] entry: 142 instr_id: 32573156 fetched: 2 scheduled: 0 executed: 0 num_reg_dependent: 0 num_mem_ops: 1 event: 11318080
[cpu0_DECODE] entry: 143 instr_id: 32573157 fetched: 2 scheduled: 0 executed: 0 num_reg_dependent: 0 num_mem_ops: 1 event: 11318081

[cpu0_DISPATCH] entry:   0 instr_id: 32572982 fetched: 2 scheduled: 0 executed: 0 num_reg_dependent: 0 num_mem_ops: 0 event: 11315889
[cpu0_DISPATCH] entry:   1 instr_id: 32572983 fetched: 2 scheduled: 0 executed: 0 num_reg_dependent: 0 num_mem_ops: 1 event: 11318076
[cpu0_DISPATCH] entry:   2 instr_id: 32572984 fetched: 2 scheduled: 0 executed: 0 num_reg_dependent: 0 num_mem_ops: 0 event: 11318076
[cpu0_DISPATCH] entry:   3 instr_id: 32572985 fetched: 2 scheduled: 0 executed: 0 num_reg_dependent: 0 num_mem_ops: 0 event: 11318076
[cpu0_DISPATCH] entry:   4 instr_id: 32572986 fetched: 2 scheduled: 0 executed: 0 num_reg_dependent: 0 num_mem_ops: 1 event: 11318077
[cpu0_DISPATCH] entry:   5 instr_id: 32572987 fetched: 2 scheduled: 0 executed: 0 num_reg_dependent: 0 num_mem_ops: 0 event: 11318077
[cpu0_DISPATCH] entry:   6 instr_id: 32572988 fetched: 2 scheduled: 0 executed: 0 num_reg_dependent: 0 num_mem_ops: 1 event: 11318077
[cpu0_DISPATCH] entry:   7 instr_id: 32572989 fetched: 2 scheduled: 0 executed: 0 num_reg_dependent: 0 num_mem_ops: 0 event: 11318078
[cpu0_DISPATCH] entry:   8 instr_id: 32572990 fetched: 2 scheduled: 0 executed: 0 num_reg_dependent: 0 num_mem_ops: 1 event: 11318078
[cpu0_DISPATCH] entry:   9 instr_id: 32572991 fetched: 2 scheduled: 0 executed: 0 num_reg_dependent: 0 num_mem_ops: 0 event: 11318078
[cpu0_DISPATCH] entry:  10 instr_id: 32572992 fetched: 2 scheduled: 0 executed: 0 num_reg_dependent: 0 num_mem_ops: 1 event: 11318078
[cpu0_DISPATCH] entry:  11 instr_id: 32572993 fetched: 2 scheduled: 0 executed: 0 num_reg_dependent: 0 num_mem_ops: 1 event: 11318078
[cpu0_DISPATCH] entry:  12 instr_id: 32572994 fetched: 2 scheduled: 0 executed: 0 num_reg_dependent: 0 num_mem_ops: 0 event: 11318078
[cpu0_DISPATCH] entry:  13 instr_id: 32572995 fetched: 2 scheduled: 0 executed: 0 num_reg_dependent: 0 num_mem_ops: 1 event: 11318079
[cpu0_DISPATCH] entry:  14 instr_id: 32572996 fetched: 2 scheduled: 0 executed: 0 num_reg_dependent: 0 num_mem_ops: 1 event: 11318079
[cpu0_DISPATCH] entry:  15 instr_id: 32572997 fetched: 2 scheduled: 0 executed: 0 num_reg_dependent: 0 num_mem_ops: 1 event: 11318079
[cpu0_DISPATCH] entry:  16 instr_id: 32572998 fetched: 2 scheduled: 0 executed: 0 num_reg_dependent: 0 num_mem_ops: 1 event: 11318079
[cpu0_DISPATCH] entry:  17 instr_id: 32572999 fetched: 2 scheduled: 0 executed: 0 num_reg_dependent: 0 num_mem_ops: 1 event: 11318079
[cpu0_DISPATCH] entry:  18 instr_id: 32573000 fetched: 2 scheduled: 0 executed: 0 num_reg_dependent: 0 num_mem_ops: 1 event: 11318079
[cpu0_DISPATCH] entry:  19 instr_id: 32573001 fetched: 2 scheduled: 0 executed: 0 num_reg_dependent: 0 num_mem_ops: 0 event: 11318080
[cpu0_DISPATCH] entry:  20 instr_id: 32573002 fetched: 2 scheduled: 0 executed: 0 num_reg_dependent: 0 num_mem_ops: 0 event: 11318080
[cpu0_DISPATCH] entry:  21 instr_id: 32573003 fetched: 2 scheduled: 0 executed: 0 num_reg_dependent: 0 num_mem_ops: 0 event: 11318080
[cpu0_DISPATCH] entry:  22 instr_id: 32573004 fetched: 2 scheduled: 0 executed: 0 num_reg_dependent: 0 num_mem_ops: 0 event: 11318080
[cpu0_DISPATCH] entry:  23 instr_id: 32573005 fetched: 2 scheduled: 0 executed: 0 num_reg_dependent: 0 num_mem_ops: 1 event: 11318080
[cpu0_DISPATCH] entry:  24 instr_id: 32573006 fetched: 2 scheduled: 0 executed: 0 num_reg_dependent: 0 num_mem_ops: 1 event: 11318080
[cpu0_DISPATCH] entry:  25 instr_id: 32573007 fetched: 2 scheduled: 0 executed: 0 num_reg_dependent: 0 num_mem_ops: 1 event: 11318081
[cpu0_DISPATCH] entry:  26 instr_id: 32573008 fetched: 2 scheduled: 0 executed: 0 num_reg_dependent: 0 num_mem_ops: 1 event: 11318081
[cpu0_DISPATCH] entry:  27 instr_id: 32573009 fetched: 2 scheduled: 0 executed: 0 num_reg_dependent: 0 num_mem_ops: 0 event: 11318081
[cpu0_DISPATCH] entry:  28 instr_id: 32573010 fetched: 2 scheduled: 0 executed: 0 num_reg_dependent: 0 num_mem_ops: 0 event: 11318081
[cpu0_DISPATCH] entry:  29 instr_id: 32573011 fetched: 2 scheduled: 0 executed: 0 num_reg_dependent: 0 num_mem_ops: 0 event: 11318081
[cpu0_DISPATCH] entry:  30 instr_id: 32573012 fetched: 2 scheduled: 0 executed: 0 num_reg_dependent: 0 num_mem_ops: 1 event: 11318081
[cpu0_DISPATCH] entry:  31 instr_id: 32573013 fetched: 2 scheduled: 0 executed: 0 num_reg_dependent: 0 num_mem_ops: 1 event: 11318082

[cpu0_ROB] entry:   0 instr_id: 32572470 fetched: 2 scheduled: 2 executed: 1 num_reg_dependent: 0 num_mem_ops: 1 event: 11315708
[cpu0_ROB] entry:   1 instr_id: 32572471 fetched: 2 scheduled: 2 executed: 2 num_reg_dependent: 0 num_mem_ops: 0 event: 11316678
[cpu0_ROB] entry:   2 instr_id: 32572472 fetched: 2 scheduled: 2 executed: 1 num_reg_dependent: 0 num_mem_ops: 1 event: 11315708
[cpu0_ROB] entry:   3 instr_id: 32572473 fetched: 2 scheduled: 2 executed: 2 num_reg_dependent: 0 num_mem_ops: 0 event: 11315709
[cpu0_ROB] entry:   4 instr_id: 32572474 fetched: 2 scheduled: 2 executed: 1 num_reg_dependent: 0 num_mem_ops: 1 event: 11315709
[cpu0_ROB] entry:   5 instr_id: 32572475 fetched: 2 scheduled: 2 executed: 2 num_reg_dependent: 0 num_mem_ops: 0 event: 11318076
[cpu0_ROB] entry:   6 instr_id: 32572476 fetched: 2 scheduled: 2 executed: 2 num_reg_dependent: 0 num_mem_ops: 0 event: 11316679
[cpu0_ROB] entry:   7 instr_id: 32572477 fetched: 2 scheduled: 2 executed: 0 num_reg_dependent: 1 num_mem_ops: 0 event: 11315708
[cpu0_ROB] entry:   8 instr_id: 32572478 fetched: 2 scheduled: 2 executed: 0 num_reg_dependent: 1 num_mem_ops: 0 event: 11315708
[cpu0_ROB] entry:   9 instr_id: 32572479 fetched: 2 scheduled: 2 executed: 1 num_reg_dependent: 0 num_mem_ops: 1 event: 11315710
[cpu0_ROB] entry:  10 instr_id: 32572480 fetched: 2 scheduled: 2 executed: 0 num_reg_dependent: 1 num_mem_ops: 0 event: 11315709
[cpu0_ROB] entry:  11 instr_id: 32572481 fetched: 2 scheduled: 2 executed: 0 num_reg_dependent: 1 num_mem_ops: 0 event: 11315709
[cpu0_ROB] entry:  12 instr_id: 32572482 fetched: 2 scheduled: 2 executed: 1 num_reg_dependent: 0 num_mem_ops: 1 event: 11315710
[cpu0_ROB] entry:  13 instr_id: 32572483 fetched: 2 scheduled: 2 executed: 0 num_reg_dependent: 1 num_mem_ops: 0 event: 11315709
[cpu0_ROB] entry:  14 instr_id: 32572484 fetched: 2 scheduled: 2 executed: 1 num_reg_dependent: 0 num_mem_ops: 1 event: 11315710
[cpu0_ROB] entry:  15 instr_id: 32572485 fetched: 2 scheduled: 2 executed: 0 num_reg_dependent: 1 num_mem_ops: 0 event: 11315710
[cpu0_ROB] entry:  16 instr_id: 32572486 fetched: 2 scheduled: 2 executed: 2 num_reg_dependent: 0 num_mem_ops: 0 event: 11318077
[cpu0_ROB] entry:  17 instr_id: 32572487 fetched: 2 scheduled: 2 executed: 0 num_reg_dependent: 1 num_mem_ops: 0 event: 11315710
[cpu0_ROB] entry:  18 instr_id: 32572488 fetched: 2 scheduled: 2 executed: 1 num_reg_dependent: 0 num_mem_ops: 1 event: 11315711
[cpu0_ROB] entry:  19 instr_id: 32572489 fetched: 2 scheduled: 2 executed: 0 num_reg_dependent: 2 num_mem_ops: 0 event: 11315710
[cpu0_ROB] entry:  20 instr_id: 32572490 fetched: 2 scheduled: 2 executed: 0 num_reg_dependent: 1 num_mem_ops: 0 event: 11315710
[cpu0_ROB] entry:  21 instr_id: 32572491 fetched: 2 scheduled: 2 executed: 1 num_reg_dependent: 0 num_mem_ops: 1 event: 11315712
[cpu0_ROB] entry:  22 instr_id: 32572492 fetched: 2 scheduled: 2 executed: 0 num_reg_dependent: 2 num_mem_ops: 0 event: 11315711
[cpu0_ROB] entry:  23 instr_id: 32572493 fetched: 2 scheduled: 2 executed: 0 num_reg_dependent: 1 num_mem_ops: 0 event: 11315711
[cpu0_ROB] entry:  24 instr_id: 32572494 fetched: 2 scheduled: 2 executed: 1 num_reg_dependent: 0 num_mem_ops: 1 event: 11315712
[cpu0_ROB] entry:  25 instr_id: 32572495 fetched: 2 scheduled: 2 executed: 1 num_reg_dependent: 0 num_mem_ops: 1 event: 11315712
[cpu0_ROB] entry:  26 instr_id: 32572496 fetched: 2 scheduled: 2 executed: 1 num_reg_dependent: 0 num_mem_ops: 1 event: 11315712
[cpu0_ROB] entry:  27 instr_id: 32572497 fetched: 2 scheduled: 2 executed: 0 num_reg_dependent: 1 num_mem_ops: 0 event: 11315712
[cpu0_ROB] entry:  28 instr_id: 32572498 fetched: 2 scheduled: 2 executed: 0 num_reg_dependent: 1 num_mem_ops: 0 event: 11315712
[cpu0_ROB] entry:  29 instr_id: 32572499 fetched: 2 scheduled: 2 executed: 0 num_reg_dependent: 2 num_mem_ops: 0 event: 11315712
[cpu0_ROB] entry:  30 instr_id: 32572500 fetched: 2 scheduled: 2 executed: 0 num_reg_dependent: 2 num_mem_ops: 0 event: 11315712
[cpu0_ROB] entry:  31 instr_id: 32572501 fetched: 2 scheduled: 2 executed: 0 num_reg_dependent: 2 num_mem_ops: 0 event: 11315712
[cpu0_ROB] entry:  32 instr_id: 32572502 fetched: 2 scheduled: 2 executed: 1 num_reg_dependent: 0 num_mem_ops: 1 event: 11315713
[cpu0_ROB] entry:  33 instr_id: 32572503 fetched: 2 scheduled: 2 executed: 0 num_reg_dependent: 1 num_mem_ops: 0 event: 11315713
[cpu0_ROB] entry:  34 instr_id: 32572504 fetched: 2 scheduled: 2 executed: 1 num_reg_dependent: 0 num_mem_ops: 1 event: 11315714
[cpu0_ROB] entry:  35 instr_id: 32572505 fetched: 2 scheduled: 2 executed: 0 num_reg_dependent: 2 num_mem_ops: 0 event: 11315713
[cpu0_ROB] entry:  36 instr_id: 32572506 fetched: 2 scheduled: 2 executed: 0 num_reg_dependent: 2 num_mem_ops: 0 event: 11315713
[cpu0_ROB] entry:  37 instr_id: 32572507 fetched: 2 scheduled: 2 executed: 0 num_reg_dependent: 2 num_mem_ops: 0 event: 11315713
[cpu0_ROB] entry:  38 instr_id: 32572508 fetched: 2 scheduled: 2 executed: 0 num_reg_dependent: 2 num_mem_ops: 0 event: 11315713
[cpu0_ROB] entry:  39 instr_id: 32572509 fetched: 2 scheduled: 2 executed: 1 num_reg_dependent: 0 num_mem_ops: 1 event: 11315715
[cpu0_ROB] entry:  40 instr_id: 32572510 fetched: 2 scheduled: 2 executed: 0 num_reg_dependent: 1 num_mem_ops: 0 event: 11315714
[cpu0_ROB] entry:  41 instr_id: 32572511 fetched: 2 scheduled: 2 executed: 1 num_reg_dependent: 0 num_mem_ops: 1 event: 11315715
[cpu0_ROB] entry:  42 instr_id: 32572512 fetched: 2 scheduled: 2 executed: 0 num_reg_dependent: 2 num_mem_ops: 0 event: 11315714
[cpu0_ROB] entry:  43 instr_id: 32572513 fetched: 2 scheduled: 2 executed: 0 num_reg_dependent: 2 num_mem_ops: 0 event: 11315714
[cpu0_ROB] entry:  44 instr_id: 32572514 fetched: 2 scheduled: 2 executed: 0 num_reg_dependent: 1 num_mem_ops: 0 event: 11315714
[cpu0_ROB] entry:  45 instr_id: 32572515 fetched: 2 scheduled: 2 executed: 0 num_reg_dependent: 2 num_mem_ops: 0 event: 11315715
[cpu0_ROB] entry:  46 instr_id: 32572516 fetched: 2 scheduled: 2 executed: 1 num_reg_dependent: 0 num_mem_ops: 1 event: 11315716
[cpu0_ROB] entry:  47 instr_id: 32572517 fetched: 2 scheduled: 2 executed: 0 num_reg_dependent: 1 num_mem_ops: 0 event: 11315715
[cpu0_ROB] entry:  48 instr_id: 32572518 fetched: 2 scheduled: 2 executed: 0 num_reg_dependent: 2 num_mem_ops: 0 event: 11315715
[cpu0_ROB] entry:  49 instr_id: 32572519 fetched: 2 scheduled: 2 executed: 0 num_reg_dependent: 2 num_mem_ops: 0 event: 11315715
[cpu0_ROB] entry:  50 instr_id: 32572520 fetched: 2 scheduled: 2 executed: 0 num_reg_dependent: 2 num_mem_ops: 0 event: 11315715
[cpu0_ROB] entry:  51 instr_id: 32572521 fetched: 2 scheduled: 2 executed: 2 num_reg_dependent: 0 num_mem_ops: 0 event: 11315717
[cpu0_ROB] entry:  52 instr_id: 32572522 fetched: 2 scheduled: 2 executed: 2 num_reg_dependent: 0 num_mem_ops: 0 event: 11315718
[cpu0_ROB] entry:  53 instr_id: 32572523 fetched: 2 scheduled: 2 executed: 2 num_reg_dependent: 0 num_mem_ops: 0 event: 11315719
[cpu0_ROB] entry:  54 instr_id: 32572524 fetched: 2 scheduled: 2 executed: 1 num_reg_dependent: 0 num_mem_ops: 1 event: 11315718
[cpu0_ROB] entry:  55 instr_id: 32572525 fetched: 2 scheduled: 2 executed: 1 num_reg_dependent: 0 num_mem_ops: 1 event: 11315718
[cpu0_ROB] entry:  56 instr_id: 32572526 fetched: 2 scheduled: 2 executed: 1 num_reg_dependent: 0 num_mem_ops: 1 event: 11315718
[cpu0_ROB] entry:  57 instr_id: 32572527 fetched: 2 scheduled: 2 executed: 1 num_reg_dependent: 0 num_mem_ops: 1 event: 11315718
[cpu0_ROB] entry:  58 instr_id: 32572528 fetched: 2 scheduled: 2 executed: 0 num_reg_dependent: 1 num_mem_ops: 0 event: 11315717
[cpu0_ROB] entry:  59 instr_id: 32572529 fetched: 2 scheduled: 2 executed: 1 num_reg_dependent: 0 num_mem_ops: 2 event: 11315718
[cpu0_ROB] entry:  60 instr_id: 32572530 fetched: 2 scheduled: 2 executed: 0 num_reg_dependent: 1 num_mem_ops: 0 event: 11315717
[cpu0_ROB] entry:  61 instr_id: 32572531 fetched: 2 scheduled: 2 executed: 1 num_reg_dependent: 0 num_mem_ops: 1 event: 11315718
[cpu0_ROB] entry:  62 instr_id: 32572532 fetched: 2 scheduled: 2 executed: 0 num_reg_dependent: 1 num_mem_ops: 0 event: 11315762
[cpu0_ROB] entry:  63 instr_id: 32572533 fetched: 2 scheduled: 2 executed: 1 num_reg_dependent: 0 num_mem_ops: 1 event: 11315763
[cpu0_ROB] entry:  64 instr_id: 32572534 fetched: 2 scheduled: 2 executed: 0 num_reg_dependent: 1 num_mem_ops: 0 event: 11315762
[cpu0_ROB] entry:  65 instr_id: 32572535 fetched: 2 scheduled: 2 executed: 1 num_reg_dependent: 0 num_mem_ops: 1 event: 11315763
[cpu0_ROB] entry:  66 instr_id: 32572536 fetched: 2 scheduled: 2 executed: 0 num_reg_dependent: 1 num_mem_ops: 0 event: 11315763
[cpu0_ROB] entry:  67 instr_id: 32572537 fetched: 2 scheduled: 2 executed: 1 num_reg_dependent: 0 num_mem_ops: 1 event: 11315764
[cpu0_ROB] entry:  68 instr_id: 32572538 fetched: 2 scheduled: 2 executed: 0 num_reg_dependent: 2 num_mem_ops: 0 event: 11315763
[cpu0_ROB] entry:  69 instr_id: 32572539 fetched: 2 scheduled: 2 executed: 0 num_reg_dependent: 2 num_mem_ops: 0 event: 11315763
[cpu0_ROB] entry:  70 instr_id: 32572540 fetched: 2 scheduled: 2 executed: 0 num_reg_dependent: 2 num_mem_ops: 0 event: 11315763
[cpu0_ROB] entry:  71 instr_id: 32572541 fetched: 2 scheduled: 2 executed: 0 num_reg_dependent: 2 num_mem_ops: 0 event: 11315763
[cpu0_ROB] entry:  72 instr_id: 32572542 fetched: 2 scheduled: 2 executed: 1 num_reg_dependent: 0 num_mem_ops: 1 event: 11315765
[cpu0_ROB] entry:  73 instr_id: 32572543 fetched: 2 scheduled: 2 executed: 0 num_reg_dependent: 2 num_mem_ops: 0 event: 11315764
[cpu0_ROB] entry:  74 instr_id: 32572544 fetched: 2 scheduled: 2 executed: 0 num_reg_dependent: 2 num_mem_ops: 0 event: 11315764
[cpu0_ROB] entry:  75 instr_id: 32572545 fetched: 2 scheduled: 2 executed: 1 num_reg_dependent: 0 num_mem_ops: 1 event: 11315765
[cpu0_ROB] entry:  76 instr_id: 32572546 fetched: 2 scheduled: 2 executed: 0 num_reg_dependent: 2 num_mem_ops: 0 event: 11315764
[cpu0_ROB] entry:  77 instr_id: 32572547 fetched: 2 scheduled: 2 executed: 1 num_reg_dependent: 0 num_mem_ops: 1 event: 11315765
[cpu0_ROB] entry:  78 instr_id: 32572548 fetched: 2 scheduled: 2 executed: 0 num_reg_dependent: 1 num_mem_ops: 0 event: 11315765
[cpu0_ROB] entry:  79 instr_id: 32572549 fetched: 2 scheduled: 2 executed: 0 num_reg_dependent: 2 num_mem_ops: 0 event: 11315765
[cpu0_ROB] entry:  80 instr_id: 32572550 fetched: 2 scheduled: 2 executed: 0 num_reg_dependent: 1 num_mem_ops: 0 event: 11315765
[cpu0_ROB] entry:  81 instr_id: 32572551 fetched: 2 scheduled: 2 executed: 1 num_reg_dependent: 0 num_mem_ops: 1 event: 11315766
[cpu0_ROB] entry:  82 instr_id: 32572552 fetched: 2 scheduled: 2 executed: 0 num_reg_dependent: 2 num_mem_ops: 0 event: 11315765
[cpu0_ROB] entry:  83 instr_id: 32572553 fetched: 2 scheduled: 2 executed: 0 num_reg_dependent: 1 num_mem_ops: 0 event: 11315765
[cpu0_ROB] entry:  84 instr_id: 32572554 fetched: 2 scheduled: 2 executed: 1 num_reg_dependent: 0 num_mem_ops: 1 event: 11315767
[cpu0_ROB] entry:  85 instr_id: 32572555 fetched: 2 scheduled: 2 executed: 0 num_reg_dependent: 2 num_mem_ops: 0 event: 11315766
[cpu0_ROB] entry:  86 instr_id: 32572556 fetched: 2 scheduled: 2 executed: 0 num_reg_dependent: 1 num_mem_ops: 0 event: 11315766
[cpu0_ROB] entry:  87 instr_id: 32572557 fetched: 2 scheduled: 2 executed: 1 num_reg_dependent: 0 num_mem_ops: 1 event: 11315767
[cpu0_ROB] entry:  88 instr_id: 32572558 fetched: 2 scheduled: 2 executed: 1 num_reg_dependent: 0 num_mem_ops: 1 event: 11315767
[cpu0_ROB] entry:  89 instr_id: 32572559 fetched: 2 scheduled: 2 executed: 1 num_reg_dependent: 0 num_mem_ops: 1 event: 11315767
[cpu0_ROB] entry:  90 instr_id: 32572560 fetched: 2 scheduled: 2 executed: 0 num_reg_dependent: 1 num_mem_ops: 0 event: 11315767
[cpu0_ROB] entry:  91 instr_id: 32572561 fetched: 2 scheduled: 2 executed: 0 num_reg_dependent: 2 num_mem_ops: 0 event: 11315767
[cpu0_ROB] entry:  92 instr_id: 32572562 fetched: 2 scheduled: 2 executed: 0 num_reg_dependent: 2 num_mem_ops: 0 event: 11315767
[cpu0_ROB] entry:  93 instr_id: 32572563 fetched: 2 scheduled: 2 executed: 0 num_reg_dependent: 2 num_mem_ops: 0 event: 11315767
[cpu0_ROB] entry:  94 instr_id: 32572564 fetched: 2 scheduled: 2 executed: 0 num_reg_dependent: 2 num_mem_ops: 0 event: 11315767
[cpu0_ROB] entry:  95 instr_id: 32572565 fetched: 2 scheduled: 2 executed: 1 num_reg_dependent: 0 num_mem_ops: 1 event: 11315768
[cpu0_ROB] entry:  96 instr_id: 32572566 fetched: 2 scheduled: 2 executed: 0 num_reg_dependent: 1 num_mem_ops: 0 event: 11315768
[cpu0_ROB] entry:  97 instr_id: 32572567 fetched: 2 scheduled: 2 executed: 1 num_reg_dependent: 0 num_mem_ops: 1 event: 11315769
[cpu0_ROB] entry:  98 instr_id: 32572568 fetched: 2 scheduled: 2 executed: 0 num_reg_dependent: 2 num_mem_ops: 0 event: 11315768
[cpu0_ROB] entry:  99 instr_id: 32572569 fetched: 2 scheduled: 2 executed: 0 num_reg_dependent: 2 num_mem_ops: 0 event: 11315768
[cpu0_ROB] entry: 100 instr_id: 32572570 fetched: 2 scheduled: 2 executed: 0 num_reg_dependent: 2 num_mem_ops: 0 event: 11315768
[cpu0_ROB] entry: 101 instr_id: 32572571 fetched: 2 scheduled: 2 executed: 0 num_reg_dependent: 2 num_mem_ops: 0 event: 11315768
[cpu0_ROB] entry: 102 instr_id: 32572572 fetched: 2 scheduled: 2 executed: 1 num_reg_dependent: 0 num_mem_ops: 1 event: 11315770
[cpu0_ROB] entry: 103 instr_id: 32572573 fetched: 2 scheduled: 2 executed: 0 num_reg_dependent: 1 num_mem_ops: 0 event: 11315769
[cpu0_ROB] entry: 104 instr_id: 32572574 fetched: 2 scheduled: 2 executed: 1 num_reg_dependent: 0 num_mem_ops: 1 event: 11315770
[cpu0_ROB] entry: 105 instr_id: 32572575 fetched: 2 scheduled: 2 executed: 0 num_reg_dependent: 2 num_mem_ops: 0 event: 11315769
[cpu0_ROB] entry: 106 instr_id: 32572576 fetched: 2 scheduled: 2 executed: 0 num_reg_dependent: 2 num_mem_ops: 0 event: 11315769
[cpu0_ROB] entry: 107 instr_id: 32572577 fetched: 2 scheduled: 2 executed: 0 num_reg_dependent: 2 num_mem_ops: 0 event: 11315769
[cpu0_ROB] entry: 108 instr_id: 32572578 fetched: 2 scheduled: 2 executed: 0 num_reg_dependent: 2 num_mem_ops: 0 event: 11315770
[cpu0_ROB] entry: 109 instr_id: 32572579 fetched: 2 scheduled: 2 executed: 1 num_reg_dependent: 0 num_mem_ops: 1 event: 11315771
[cpu0_ROB] entry: 110 instr_id: 32572580 fetched: 2 scheduled: 2 executed: 0 num_reg_dependent: 1 num_mem_ops: 0 event: 11315770
[cpu0_ROB] entry: 111 instr_id: 32572581 fetched: 2 scheduled: 2 executed: 0 num_reg_dependent: 2 num_mem_ops: 0 event: 11315770
[cpu0_ROB] entry: 112 instr_id: 32572582 fetched: 2 scheduled: 2 executed: 0 num_reg_dependent: 2 num_mem_ops: 0 event: 11315770
[cpu0_ROB] entry: 113 instr_id: 32572583 fetched: 2 scheduled: 2 executed: 0 num_reg_dependent: 2 num_mem_ops: 0 event: 11315770
[cpu0_ROB] entry: 114 instr_id: 32572584 fetched: 2 scheduled: 2 executed: 2 num_reg_dependent: 0 num_mem_ops: 0 event: 11315772
[cpu0_ROB] entry: 115 instr_id: 32572585 fetched: 2 scheduled: 2 executed: 2 num_reg_dependent: 0 num_mem_ops: 0 event: 11315773
[cpu0_ROB] entry: 116 instr_id: 32572586 fetched: 2 scheduled: 2 executed: 2 num_reg_dependent: 0 num_mem_ops: 0 event: 11315774
[cpu0_ROB] entry: 117 instr_id: 32572587 fetched: 2 scheduled: 2 executed: 1 num_reg_dependent: 0 num_mem_ops: 1 event: 11315773
[cpu0_ROB] entry: 118 instr_id: 32572588 fetched: 2 scheduled: 2 executed: 1 num_reg_dependent: 0 num_mem_ops: 1 event: 11315773
[cpu0_ROB] entry: 119 instr_id: 32572589 fetched: 2 scheduled: 2 executed: 1 num_reg_dependent: 0 num_mem_ops: 1 event: 11315773
[cpu0_ROB] entry: 120 instr_id: 32572590 fetched: 2 scheduled: 2 executed: 1 num_reg_dependent: 0 num_mem_ops: 1 event: 11315773
[cpu0_ROB] entry: 121 instr_id: 32572591 fetched: 2 scheduled: 2 executed: 0 num_reg_dependent: 1 num_mem_ops: 0 event: 11315772
[cpu0_ROB] entry: 122 instr_id: 32572592 fetched: 2 scheduled: 2 executed: 1 num_reg_dependent: 0 num_mem_ops: 2 event: 11315773
[cpu0_ROB] entry: 123 instr_id: 32572593 fetched: 2 scheduled: 2 executed: 0 num_reg_dependent: 1 num_mem_ops: 0 event: 11315772
[cpu0_ROB] entry: 124 instr_id: 32572594 fetched: 2 scheduled: 2 executed: 1 num_reg_dependent: 0 num_mem_ops: 1 event: 11315773
[cpu0_ROB] entry: 125 instr_id: 32572595 fetched: 2 scheduled: 2 executed: 0 num_reg_dependent: 1 num_mem_ops: 0 event: 11315772
[cpu0_ROB] entry: 126 instr_id: 32572596 fetched: 2 scheduled: 2 executed: 1 num_reg_dependent: 0 num_mem_ops: 1 event: 11315774
[cpu0_ROB] entry: 127 instr_id: 32572597 fetched: 2 scheduled: 2 executed: 0 num_reg_dependent: 1 num_mem_ops: 0 event: 11315773
[cpu0_ROB] entry: 128 instr_id: 32572598 fetched: 2 scheduled: 2 executed: 1 num_reg_dependent: 0 num_mem_ops: 1 event: 11315774
[cpu0_ROB] entry: 129 instr_id: 32572599 fetched: 2 scheduled: 2 executed: 0 num_reg_dependent: 1 num_mem_ops: 0 event: 11315774
[cpu0_ROB] entry: 130 instr_id: 32572600 fetched: 2 scheduled: 2 executed: 1 num_reg_dependent: 0 num_mem_ops: 1 event: 11315775
[cpu0_ROB] entry: 131 instr_id: 32572601 fetched: 2 scheduled: 2 executed: 0 num_reg_dependent: 2 num_mem_ops: 0 event: 11315774
[cpu0_ROB] entry: 132 instr_id: 32572602 fetched: 2 scheduled: 2 executed: 0 num_reg_dependent: 2 num_mem_ops: 0 event: 11315774
[cpu0_ROB] entry: 133 instr_id: 32572603 fetched: 2 scheduled: 2 executed: 0 num_reg_dependent: 2 num_mem_ops: 0 event: 11315774
[cpu0_ROB] entry: 134 instr_id: 32572604 fetched: 2 scheduled: 2 executed: 0 num_reg_dependent: 2 num_mem_ops: 0 event: 11315774
[cpu0_ROB] entry: 135 instr_id: 32572605 fetched: 2 scheduled: 2 executed: 1 num_reg_dependent: 0 num_mem_ops: 1 event: 11315775
[cpu0_ROB] entry: 136 instr_id: 32572606 fetched: 2 scheduled: 2 executed: 0 num_reg_dependent: 2 num_mem_ops: 0 event: 11315775
[cpu0_ROB] entry: 137 instr_id: 32572607 fetched: 2 scheduled: 2 executed: 0 num_reg_dependent: 2 num_mem_ops: 0 event: 11315775
[cpu0_ROB] entry: 138 instr_id: 32572608 fetched: 2 scheduled: 2 executed: 1 num_reg_dependent: 0 num_mem_ops: 1 event: 11315776
[cpu0_ROB] entry: 139 instr_id: 32572609 fetched: 2 scheduled: 2 executed: 0 num_reg_dependent: 2 num_mem_ops: 0 event: 11315776
[cpu0_ROB] entry: 140 instr_id: 32572610 fetched: 2 scheduled: 2 executed: 1 num_reg_dependent: 0 num_mem_ops: 1 event: 11315777
[cpu0_ROB] entry: 141 instr_id: 32572611 fetched: 2 scheduled: 2 executed: 0 num_reg_dependent: 1 num_mem_ops: 0 event: 11315777
[cpu0_ROB] entry: 142 instr_id: 32572612 fetched: 2 scheduled: 2 executed: 0 num_reg_dependent: 2 num_mem_ops: 0 event: 11315778
[cpu0_ROB] entry: 143 instr_id: 32572613 fetched: 2 scheduled: 2 executed: 0 num_reg_dependent: 1 num_mem_ops: 0 event: 11315816
[cpu0_ROB] entry: 144 instr_id: 32572614 fetched: 2 scheduled: 2 executed: 1 num_reg_dependent: 0 num_mem_ops: 1 event: 11315817
[cpu0_ROB] entry: 145 instr_id: 32572615 fetched: 2 scheduled: 2 executed: 0 num_reg_dependent: 2 num_mem_ops: 0 event: 11315816
[cpu0_ROB] entry: 146 instr_id: 32572616 fetched: 2 scheduled: 2 executed: 0 num_reg_dependent: 1 num_mem_ops: 0 event: 11315816
[cpu0_ROB] entry: 147 instr_id: 32572617 fetched: 2 scheduled: 2 executed: 1 num_reg_dependent: 0 num_mem_ops: 1 event: 11315818
[cpu0_ROB] entry: 148 instr_id: 32572618 fetched: 2 scheduled: 2 executed: 0 num_reg_dependent: 2 num_mem_ops: 0 event: 11315817
[cpu0_ROB] entry: 149 instr_id: 32572619 fetched: 2 scheduled: 2 executed: 0 num_reg_dependent: 1 num_mem_ops: 0 event: 11315817
[cpu0_ROB] entry: 150 instr_id: 32572620 fetched: 2 scheduled: 2 executed: 1 num_reg_dependent: 0 num_mem_ops: 1 event: 11315819
[cpu0_ROB] entry: 151 instr_id: 32572621 fetched: 2 scheduled: 2 executed: 1 num_reg_dependent: 0 num_mem_ops: 1 event: 11315819
[cpu0_ROB] entry: 152 instr_id: 32572622 fetched: 2 scheduled: 2 executed: 1 num_reg_dependent: 0 num_mem_ops: 1 event: 11315819
[cpu0_ROB] entry: 153 instr_id: 32572623 fetched: 2 scheduled: 2 executed: 0 num_reg_dependent: 1 num_mem_ops: 0 event: 11315818
[cpu0_ROB] entry: 154 instr_id: 32572624 fetched: 2 scheduled: 2 executed: 0 num_reg_dependent: 2 num_mem_ops: 0 event: 11315818
[cpu0_ROB] entry: 155 instr_id: 32572625 fetched: 2 scheduled: 2 executed: 0 num_reg_dependent: 2 num_mem_ops: 0 event: 11315819
[cpu0_ROB] entry: 156 instr_id: 32572626 fetched: 2 scheduled: 2 executed: 0 num_reg_dependent: 2 num_mem_ops: 0 event: 11315819
[cpu0_ROB] entry: 157 instr_id: 32572627 fetched: 2 scheduled: 2 executed: 0 num_reg_dependent: 2 num_mem_ops: 0 event: 11315819
[cpu0_ROB] entry: 158 instr_id: 32572628 fetched: 2 scheduled: 2 executed: 1 num_reg_dependent: 0 num_mem_ops: 1 event: 11315820
[cpu0_ROB] entry: 159 instr_id: 32572629 fetched: 2 scheduled: 2 executed: 0 num_reg_dependent: 1 num_mem_ops: 0 event: 11315819
[cpu0_ROB] entry: 160 instr_id: 32572630 fetched: 2 scheduled: 2 executed: 1 num_reg_dependent: 0 num_mem_ops: 1 event: 11315821
[cpu0_ROB] entry: 161 instr_id: 32572631 fetched: 2 scheduled: 2 executed: 0 num_reg_dependent: 2 num_mem_ops: 0 event: 11315820
[cpu0_ROB] entry: 162 instr_id: 32572632 fetched: 2 scheduled: 2 executed: 0 num_reg_dependent: 2 num_mem_ops: 0 event: 11315820
[cpu0_ROB] entry: 163 instr_id: 32572633 fetched: 2 scheduled: 2 executed: 0 num_reg_dependent: 2 num_mem_ops: 0 event: 11315820
[cpu0_ROB] entry: 164 instr_id: 32572634 fetched: 2 scheduled: 2 executed: 0 num_reg_dependent: 2 num_mem_ops: 0 event: 11315820
[cpu0_ROB] entry: 165 instr_id: 32572635 fetched: 2 scheduled: 2 executed: 1 num_reg_dependent: 0 num_mem_ops: 1 event: 11315821
[cpu0_ROB] entry: 166 instr_id: 32572636 fetched: 2 scheduled: 2 executed: 0 num_reg_dependent: 1 num_mem_ops: 0 event: 11315821
[cpu0_ROB] entry: 167 instr_id: 32572637 fetched: 2 scheduled: 2 executed: 1 num_reg_dependent: 0 num_mem_ops: 1 event: 11315822
[cpu0_ROB] entry: 168 instr_id: 32572638 fetched: 2 scheduled: 2 executed: 0 num_reg_dependent: 2 num_mem_ops: 0 event: 11315822
[cpu0_ROB] entry: 169 instr_id: 32572639 fetched: 2 scheduled: 2 executed: 0 num_reg_dependent: 2 num_mem_ops: 0 event: 11315822
[cpu0_ROB] entry: 170 instr_id: 32572640 fetched: 2 scheduled: 2 executed: 0 num_reg_dependent: 2 num_mem_ops: 0 event: 11315823
[cpu0_ROB] entry: 171 instr_id: 32572641 fetched: 2 scheduled: 2 executed: 0 num_reg_dependent: 2 num_mem_ops: 0 event: 11315882
[cpu0_ROB] entry: 172 instr_id: 32572642 fetched: 2 scheduled: 2 executed: 1 num_reg_dependent: 0 num_mem_ops: 1 event: 11315883
[cpu0_ROB] entry: 173 instr_id: 32572643 fetched: 2 scheduled: 2 executed: 0 num_reg_dependent: 1 num_mem_ops: 0 event: 11315882
[cpu0_ROB] entry: 174 instr_id: 32572644 fetched: 2 scheduled: 2 executed: 0 num_reg_dependent: 2 num_mem_ops: 0 event: 11315882
[cpu0_ROB] entry: 175 instr_id: 32572645 fetched: 2 scheduled: 2 executed: 0 num_reg_dependent: 2 num_mem_ops: 0 event: 11315883
[cpu0_ROB] entry: 176 instr_id: 32572646 fetched: 2 scheduled: 2 executed: 0 num_reg_dependent: 2 num_mem_ops: 0 event: 11315883
[cpu0_ROB] entry: 177 instr_id: 32572647 fetched: 2 scheduled: 2 executed: 2 num_reg_dependent: 0 num_mem_ops: 0 event: 11315884
[cpu0_ROB] entry: 178 instr_id: 32572648 fetched: 2 scheduled: 2 executed: 2 num_reg_dependent: 0 num_mem_ops: 0 event: 11315885
[cpu0_ROB] entry: 179 instr_id: 32572649 fetched: 2 scheduled: 2 executed: 2 num_reg_dependent: 0 num_mem_ops: 0 event: 11315886
[cpu0_ROB] entry: 180 instr_id: 32572650 fetched: 2 scheduled: 2 executed: 1 num_reg_dependent: 0 num_mem_ops: 1 event: 11315885
[cpu0_ROB] entry: 181 instr_id: 32572651 fetched: 2 scheduled: 2 executed: 1 num_reg_dependent: 0 num_mem_ops: 1 event: 11315886
[cpu0_ROB] entry: 182 instr_id: 32572652 fetched: 2 scheduled: 2 executed: 1 num_reg_dependent: 0 num_mem_ops: 1 event: 11315887
[cpu0_ROB] entry: 183 instr_id: 32572653 fetched: 2 scheduled: 2 executed: 1 num_reg_dependent: 0 num_mem_ops: 1 event: 11315887
[cpu0_ROB] entry: 184 instr_id: 32572654 fetched: 2 scheduled: 2 executed: 0 num_reg_dependent: 1 num_mem_ops: 0 event: 11315887
[cpu0_ROB] entry: 185 instr_id: 32572655 fetched: 2 scheduled: 2 executed: 1 num_reg_dependent: 0 num_mem_ops: 2 event: 11315888
[cpu0_ROB] entry: 186 instr_id: 32572656 fetched: 2 scheduled: 2 executed: 0 num_reg_dependent: 1 num_mem_ops: 0 event: 11315888
[cpu0_ROB] entry: 187 instr_id: 32572657 fetched: 2 scheduled: 2 executed: 1 num_reg_dependent: 0 num_mem_ops: 1 event: 11315889
[...]
[cpu0_SQ] entry:  58 instr_id: 32572808 address: 0x1fb9fa0 fetch_issued: true event_cycle: 11315806 LQ waiting: []
[cpu0_SQ] entry:  59 instr_id: 32572816 address: 0x1fb9fa8 fetch_issued: true event_cycle: 11315807 LQ waiting: []
[cpu0_SQ] entry:  60 instr_id: 32572818 address: 0x1fb9fb8 fetch_issued: true event_cycle: 11315808 LQ waiting: []
[cpu0_SQ] entry:  61 instr_id: 32572823 address: 0x1fb9fc0 fetch_issued: true event_cycle: 11315808 LQ waiting: []
[cpu0_SQ] entry:  62 instr_id: 32572825 address: 0x1fb9fd0 fetch_issued: true event_cycle: 11315809 LQ waiting: []
[cpu0_SQ] entry:  63 instr_id: 32572830 address: 0x1fb9fd8 fetch_issued: true event_cycle: 11315810 LQ waiting: []
[cpu0_SQ] entry:  64 instr_id: 32572832 address: 0x1fb9fe8 fetch_issued: true event_cycle: 11315810 LQ waiting: []
[cpu0_SQ] entry:  65 instr_id: 32572835 address: 0x1fb9ff0 fetch_issued: true event_cycle: 11315811 LQ waiting: []
[cpu0_SQ] entry:  66 instr_id: 32572864 address: 0x1fba770 fetch_issued: true event_cycle: 11315819 LQ waiting: []
[cpu0_SQ] entry:  67 instr_id: 32572867 address: 0x1fba780 fetch_issued: true event_cycle: 11315819 LQ waiting: []
[cpu0_SQ] entry:  68 instr_id: 32572870 address: 0x1fba790 fetch_issued: true event_cycle: 11315820 LQ waiting: []
[cpu0_SQ] entry:  69 instr_id: 32572871 address: 0x1fba7a0 fetch_issued: true event_cycle: 11315820 LQ waiting: []
[cpu0_SQ] entry:  70 instr_id: 32572879 address: 0x1fba7a8 fetch_issued: true event_cycle: 11315821 LQ waiting: []
[cpu0_SQ] entry:  71 instr_id: 32572881 address: 0x1fba7b8 fetch_issued: true event_cycle: 11315822 LQ waiting: []
[cpu0_SQ] entry:  72 instr_id: 32572886 address: 0x1fba7c0 fetch_issued: true event_cycle: 11315822 LQ waiting: []
[cpu0_SQ] entry:  73 instr_id: 32572888 address: 0x1fba7d0 fetch_issued: true event_cycle: 11315823 LQ waiting: []
[cpu0_SQ] entry:  74 instr_id: 32572893 address: 0x1fba7d8 fetch_issued: true event_cycle: 11315824 LQ waiting: []
[cpu0_SQ] entry:  75 instr_id: 32572895 address: 0x1fba7e8 fetch_issued: true event_cycle: 11315824 LQ waiting: []
[cpu0_SQ] entry:  76 instr_id: 32572898 address: 0x1fba7f0 fetch_issued: true event_cycle: 11315825 LQ waiting: []
[cpu0_SQ] entry:  77 instr_id: 32572927 address: 0x1fbaf70 fetch_issued: true event_cycle: 11315885 LQ waiting: []
[cpu0_SQ] entry:  78 instr_id: 32572930 address: 0x1fbaf80 fetch_issued: true event_cycle: 11315885 LQ waiting: []
[cpu0_SQ] entry:  79 instr_id: 32572933 address: 0x1fbaf90 fetch_issued: true event_cycle: 11315886 LQ waiting: []
[cpu0_SQ] entry:  80 instr_id: 32572934 address: 0x1fbafa0 fetch_issued: true event_cycle: 11315886 LQ waiting: []
[cpu0_SQ] entry:  81 instr_id: 32572942 address: 0x1fbafa8 fetch_issued: true event_cycle: 11315887 LQ waiting: []
[cpu0_SQ] entry:  82 instr_id: 32572944 address: 0x1fbafb8 fetch_issued: true event_cycle: 11315888 LQ waiting: []
[cpu0_SQ] entry:  83 instr_id: 32572949 address: 0x1fbafc0 fetch_issued: true event_cycle: 11315888 LQ waiting: []
[cpu0_SQ] entry:  84 instr_id: 32572951 address: 0x1fbafd0 fetch_issued: true event_cycle: 11318076 LQ waiting: []
[cpu0_SQ] entry:  85 instr_id: 32572956 address: 0x1fbafd8 fetch_issued: true event_cycle: 11318077 LQ waiting: []
[cpu0_SQ] entry:  86 instr_id: 32572958 address: 0x1fbafe8 fetch_issued: true event_cycle: 11318078 LQ waiting: []
[cpu0_SQ] entry:  87 instr_id: 32572961 address: 0x1fbaff0 fetch_issued: true event_cycle: 11318078 LQ waiting: []

LLC_MSHR empty

LLC_tags empty

LLC_translation empty

LLC_RQ empty

LLC_WQ empty

LLC_PQ empty

[cpu0_DTLB_MSHR] entry:   0 instr_id: 0 address: 0x1fb8780 v_addr: 0x1fb8780 type: LOAD event: 18446744073709551615

cpu0_DTLB_tags empty

cpu0_DTLB_translation empty

cpu0_DTLB_RQ empty

cpu0_DTLB_WQ empty

cpu0_DTLB_PQ empty

cpu0_ITLB_MSHR empty

cpu0_ITLB_tags empty

cpu0_ITLB_translation empty

cpu0_ITLB_RQ empty

cpu0_ITLB_WQ empty

cpu0_ITLB_PQ empty

cpu0_L1D_MSHR empty

cpu0_L1D_tags empty

[cpu0_L1D_translation] entry:   0 instr_id: 0 address: 0x1fb87c0 v_addr: 0x1fb87c0 is_translated: false translate_issued: true event_cycle: 11310332
[cpu0_L1D_translation] entry:   1 instr_id: 0 address: 0x1fb8fc0 v_addr: 0x1fb8fc0 is_translated: false translate_issued: true event_cycle: 11310337
[cpu0_L1D_translation] entry:   2 instr_id: 0 address: 0x1fb8700 v_addr: 0x1fb8700 is_translated: false translate_issued: true event_cycle: 11311608
[cpu0_L1D_translation] entry:   3 instr_id: 0 address: 0x1fb8f00 v_addr: 0x1fb8f00 is_translated: false translate_issued: true event_cycle: 11311614
[cpu0_L1D_translation] entry:   4 instr_id: 0 address: 0x1fb8700 v_addr: 0x1fb8700 is_translated: false translate_issued: true event_cycle: 11311998
[cpu0_L1D_translation] entry:   5 instr_id: 0 address: 0x1fb8f00 v_addr: 0x1fb8f00 is_translated: false translate_issued: true event_cycle: 11312004
[cpu0_L1D_translation] entry:   6 instr_id: 0 address: 0x1fb8700 v_addr: 0x1fb8700 is_translated: false translate_issued: true event_cycle: 11313780
[cpu0_L1D_translation] entry:   7 instr_id: 0 address: 0x1fb8f00 v_addr: 0x1fb8f00 is_translated: false translate_issued: true event_cycle: 11313782
[cpu0_L1D_translation] entry:   8 instr_id: 0 address: 0x1fb8fc0 v_addr: 0x1fb8fc0 is_translated: false translate_issued: true event_cycle: 11314009
[cpu0_L1D_translation] entry:   9 instr_id: 0 address: 0x1fb8fc0 v_addr: 0x1fb8fc0 is_translated: false translate_issued: true event_cycle: 11314026
[cpu0_L1D_translation] entry:  10 instr_id: 0 address: 0x1fb8780 v_addr: 0x1fb8780 is_translated: false translate_issued: true event_cycle: 11314081
[cpu0_L1D_translation] entry:  11 instr_id: 0 address: 0x1fb8f80 v_addr: 0x1fb8f80 is_translated: false translate_issued: true event_cycle: 11314081
[cpu0_L1D_translation] entry:  12 instr_id: 0 address: 0x1fb8fc0 v_addr: 0x1fb8fc0 is_translated: false translate_issued: true event_cycle: 11314186
[cpu0_L1D_translation] entry:  13 instr_id: 0 address: 0x1fb86c0 v_addr: 0x1fb86c0 is_translated: false translate_issued: true event_cycle: 11314409
[cpu0_L1D_translation] entry:  14 instr_id: 0 address: 0x1fb8780 v_addr: 0x1fb8780 is_translated: false translate_issued: true event_cycle: 11314410
[cpu0_L1D_translation] entry:  15 instr_id: 0 address: 0x1fb8f80 v_addr: 0x1fb8f80 is_translated: false translate_issued: true event_cycle: 11314410

cpu0_L1D_RQ empty

cpu0_L1D_WQ empty

cpu0_L1D_PQ empty

[cpu0_L1D_RQ] entry:   0 instr_id: 32572470 address: 0x1fb7780 v_addr: 0x1fb7780 type: LOAD translated: false
[cpu0_L1D_RQ] entry:   1 instr_id: 32572479 address: 0x1fb7700 v_addr: 0x1fb7700 type: LOAD translated: false
[cpu0_L1D_RQ] entry:   2 instr_id: 32572484 address: 0x1fb7758 v_addr: 0x1fb7758 type: LOAD translated: false
[cpu0_L1D_RQ] entry:   3 instr_id: 32572502 address: 0x1fb77c0 v_addr: 0x1fb77c0 type: LOAD translated: false
[cpu0_L1D_RQ] entry:   4 instr_id: 32572524 address: 0x1fb7ee0 v_addr: 0x1fb7ee0 type: LOAD translated: false
[cpu0_L1D_RQ] entry:   5 instr_id: 32572525 address: 0x1fb7f10 v_addr: 0x1fb7f10 type: LOAD translated: false
[cpu0_L1D_RQ] entry:   6 instr_id: 32572526 address: 0x1fb7f48 v_addr: 0x1fb7f48 type: LOAD translated: false
[cpu0_L1D_RQ] entry:   7 instr_id: 32572533 address: 0x1fb7f80 v_addr: 0x1fb7f80 type: LOAD translated: false
[cpu0_L1D_RQ] entry:   8 instr_id: 32572565 address: 0x1fb7fc0 v_addr: 0x1fb7fc0 type: LOAD translated: false
[cpu0_L1D_RQ] entry:   9 instr_id: 32572587 address: 0x1fb86e0 v_addr: 0x1fb86e0 type: LOAD translated: false
[cpu0_L1D_RQ] entry:  10 instr_id: 32572588 address: 0x1fb8710 v_addr: 0x1fb8710 type: LOAD translated: false
[cpu0_L1D_RQ] entry:  11 instr_id: 32572589 address: 0x1fb8748 v_addr: 0x1fb8748 type: LOAD translated: false
[cpu0_L1D_RQ] entry:  12 instr_id: 32572596 address: 0x1fb8780 v_addr: 0x1fb8780 type: LOAD translated: false
[cpu0_L1D_RQ] entry:  13 instr_id: 32572628 address: 0x1fb87c0 v_addr: 0x1fb87c0 type: LOAD translated: false
[cpu0_L1D_RQ] entry:  14 instr_id: 32572650 address: 0x1fb8ee0 v_addr: 0x1fb8ee0 type: LOAD translated: false
[cpu0_L1D_RQ] entry:  15 instr_id: 32572651 address: 0x1fb8f10 v_addr: 0x1fb8f10 type: LOAD translated: false
[cpu0_L1D_RQ] entry:  16 instr_id: 32572652 address: 0x1fb8f48 v_addr: 0x1fb8f48 type: LOAD translated: false
[cpu0_L1D_RQ] entry:  17 instr_id: 32572659 address: 0x1fb8f80 v_addr: 0x1fb8f80 type: LOAD translated: false
[cpu0_L1D_RQ] entry:  18 instr_id: 32572691 address: 0x1fb8fc0 v_addr: 0x1fb8fc0 type: LOAD translated: false
[cpu0_L1D_RQ] entry:  19 instr_id: 32572713 address: 0x1fb96e0 v_addr: 0x1fb96e0 type: LOAD translated: false
[cpu0_L1D_RQ] entry:  20 instr_id: 32572714 address: 0x1fb9710 v_addr: 0x1fb9710 type: LOAD translated: false
[cpu0_L1D_RQ] entry:  21 instr_id: 32572715 address: 0x1fb9748 v_addr: 0x1fb9748 type: LOAD translated: false
[cpu0_L1D_RQ] entry:  22 instr_id: 32572722 address: 0x1fb9780 v_addr: 0x1fb9780 type: LOAD translated: false
[cpu0_L1D_RQ] entry:  23 instr_id: 32572754 address: 0x1fb97c0 v_addr: 0x1fb97c0 type: LOAD translated: false
[cpu0_L1D_RQ] entry:  24 instr_id: 32572776 address: 0x1fb9ee0 v_addr: 0x1fb9ee0 type: LOAD translated: false
[cpu0_L1D_RQ] entry:  25 instr_id: 32572777 address: 0x1fb9f10 v_addr: 0x1fb9f10 type: LOAD translated: false
[cpu0_L1D_RQ] entry:  26 instr_id: 32572778 address: 0x1fb9f48 v_addr: 0x1fb9f48 type: LOAD translated: false
[cpu0_L1D_RQ] entry:  27 instr_id: 32572785 address: 0x1fb9f80 v_addr: 0x1fb9f80 type: LOAD translated: false
[cpu0_L1D_RQ] entry:  28 instr_id: 32572817 address: 0x1fb9fc0 v_addr: 0x1fb9fc0 type: LOAD translated: false
[cpu0_L1D_RQ] entry:  29 instr_id: 32572839 address: 0x1fba6e0 v_addr: 0x1fba6e0 type: LOAD translated: false
[cpu0_L1D_RQ] entry:  30 instr_id: 32572840 address: 0x1fba710 v_addr: 0x1fba710 type: LOAD translated: false
[cpu0_L1D_RQ] entry:  31 instr_id: 32572841 address: 0x1fba748 v_addr: 0x1fba748 type: LOAD translated: false
[cpu0_L1D_RQ] entry:  32 instr_id: 32572848 address: 0x1fba780 v_addr: 0x1fba780 type: LOAD translated: false
[cpu0_L1D_RQ] entry:  33 instr_id: 32572880 address: 0x1fba7c0 v_addr: 0x1fba7c0 type: LOAD translated: false
[cpu0_L1D_RQ] entry:  34 instr_id: 32572902 address: 0x1fbaee0 v_addr: 0x1fbaee0 type: LOAD translated: false
[cpu0_L1D_RQ] entry:  35 instr_id: 32572903 address: 0x1fbaf10 v_addr: 0x1fbaf10 type: LOAD translated: false
[cpu0_L1D_RQ] entry:  36 instr_id: 32572904 address: 0x1fbaf48 v_addr: 0x1fbaf48 type: LOAD translated: false
[cpu0_L1D_RQ] entry:  37 instr_id: 32572911 address: 0x1fbaf80 v_addr: 0x1fbaf80 type: LOAD translated: false
[cpu0_L1D_RQ] entry:  38 instr_id: 32572943 address: 0x1fbafc0 v_addr: 0x1fbafc0 type: LOAD translated: false
[cpu0_L1D_RQ] entry:  39 instr_id: 32572965 address: 0x1fbb6e0 v_addr: 0x1fbb6e0 type: LOAD translated: false
[cpu0_L1D_RQ] entry:  40 instr_id: 32572966 address: 0x1fbb710 v_addr: 0x1fbb710 type: LOAD translated: false
[cpu0_L1D_RQ] entry:  41 instr_id: 32572967 address: 0x1fbb748 v_addr: 0x1fbb748 type: LOAD translated: false
[cpu0_L1D_RQ] entry:  42 instr_id: 32572974 address: 0x1fbb780 v_addr: 0x1fbb780 type: LOAD translated: false

[cpu0_L1D_WQ] entry:   0 instr_id: 32571982 address: 0x1fb3770 v_addr: 0x1fb3770 type: WRITE translated: false
[cpu0_L1D_WQ] entry:   1 instr_id: 32571985 address: 0x1fb3780 v_addr: 0x1fb3780 type: WRITE translated: false
[cpu0_L1D_WQ] entry:   2 instr_id: 32571988 address: 0x1fb3790 v_addr: 0x1fb3790 type: WRITE translated: false
[cpu0_L1D_WQ] entry:   3 instr_id: 32571989 address: 0x1fb37a0 v_addr: 0x1fb37a0 type: WRITE translated: false
[cpu0_L1D_WQ] entry:   4 instr_id: 32571997 address: 0x1fb37a8 v_addr: 0x1fb37a8 type: WRITE translated: false
[cpu0_L1D_WQ] entry:   5 instr_id: 32571999 address: 0x1fb37b8 v_addr: 0x1fb37b8 type: WRITE translated: false
[cpu0_L1D_WQ] entry:   6 instr_id: 32572004 address: 0x1fb37c0 v_addr: 0x1fb37c0 type: WRITE translated: false
[cpu0_L1D_WQ] entry:   7 instr_id: 32572006 address: 0x1fb37d0 v_addr: 0x1fb37d0 type: WRITE translated: false
[cpu0_L1D_WQ] entry:   8 instr_id: 32572011 address: 0x1fb37d8 v_addr: 0x1fb37d8 type: WRITE translated: false
[cpu0_L1D_WQ] entry:   9 instr_id: 32572013 address: 0x1fb37e8 v_addr: 0x1fb37e8 type: WRITE translated: false
[cpu0_L1D_WQ] entry:  10 instr_id: 32572016 address: 0x1fb37f0 v_addr: 0x1fb37f0 type: WRITE translated: false
[cpu0_L1D_WQ] entry:  11 instr_id: 32572045 address: 0x1fb3f70 v_addr: 0x1fb3f70 type: WRITE translated: false
[cpu0_L1D_WQ] entry:  12 instr_id: 32572048 address: 0x1fb3f80 v_addr: 0x1fb3f80 type: WRITE translated: false
[cpu0_L1D_WQ] entry:  13 instr_id: 32572051 address: 0x1fb3f90 v_addr: 0x1fb3f90 type: WRITE translated: false
[cpu0_L1D_WQ] entry:  14 instr_id: 32572052 address: 0x1fb3fa0 v_addr: 0x1fb3fa0 type: WRITE translated: false
[cpu0_L1D_WQ] entry:  15 instr_id: 32572060 address: 0x1fb3fa8 v_addr: 0x1fb3fa8 type: WRITE translated: false
[cpu0_L1D_WQ] entry:  16 instr_id: 32572062 address: 0x1fb3fb8 v_addr: 0x1fb3fb8 type: WRITE translated: false
[cpu0_L1D_WQ] entry:  17 instr_id: 32572067 address: 0x1fb3fc0 v_addr: 0x1fb3fc0 type: WRITE translated: false
[cpu0_L1D_WQ] entry:  18 instr_id: 32572069 address: 0x1fb3fd0 v_addr: 0x1fb3fd0 type: WRITE translated: false
[cpu0_L1D_WQ] entry:  19 instr_id: 32572074 address: 0x1fb3fd8 v_addr: 0x1fb3fd8 type: WRITE translated: false
[cpu0_L1D_WQ] entry:  20 instr_id: 32572076 address: 0x1fb3fe8 v_addr: 0x1fb3fe8 type: WRITE translated: false
[cpu0_L1D_WQ] entry:  21 instr_id: 32572079 address: 0x1fb3ff0 v_addr: 0x1fb3ff0 type: WRITE translated: false
[cpu0_L1D_WQ] entry:  22 instr_id: 32572108 address: 0x1fb4770 v_addr: 0x1fb4770 type: WRITE translated: false
[cpu0_L1D_WQ] entry:  23 instr_id: 32572111 address: 0x1fb4780 v_addr: 0x1fb4780 type: WRITE translated: false
[cpu0_L1D_WQ] entry:  24 instr_id: 32572114 address: 0x1fb4790 v_addr: 0x1fb4790 type: WRITE translated: false
[cpu0_L1D_WQ] entry:  25 instr_id: 32572115 address: 0x1fb47a0 v_addr: 0x1fb47a0 type: WRITE translated: false
[cpu0_L1D_WQ] entry:  26 instr_id: 32572123 address: 0x1fb47a8 v_addr: 0x1fb47a8 type: WRITE translated: false
[cpu0_L1D_WQ] entry:  27 instr_id: 32572125 address: 0x1fb47b8 v_addr: 0x1fb47b8 type: WRITE translated: false
[cpu0_L1D_WQ] entry:  28 instr_id: 32572130 address: 0x1fb47c0 v_addr: 0x1fb47c0 type: WRITE translated: false
[cpu0_L1D_WQ] entry:  29 instr_id: 32572132 address: 0x1fb47d0 v_addr: 0x1fb47d0 type: WRITE translated: false
[cpu0_L1D_WQ] entry:  30 instr_id: 32572137 address: 0x1fb47d8 v_addr: 0x1fb47d8 type: WRITE translated: false
[cpu0_L1D_WQ] entry:  31 instr_id: 32572139 address: 0x1fb47e8 v_addr: 0x1fb47e8 type: WRITE translated: false
[cpu0_L1D_WQ] entry:  32 instr_id: 32572142 address: 0x1fb47f0 v_addr: 0x1fb47f0 type: WRITE translated: false
[cpu0_L1D_WQ] entry:  33 instr_id: 32572171 address: 0x1fb4f70 v_addr: 0x1fb4f70 type: WRITE translated: false
[cpu0_L1D_WQ] entry:  34 instr_id: 32572174 address: 0x1fb4f80 v_addr: 0x1fb4f80 type: WRITE translated: false
[cpu0_L1D_WQ] entry:  35 instr_id: 32572177 address: 0x1fb4f90 v_addr: 0x1fb4f90 type: WRITE translated: false
[cpu0_L1D_WQ] entry:  36 instr_id: 32572178 address: 0x1fb4fa0 v_addr: 0x1fb4fa0 type: WRITE translated: false
[cpu0_L1D_WQ] entry:  37 instr_id: 32572186 address: 0x1fb4fa8 v_addr: 0x1fb4fa8 type: WRITE translated: false
[cpu0_L1D_WQ] entry:  38 instr_id: 32572188 address: 0x1fb4fb8 v_addr: 0x1fb4fb8 type: WRITE translated: false
[cpu0_L1D_WQ] entry:  39 instr_id: 32572193 address: 0x1fb4fc0 v_addr: 0x1fb4fc0 type: WRITE translated: false
[cpu0_L1D_WQ] entry:  40 instr_id: 32572195 address: 0x1fb4fd0 v_addr: 0x1fb4fd0 type: WRITE translated: false
[cpu0_L1D_WQ] entry:  41 instr_id: 32572200 address: 0x1fb4fd8 v_addr: 0x1fb4fd8 type: WRITE translated: false
[cpu0_L1D_WQ] entry:  42 instr_id: 32572202 address: 0x1fb4fe8 v_addr: 0x1fb4fe8 type: WRITE translated: false
[cpu0_L1D_WQ] entry:  43 instr_id: 32572205 address: 0x1fb4ff0 v_addr: 0x1fb4ff0 type: WRITE translated: false
[cpu0_L1D_WQ] entry:  44 instr_id: 32572234 address: 0x1fb5770 v_addr: 0x1fb5770 type: WRITE translated: false
[cpu0_L1D_WQ] entry:  45 instr_id: 32572237 address: 0x1fb5780 v_addr: 0x1fb5780 type: WRITE translated: false
[cpu0_L1D_WQ] entry:  46 instr_id: 32572240 address: 0x1fb5790 v_addr: 0x1fb5790 type: WRITE translated: false
[cpu0_L1D_WQ] entry:  47 instr_id: 32572241 address: 0x1fb57a0 v_addr: 0x1fb57a0 type: WRITE translated: false
[cpu0_L1D_WQ] entry:  48 instr_id: 32572249 address: 0x1fb57a8 v_addr: 0x1fb57a8 type: WRITE translated: false
[cpu0_L1D_WQ] entry:  49 instr_id: 32572251 address: 0x1fb57b8 v_addr: 0x1fb57b8 type: WRITE translated: false
[cpu0_L1D_WQ] entry:  50 instr_id: 32572256 address: 0x1fb57c0 v_addr: 0x1fb57c0 type: WRITE translated: false
[cpu0_L1D_WQ] entry:  51 instr_id: 32572258 address: 0x1fb57d0 v_addr: 0x1fb57d0 type: WRITE translated: false
[cpu0_L1D_WQ] entry:  52 instr_id: 32572263 address: 0x1fb57d8 v_addr: 0x1fb57d8 type: WRITE translated: false
[cpu0_L1D_WQ] entry:  53 instr_id: 32572265 address: 0x1fb57e8 v_addr: 0x1fb57e8 type: WRITE translated: false
[cpu0_L1D_WQ] entry:  54 instr_id: 32572268 address: 0x1fb57f0 v_addr: 0x1fb57f0 type: WRITE translated: false
[cpu0_L1D_WQ] entry:  55 instr_id: 32572297 address: 0x1fb5f70 v_addr: 0x1fb5f70 type: WRITE translated: false
[cpu0_L1D_WQ] entry:  56 instr_id: 32572300 address: 0x1fb5f80 v_addr: 0x1fb5f80 type: WRITE translated: false
[cpu0_L1D_WQ] entry:  57 instr_id: 32572303 address: 0x1fb5f90 v_addr: 0x1fb5f90 type: WRITE translated: false
[cpu0_L1D_WQ] entry:  58 instr_id: 32572304 address: 0x1fb5fa0 v_addr: 0x1fb5fa0 type: WRITE translated: false
[cpu0_L1D_WQ] entry:  59 instr_id: 32572312 address: 0x1fb5fa8 v_addr: 0x1fb5fa8 type: WRITE translated: false
[cpu0_L1D_WQ] entry:  60 instr_id: 32572314 address: 0x1fb5fb8 v_addr: 0x1fb5fb8 type: WRITE translated: false
[cpu0_L1D_WQ] entry:  61 instr_id: 32572319 address: 0x1fb5fc0 v_addr: 0x1fb5fc0 type: WRITE translated: false
[cpu0_L1D_WQ] entry:  62 instr_id: 32572321 address: 0x1fb5fd0 v_addr: 0x1fb5fd0 type: WRITE translated: false
[cpu0_L1D_WQ] entry:  63 instr_id: 32572326 address: 0x1fb5fd8 v_addr: 0x1fb5fd8 type: WRITE translated: false
[cpu0_L1D_WQ] entry:  64 instr_id: 32572328 address: 0x1fb5fe8 v_addr: 0x1fb5fe8 type: WRITE translated: false
[cpu0_L1D_WQ] entry:  65 instr_id: 32572331 address: 0x1fb5ff0 v_addr: 0x1fb5ff0 type: WRITE translated: false
[cpu0_L1D_WQ] entry:  66 instr_id: 32572360 address: 0x1fb6770 v_addr: 0x1fb6770 type: WRITE translated: false
[cpu0_L1D_WQ] entry:  67 instr_id: 32572363 address: 0x1fb6780 v_addr: 0x1fb6780 type: WRITE translated: false
[cpu0_L1D_WQ] entry:  68 instr_id: 32572366 address: 0x1fb6790 v_addr: 0x1fb6790 type: WRITE translated: false
[cpu0_L1D_WQ] entry:  69 instr_id: 32572367 address: 0x1fb67a0 v_addr: 0x1fb67a0 type: WRITE translated: false
[cpu0_L1D_WQ] entry:  70 instr_id: 32572375 address: 0x1fb67a8 v_addr: 0x1fb67a8 type: WRITE translated: false
[cpu0_L1D_WQ] entry:  71 instr_id: 32572377 address: 0x1fb67b8 v_addr: 0x1fb67b8 type: WRITE translated: false
[cpu0_L1D_WQ] entry:  72 instr_id: 32572382 address: 0x1fb67c0 v_addr: 0x1fb67c0 type: WRITE translated: false
[cpu0_L1D_WQ] entry:  73 instr_id: 32572384 address: 0x1fb67d0 v_addr: 0x1fb67d0 type: WRITE translated: false
[cpu0_L1D_WQ] entry:  74 instr_id: 32572389 address: 0x1fb67d8 v_addr: 0x1fb67d8 type: WRITE translated: false
[cpu0_L1D_WQ] entry:  75 instr_id: 32572391 address: 0x1fb67e8 v_addr: 0x1fb67e8 type: WRITE translated: false
[cpu0_L1D_WQ] entry:  76 instr_id: 32572394 address: 0x1fb67f0 v_addr: 0x1fb67f0 type: WRITE translated: false
[cpu0_L1D_WQ] entry:  77 instr_id: 32572423 address: 0x1fb6f70 v_addr: 0x1fb6f70 type: WRITE translated: false
[cpu0_L1D_WQ] entry:  78 instr_id: 32572426 address: 0x1fb6f80 v_addr: 0x1fb6f80 type: WRITE translated: false