WARNING: physical memory size is smaller than virtual memory size.

*** ChampSim Multicore Out-of-Order Simulator ***
Warmup Instructions: 30000000
Simulation Instructions: 100000000
Number of CPUs: 1
Page size: 4096

BTB:
Basic BTB sets: 1024 ways: 8
Indirect:
history lengths: 0 0 10 16 27 44 60 96 109 219 449 487 714 1313 2146 3881 
ITTAGE tables: 64768 bytes;Region table: 240 bytes;IUM: 384 bytes;Total Storage= 65392 bytes;
RAS:
RAS size: 64
[LLC] Demand IPV: 1 2 2 1 4 Prefetch IPV: 1 2 1 1 4
Berti Prefetcher
CPU 0 Entangling prefetcher
Off-chip DRAM Size: 8 GiB Channels: 2 Width: 64-bit Data Race: 6400 MT/s
Heartbeat CPU 0 instructions: 10000006 cycles: 1717477 heartbeat IPC: 5.822 cumulative IPC: 5.822 (Simulation time: 00 hr 00 min 37 sec)
Heartbeat CPU 0 instructions: 20000000 cycles: 3384931 heartbeat IPC: 5.997 cumulative IPC: 5.909 (Simulation time: 00 hr 01 min 10 sec)
Heartbeat CPU 0 instructions: 30000007 cycles: 5052515 heartbeat IPC: 5.997 cumulative IPC: 5.938 (Simulation time: 00 hr 01 min 45 sec)
Warmup finished CPU 0 instructions: 30000007 cycles: 5052516 cumulative IPC: 5.938 (Simulation time: 00 hr 01 min 45 sec)
Warmup complete CPU 0 instructions: 30000007 cycles: 5052516 cumulative IPC: 5.938 (Simulation time: 00 hr 01 min 45 sec)
Heartbeat CPU 0 instructions: 40000011 cycles: 6723526 heartbeat IPC: 5.984 cumulative IPC: 5.984 (Simulation time: 00 hr 02 min 21 sec)
Heartbeat CPU 0 instructions: 50000011 cycles: 8425018 heartbeat IPC: 5.877 cumulative IPC: 5.93 (Simulation time: 00 hr 03 min 00 sec)
Heartbeat CPU 0 instructions: 60000009 cycles: 10094246 heartbeat IPC: 5.991 cumulative IPC: 5.95 (Simulation time: 00 hr 03 min 40 sec)
Heartbeat CPU 0 instructions: 70000000 cycles: 11791035 heartbeat IPC: 5.893 cumulative IPC: 5.936 (Simulation time: 00 hr 04 min 22 sec)
Heartbeat CPU 0 instructions: 80000001 cycles: 13460374 heartbeat IPC: 5.99 cumulative IPC: 5.947 (Simulation time: 00 hr 05 min 01 sec)
Heartbeat CPU 0 instructions: 90000005 cycles: 15176243 heartbeat IPC: 5.828 cumulative IPC: 5.927 (Simulation time: 00 hr 05 min 38 sec)
Heartbeat CPU 0 instructions: 100000000 cycles: 16845176 heartbeat IPC: 5.992 cumulative IPC: 5.936 (Simulation time: 00 hr 06 min 14 sec)
*** Reached end of trace: (0, "../traces/secret_traces/compute_fp/compute_fp_35.champsimtrace.xz")
Heartbeat CPU 0 instructions: 110000009 cycles: 18978275 heartbeat IPC: 4.688 cumulative IPC: 5.745 (Simulation time: 00 hr 06 min 54 sec)
Heartbeat CPU 0 instructions: 120000002 cycles: 20671939 heartbeat IPC: 5.904 cumulative IPC: 5.762 (Simulation time: 00 hr 07 min 31 sec)
Heartbeat CPU 0 instructions: 130000010 cycles: 22356242 heartbeat IPC: 5.937 cumulative IPC: 5.779 (Simulation time: 00 hr 08 min 07 sec)
Simulation finished CPU 0 instructions: 100000003 cycles: 17303727 cumulative IPC: 5.779 (Simulation time: 00 hr 08 min 07 sec)
Simulation complete CPU 0 instructions: 100000003 cycles: 17303727 cumulative IPC: 5.779 (Simulation time: 00 hr 08 min 07 sec)

ChampSim completed all CPUs

=== Simulation ===
CPU 0 runs ../traces/secret_traces/compute_fp/compute_fp_35.champsimtrace.xz
Region of Interest Statistics

CPU 0 cumulative IPC: 5.779 instructions: 100000003 cycles: 17303727
CPU 0 Branch Prediction Accuracy: 99.21% MPKI: 0.1781 Average ROB Occupancy at Mispredict: 42.29
Branch type MPKI
BRANCH_DIRECT_JUMP: 0.00743
BRANCH_INDIRECT: 0.0678
BRANCH_CONDITIONAL: 0.0691
BRANCH_DIRECT_CALL: 0.0202
BRANCH_INDIRECT_CALL: 0.00234
BRANCH_RETURN: 0.0112

LLC TOTAL        ACCESS:      91733 HIT:      79915 MISS:      11818
LLC LOAD         ACCESS:      14495 HIT:      11213 MISS:       3282
LLC RFO          ACCESS:      26284 HIT:      26026 MISS:        258
LLC PREFETCH     ACCESS:      18981 HIT:      11847 MISS:       7134
LLC WRITE        ACCESS:      31670 HIT:      30739 MISS:        931
LLC TRANSLATION  ACCESS:        303 HIT:         90 MISS:        213
LLC PREFETCH REQUESTED:          0 ISSUED:          0 USEFUL:          0 USELESS:          0
LLC AVERAGE MISS LATENCY: 140.6 cycles
cpu0_DTLB TOTAL        ACCESS:   16111991 HIT:   16103773 MISS:       8218
cpu0_DTLB LOAD         ACCESS:   16111991 HIT:   16103773 MISS:       8218
cpu0_DTLB RFO          ACCESS:          0 HIT:          0 MISS:          0
cpu0_DTLB PREFETCH     ACCESS:          0 HIT:          0 MISS:          0
cpu0_DTLB WRITE        ACCESS:          0 HIT:          0 MISS:          0
cpu0_DTLB TRANSLATION  ACCESS:          0 HIT:          0 MISS:          0
cpu0_DTLB PREFETCH REQUESTED:          0 ISSUED:          0 USEFUL:          0 USELESS:          0
cpu0_DTLB AVERAGE MISS LATENCY: 8.794 cycles
cpu0_ITLB TOTAL        ACCESS:     212753 HIT:     211279 MISS:       1474
cpu0_ITLB LOAD         ACCESS:     212753 HIT:     211279 MISS:       1474
cpu0_ITLB RFO          ACCESS:          0 HIT:          0 MISS:          0
cpu0_ITLB PREFETCH     ACCESS:          0 HIT:          0 MISS:          0
cpu0_ITLB WRITE        ACCESS:          0 HIT:          0 MISS:          0
cpu0_ITLB TRANSLATION  ACCESS:          0 HIT:          0 MISS:          0
cpu0_ITLB PREFETCH REQUESTED:          0 ISSUED:          0 USEFUL:          0 USELESS:          0
cpu0_ITLB AVERAGE MISS LATENCY: 8.048 cycles
cpu0_L1D TOTAL        ACCESS:   31452161 HIT:   31242995 MISS:     209166
cpu0_L1D LOAD         ACCESS:   30143008 HIT:   30096206 MISS:      46802
cpu0_L1D RFO          ACCESS:          0 HIT:          0 MISS:          0
cpu0_L1D PREFETCH     ACCESS:     445611 HIT:     360207 MISS:      85404
cpu0_L1D WRITE        ACCESS:     863100 HIT:     786517 MISS:      76583
cpu0_L1D TRANSLATION  ACCESS:        442 HIT:         65 MISS:        377
cpu0_L1D PREFETCH REQUESTED:     623703 ISSUED:     445611 USEFUL:       3079 USELESS:        635
cpu0_L1D AVERAGE MISS LATENCY: 10.01 cycles
cpu0_L1I TOTAL        ACCESS:     310443 HIT:     273335 MISS:      37108
cpu0_L1I LOAD         ACCESS:     144984 HIT:     132284 MISS:      12700
cpu0_L1I RFO          ACCESS:          0 HIT:          0 MISS:          0
cpu0_L1I PREFETCH     ACCESS:     165459 HIT:     141051 MISS:      24408
cpu0_L1I WRITE        ACCESS:          0 HIT:          0 MISS:          0
cpu0_L1I TRANSLATION  ACCESS:          0 HIT:          0 MISS:          0
cpu0_L1I PREFETCH REQUESTED:     325637 ISSUED:     165459 USEFUL:      13362 USELESS:       9162
cpu0_L1I AVERAGE MISS LATENCY: 18.96 cycles
cpu0_L2C TOTAL        ACCESS:     337149 HIT:     263446 MISS:      73703
cpu0_L2C LOAD         ACCESS:      35712 HIT:      20149 MISS:      15563
cpu0_L2C RFO          ACCESS:      31087 HIT:       4799 MISS:      26288
cpu0_L2C PREFETCH     ACCESS:     231002 HIT:     199453 MISS:      31549
cpu0_L2C WRITE        ACCESS:      38973 HIT:      38973 MISS:          0
cpu0_L2C TRANSLATION  ACCESS:        375 HIT:         72 MISS:        303
cpu0_L2C PREFETCH REQUESTED:     136476 ISSUED:     130343 USEFUL:       4589 USELESS:       4115
cpu0_L2C AVERAGE MISS LATENCY: 38.84 cycles
cpu0_STLB TOTAL        ACCESS:       4227 HIT:       3842 MISS:        385
cpu0_STLB LOAD         ACCESS:       4227 HIT:       3842 MISS:        385
cpu0_STLB RFO          ACCESS:          0 HIT:          0 MISS:          0
cpu0_STLB PREFETCH     ACCESS:          0 HIT:          0 MISS:          0
cpu0_STLB WRITE        ACCESS:          0 HIT:          0 MISS:          0
cpu0_STLB TRANSLATION  ACCESS:          0 HIT:          0 MISS:          0
cpu0_STLB PREFETCH REQUESTED:          0 ISSUED:          0 USEFUL:          0 USELESS:          0
cpu0_STLB AVERAGE MISS LATENCY: 185.3 cycles

DRAM Statistics

Channel 0 RQ ROW_BUFFER_HIT:       2486
  ROW_BUFFER_MISS:       3069
 AVG DBUS CONGESTED CYCLE: 3.749
WQ ROW_BUFFER_HIT: Channel 0 
  ROW_BUFFER_MISS:        103
  FULL:        322

Channel 1 RQ ROW_BUFFER_HIT:       2426
  ROW_BUFFER_MISS:       2905
 AVG DBUS CONGESTED CYCLE: 3.743
WQ ROW_BUFFER_HIT: Channel 1 
  ROW_BUFFER_MISS:         88
  FULL:        260
BERTI TO_L1: 250050 TO_L2: 727038 TO_L2_BC_MSHR: 51363
BERTI AVG_LAT: 31.0523 NUM_TRACK_LATENCY: 57156 NUM_CANT_TRACK_LATENCY: 0
BERTI CROSS_PAGE 233517 NO_CROSS_PAGE: 743571
BERTI FOUND_BERTI: 563252 NO_FOUND_BERTI: 38950680
BERTI AVERAGE_ISSUED: 2.98162
CPU 0 L1I Entangling prefetcher final stats
IP accesses: 3c1e f0780 5751 / 145632
IP misses: c67 319c0 72 / 13348
IP hits: 0 0 0 / 0
IP late: 2fa6 be980 18 / 6148
IP wrong: e8e9 3a3a40 26 / 9103
miss rate: 0.0916557
coverage: 0
coverage_late: 0.460594
accuracy: 0
accuracy_late: 0.403122
discarded: 0
evicts entangled j table: 0
evicts entangled k table: 1892
max bb size: 65
formats: 512 0 1526 778 335 732 0 
hist_lookups: 1236 1465 1246 1117 1020 818 631 457 380 298 188 135 67 33 16 0 9 2920 
hist_lookups_evict: 0.0747757 %
hist_lookups_shortlat: 24.2606 %
bb_found_hist: 0 24025 8479 3885 3993 1158 645 499 211 11 11 4 12 3 23 0 136 0 0 0 0 0 136 0 0 0 0 0 0 0 0 0 0 0 0 0 0 0 0 0 0 0 0 0 0 0 0 0 0 0 0 0 0 0 0 0 0 0 0 0 0 0 0 0 
bb_found_summary: 89377 43231 2.06743
entangled_found_hist: 0 9837 8861 16211 5901 397 135 0 
entangled_found_summary: 102591 41342 2.48153
bb_ent_found_hist: 0 25890 18841 8622 3455 1869 1603 876 1420 5 20 0 0 11 2 0 285 0 0 0 0 0 297 0 0 0 0 0 0 0 0 0 0 0 0 0 0 0 0 0 0 0 0 0 0 0 0 0 0 0 0 0 0 0 0 0 0 0 0 0 0 0 0 0 
bb_ent_found_summary: 151223 63196 2.39293
