WARNING: physical memory size is smaller than virtual memory size.

*** ChampSim Multicore Out-of-Order Simulator ***
Warmup Instructions: 30000000
Simulation Instructions: 100000000
Number of CPUs: 1
Page size: 4096

BTB:
Basic BTB sets: 1024 ways: 8
Indirect:
history lengths: 0 0 10 16 27 44 60 96 109 219 449 487 714 1313 2146 3881 
ITTAGE tables: 64768 bytes;Region table: 240 bytes;IUM: 384 bytes;Total Storage= 65392 bytes;
RAS:
RAS size: 64
[LLC] Demand IPV: 1 2 2 1 4 Prefetch IPV: 1 2 1 1 4
Berti Prefetcher
CPU 0 Entangling prefetcher
Off-chip DRAM Size: 8 GiB Channels: 2 Width: 64-bit Data Race: 6400 MT/s
Heartbeat CPU 0 instructions: 10000001 cycles: 1716063 heartbeat IPC: 5.827 cumulative IPC: 5.827 (Simulation time: 00 hr 00 min 40 sec)
Heartbeat CPU 0 instructions: 20000005 cycles: 3382829 heartbeat IPC: 6 cumulative IPC: 5.912 (Simulation time: 00 hr 01 min 19 sec)
Heartbeat CPU 0 instructions: 30000001 cycles: 5050183 heartbeat IPC: 5.998 cumulative IPC: 5.94 (Simulation time: 00 hr 01 min 57 sec)
Warmup finished CPU 0 instructions: 30000001 cycles: 5050184 cumulative IPC: 5.94 (Simulation time: 00 hr 01 min 57 sec)
Warmup complete CPU 0 instructions: 30000001 cycles: 5050184 cumulative IPC: 5.94 (Simulation time: 00 hr 01 min 57 sec)
Heartbeat CPU 0 instructions: 40000007 cycles: 10707388 heartbeat IPC: 1.768 cumulative IPC: 1.768 (Simulation time: 00 hr 03 min 25 sec)
Heartbeat CPU 0 instructions: 50000002 cycles: 17824870 heartbeat IPC: 1.405 cumulative IPC: 1.566 (Simulation time: 00 hr 05 min 10 sec)
Heartbeat CPU 0 instructions: 60000000 cycles: 31611196 heartbeat IPC: 0.7254 cumulative IPC: 1.129 (Simulation time: 00 hr 08 min 20 sec)
Heartbeat CPU 0 instructions: 70000000 cycles: 42677490 heartbeat IPC: 0.9036 cumulative IPC: 1.063 (Simulation time: 00 hr 10 min 54 sec)
Heartbeat CPU 0 instructions: 80000011 cycles: 52164957 heartbeat IPC: 1.054 cumulative IPC: 1.061 (Simulation time: 00 hr 13 min 08 sec)
Heartbeat CPU 0 instructions: 90000006 cycles: 61644746 heartbeat IPC: 1.055 cumulative IPC: 1.06 (Simulation time: 00 hr 15 min 19 sec)
Heartbeat CPU 0 instructions: 100000008 cycles: 71124849 heartbeat IPC: 1.055 cumulative IPC: 1.059 (Simulation time: 00 hr 17 min 32 sec)
*** Reached end of trace: (0, "../traces/secret_traces/compute_fp/compute_fp_139.champsimtrace.xz")
Heartbeat CPU 0 instructions: 110000009 cycles: 76924069 heartbeat IPC: 1.724 cumulative IPC: 1.113 (Simulation time: 00 hr 19 min 05 sec)
Heartbeat CPU 0 instructions: 120000011 cycles: 82463911 heartbeat IPC: 1.805 cumulative IPC: 1.163 (Simulation time: 00 hr 20 min 41 sec)
Heartbeat CPU 0 instructions: 130000007 cycles: 88096856 heartbeat IPC: 1.775 cumulative IPC: 1.204 (Simulation time: 00 hr 22 min 10 sec)
Simulation finished CPU 0 instructions: 100000006 cycles: 83046673 cumulative IPC: 1.204 (Simulation time: 00 hr 22 min 10 sec)
Simulation complete CPU 0 instructions: 100000006 cycles: 83046673 cumulative IPC: 1.204 (Simulation time: 00 hr 22 min 10 sec)

ChampSim completed all CPUs

=== Simulation ===
CPU 0 runs ../traces/secret_traces/compute_fp/compute_fp_139.champsimtrace.xz
Region of Interest Statistics

CPU 0 cumulative IPC: 1.204 instructions: 100000006 cycles: 83046673
CPU 0 Branch Prediction Accuracy: 99.55% MPKI: 0.1311 Average ROB Occupancy at Mispredict: 27.13
Branch type MPKI
BRANCH_DIRECT_JUMP: 0.00711
BRANCH_INDIRECT: 0.0652
BRANCH_CONDITIONAL: 0.0258
BRANCH_DIRECT_CALL: 0.0197
BRANCH_INDIRECT_CALL: 0.00232
BRANCH_RETURN: 0.011

LLC TOTAL        ACCESS:    4471768 HIT:     137002 MISS:    4334766
LLC LOAD         ACCESS:     109966 HIT:       7029 MISS:     102937
LLC RFO          ACCESS:     507064 HIT:      38513 MISS:     468551
LLC PREFETCH     ACCESS:    3218764 HIT:      29783 MISS:    3188981
LLC WRITE        ACCESS:     630946 HIT:      61576 MISS:     569370
LLC TRANSLATION  ACCESS:       5028 HIT:        101 MISS:       4927
LLC PREFETCH REQUESTED:          0 ISSUED:          0 USEFUL:          0 USELESS:          0
LLC AVERAGE MISS LATENCY: 520.2 cycles
cpu0_DTLB TOTAL        ACCESS:   16006897 HIT:   15878205 MISS:     128692
cpu0_DTLB LOAD         ACCESS:   16006897 HIT:   15878205 MISS:     128692
cpu0_DTLB RFO          ACCESS:          0 HIT:          0 MISS:          0
cpu0_DTLB PREFETCH     ACCESS:          0 HIT:          0 MISS:          0
cpu0_DTLB WRITE        ACCESS:          0 HIT:          0 MISS:          0
cpu0_DTLB TRANSLATION  ACCESS:          0 HIT:          0 MISS:          0
cpu0_DTLB PREFETCH REQUESTED:          0 ISSUED:          0 USEFUL:          0 USELESS:          0
cpu0_DTLB AVERAGE MISS LATENCY: 47.01 cycles
cpu0_ITLB TOTAL        ACCESS:     118325 HIT:     116859 MISS:       1466
cpu0_ITLB LOAD         ACCESS:     118325 HIT:     116859 MISS:       1466
cpu0_ITLB RFO          ACCESS:          0 HIT:          0 MISS:          0
cpu0_ITLB PREFETCH     ACCESS:          0 HIT:          0 MISS:          0
cpu0_ITLB WRITE        ACCESS:          0 HIT:          0 MISS:          0
cpu0_ITLB TRANSLATION  ACCESS:          0 HIT:          0 MISS:          0
cpu0_ITLB PREFETCH REQUESTED:          0 ISSUED:          0 USEFUL:          0 USELESS:          0
cpu0_ITLB AVERAGE MISS LATENCY: 52.16 cycles
cpu0_L1D TOTAL        ACCESS:   32253693 HIT:   16206700 MISS:   16046993
cpu0_L1D LOAD         ACCESS:   12379596 HIT:    7107793 MISS:    5271803
cpu0_L1D RFO          ACCESS:          0 HIT:          0 MISS:          0
cpu0_L1D PREFETCH     ACCESS:   11434532 HIT:    4252901 MISS:    7181631
cpu0_L1D WRITE        ACCESS:    8379279 HIT:    4838067 MISS:    3541212
cpu0_L1D TRANSLATION  ACCESS:      60286 HIT:       7939 MISS:      52347
cpu0_L1D PREFETCH REQUESTED:   38250755 ISSUED:   11434506 USEFUL:    1140268 USELESS:       1827
cpu0_L1D AVERAGE MISS LATENCY: 42.64 cycles
cpu0_L1I TOTAL        ACCESS:     171354 HIT:     135868 MISS:      35486
cpu0_L1I LOAD         ACCESS:      59986 HIT:      49214 MISS:      10772
cpu0_L1I RFO          ACCESS:          0 HIT:          0 MISS:          0
cpu0_L1I PREFETCH     ACCESS:     111368 HIT:      86654 MISS:      24714
cpu0_L1I WRITE        ACCESS:          0 HIT:          0 MISS:          0
cpu0_L1I TRANSLATION  ACCESS:          0 HIT:          0 MISS:          0
cpu0_L1I PREFETCH REQUESTED:     171060 ISSUED:     111368 USEFUL:      13586 USELESS:       8997
cpu0_L1I AVERAGE MISS LATENCY: 65.08 cycles
cpu0_L2C TOTAL        ACCESS:   16982880 HIT:    8598518 MISS:    8384362
cpu0_L2C LOAD         ACCESS:    2273673 HIT:    1471564 MISS:     802109
cpu0_L2C RFO          ACCESS:     509736 HIT:       2645 MISS:     507091
cpu0_L2C PREFETCH     ACCESS:   13514261 HIT:    6444129 MISS:    7070132
cpu0_L2C WRITE        ACCESS:     633397 HIT:     633396 MISS:          1
cpu0_L2C TRANSLATION  ACCESS:      51813 HIT:      46784 MISS:       5029
cpu0_L2C PREFETCH REQUESTED:   10845335 ISSUED:    7401674 USEFUL:    1551906 USELESS:     111532
cpu0_L2C AVERAGE MISS LATENCY: 251.4 cycles
cpu0_STLB TOTAL        ACCESS:      64013 HIT:       4068 MISS:      59945
cpu0_STLB LOAD         ACCESS:      64013 HIT:       4068 MISS:      59945
cpu0_STLB RFO          ACCESS:          0 HIT:          0 MISS:          0
cpu0_STLB PREFETCH     ACCESS:          0 HIT:          0 MISS:          0
cpu0_STLB WRITE        ACCESS:          0 HIT:          0 MISS:          0
cpu0_STLB TRANSLATION  ACCESS:          0 HIT:          0 MISS:          0
cpu0_STLB PREFETCH REQUESTED:          0 ISSUED:          0 USEFUL:          0 USELESS:          0
cpu0_STLB AVERAGE MISS LATENCY: 133.9 cycles

DRAM Statistics

Channel 0 RQ ROW_BUFFER_HIT:    1310587
  ROW_BUFFER_MISS:     574634
 AVG DBUS CONGESTED CYCLE: 3.948
WQ ROW_BUFFER_HIT: Channel 0 
  ROW_BUFFER_MISS:      87104
  FULL:     198054

Channel 1 RQ ROW_BUFFER_HIT:    1307727
  ROW_BUFFER_MISS:     572402
 AVG DBUS CONGESTED CYCLE: 3.946
WQ ROW_BUFFER_HIT: Channel 1 
  ROW_BUFFER_MISS:      88650
  FULL:     196068
BERTI TO_L1: 10172420 TO_L2: 36453418 TO_L2_BC_MSHR: 17764255
BERTI AVG_LAT: 156.312 NUM_TRACK_LATENCY: 4354371 NUM_CANT_TRACK_LATENCY: 31
BERTI CROSS_PAGE 11050614 NO_CROSS_PAGE: 35575224
BERTI FOUND_BERTI: 23175872 NO_FOUND_BERTI: 4277827
BERTI AVERAGE_ISSUED: 2.52824
CPU 0 L1I Entangling prefetcher final stats
IP accesses: 4500 114000 550 / 69348
IP misses: 4500 114000 543 / 20134
IP hits: 0 0 0 / 0
IP late: f1f3 3c7cc0 13 / 5612
IP wrong: 2172 85c80 22 / 8944
miss rate: 0.290333
coverage: 0
coverage_late: 0.278733
accuracy: 0
accuracy_late: 0.385546
discarded: 0
evicts entangled j table: 0
evicts entangled k table: 1616
max bb size: 65
formats: 422 0 1360 710 291 649 0 
hist_lookups: 1099 1217 1008 838 738 657 539 415 333 274 196 121 91 41 16 0 6 3632 
hist_lookups_evict: 0.0534712 %
hist_lookups_shortlat: 32.3679 %
bb_found_hist: 0 14498 6209 2668 1221 705 240 61 60 14 11 4 12 0 3 0 19 0 0 0 0 0 0 0 0 0 0 0 0 0 0 0 0 0 0 0 0 0 0 0 0 0 0 0 0 0 0 0 0 2 0 0 0 0 0 0 0 0 0 0 0 0 0 0 
bb_found_summary: 46544 25727 1.80915
entangled_found_hist: 0 8244 5416 10254 1653 414 52 0 
entangled_found_summary: 58832 26033 2.25991
bb_ent_found_hist: 0 19860 10227 5485 2329 1820 771 161 105 5 20 0 0 0 0 0 0 0 0 0 0 0 0 0 0 0 0 0 0 0 0 0 0 0 0 0 0 0 0 0 0 0 0 0 0 0 0 0 0 2 0 0 0 0 0 0 0 0 0 0 0 0 0 0 
bb_ent_found_summary: 82121 40785 2.01351
