WARNING: physical memory size is smaller than virtual memory size.

*** ChampSim Multicore Out-of-Order Simulator ***
Warmup Instructions: 30000000
Simulation Instructions: 100000000
Number of CPUs: 1
Page size: 4096

BTB:
Basic BTB sets: 1024 ways: 8
Indirect:
history lengths: 0 0 10 16 27 44 60 96 109 219 449 487 714 1313 2146 3881 
ITTAGE tables: 64768 bytes;Region table: 240 bytes;IUM: 384 bytes;Total Storage= 65392 bytes;
RAS:
RAS size: 64
[LLC] Demand IPV: 1 2 2 1 4 Prefetch IPV: 1 2 1 1 4
Berti Prefetcher
CPU 0 Entangling prefetcher
Off-chip DRAM Size: 8 GiB Channels: 2 Width: 64-bit Data Race: 6400 MT/s
Heartbeat CPU 0 instructions: 10000005 cycles: 1908337 heartbeat IPC: 5.24 cumulative IPC: 5.24 (Simulation time: 00 hr 00 min 51 sec)
Heartbeat CPU 0 instructions: 20000000 cycles: 3805246 heartbeat IPC: 5.272 cumulative IPC: 5.256 (Simulation time: 00 hr 01 min 41 sec)
Heartbeat CPU 0 instructions: 30000002 cycles: 5700120 heartbeat IPC: 5.277 cumulative IPC: 5.263 (Simulation time: 00 hr 02 min 29 sec)
Warmup finished CPU 0 instructions: 30000002 cycles: 5700121 cumulative IPC: 5.263 (Simulation time: 00 hr 02 min 29 sec)
Warmup complete CPU 0 instructions: 30000002 cycles: 5700121 cumulative IPC: 5.263 (Simulation time: 00 hr 02 min 29 sec)
Heartbeat CPU 0 instructions: 40000003 cycles: 22892154 heartbeat IPC: 0.5817 cumulative IPC: 0.5817 (Simulation time: 00 hr 05 min 16 sec)
Heartbeat CPU 0 instructions: 50000000 cycles: 35794383 heartbeat IPC: 0.7751 cumulative IPC: 0.6646 (Simulation time: 00 hr 07 min 34 sec)
Heartbeat CPU 0 instructions: 60000000 cycles: 48853861 heartbeat IPC: 0.7657 cumulative IPC: 0.6952 (Simulation time: 00 hr 09 min 50 sec)
Heartbeat CPU 0 instructions: 70000011 cycles: 61152848 heartbeat IPC: 0.8131 cumulative IPC: 0.7213 (Simulation time: 00 hr 12 min 19 sec)
Heartbeat CPU 0 instructions: 80000001 cycles: 74440206 heartbeat IPC: 0.7526 cumulative IPC: 0.7274 (Simulation time: 00 hr 14 min 53 sec)
Heartbeat CPU 0 instructions: 90000003 cycles: 88765362 heartbeat IPC: 0.6981 cumulative IPC: 0.7223 (Simulation time: 00 hr 17 min 44 sec)
Heartbeat CPU 0 instructions: 100000002 cycles: 102848611 heartbeat IPC: 0.7101 cumulative IPC: 0.7205 (Simulation time: 00 hr 20 min 28 sec)
*** Reached end of trace: (0, "../traces/secret_traces/compute_fp/compute_fp_97.champsimtrace.xz")
Heartbeat CPU 0 instructions: 110000001 cycles: 117757302 heartbeat IPC: 0.6707 cumulative IPC: 0.7139 (Simulation time: 00 hr 23 min 25 sec)
Heartbeat CPU 0 instructions: 120000007 cycles: 130095501 heartbeat IPC: 0.8105 cumulative IPC: 0.7235 (Simulation time: 00 hr 25 min 52 sec)
Heartbeat CPU 0 instructions: 130000010 cycles: 140973264 heartbeat IPC: 0.9193 cumulative IPC: 0.7392 (Simulation time: 00 hr 28 min 01 sec)
Simulation finished CPU 0 instructions: 100000008 cycles: 135273144 cumulative IPC: 0.7392 (Simulation time: 00 hr 28 min 01 sec)
Simulation complete CPU 0 instructions: 100000008 cycles: 135273144 cumulative IPC: 0.7392 (Simulation time: 00 hr 28 min 01 sec)

ChampSim completed all CPUs

=== Simulation ===
CPU 0 runs ../traces/secret_traces/compute_fp/compute_fp_97.champsimtrace.xz
Region of Interest Statistics

CPU 0 cumulative IPC: 0.7392 instructions: 100000008 cycles: 135273144
CPU 0 Branch Prediction Accuracy: 93.25% MPKI: 11.98 Average ROB Occupancy at Mispredict: 36.47
Branch type MPKI
BRANCH_DIRECT_JUMP: 0.00894
BRANCH_INDIRECT: 0.199
BRANCH_CONDITIONAL: 11.7
BRANCH_DIRECT_CALL: 0.0222
BRANCH_INDIRECT_CALL: 0.00308
BRANCH_RETURN: 0.0124

LLC TOTAL        ACCESS:    6597485 HIT:    2658560 MISS:    3938925
LLC LOAD         ACCESS:    1543905 HIT:     634298 MISS:     909607
LLC RFO          ACCESS:     882430 HIT:     378271 MISS:     504159
LLC PREFETCH     ACCESS:    2572988 HIT:     742444 MISS:    1830544
LLC WRITE        ACCESS:    1545462 HIT:     900697 MISS:     644765
LLC TRANSLATION  ACCESS:      52700 HIT:       2850 MISS:      49850
LLC PREFETCH REQUESTED:          0 ISSUED:          0 USEFUL:          0 USELESS:          0
LLC AVERAGE MISS LATENCY: 364.6 cycles
cpu0_DTLB TOTAL        ACCESS:   26347313 HIT:   24943115 MISS:    1404198
cpu0_DTLB LOAD         ACCESS:   26347313 HIT:   24943115 MISS:    1404198
cpu0_DTLB RFO          ACCESS:          0 HIT:          0 MISS:          0
cpu0_DTLB PREFETCH     ACCESS:          0 HIT:          0 MISS:          0
cpu0_DTLB WRITE        ACCESS:          0 HIT:          0 MISS:          0
cpu0_DTLB TRANSLATION  ACCESS:          0 HIT:          0 MISS:          0
cpu0_DTLB PREFETCH REQUESTED:          0 ISSUED:          0 USEFUL:          0 USELESS:          0
cpu0_DTLB AVERAGE MISS LATENCY: 22.88 cycles
cpu0_ITLB TOTAL        ACCESS:     155132 HIT:     153513 MISS:       1619
cpu0_ITLB LOAD         ACCESS:     155132 HIT:     153513 MISS:       1619
cpu0_ITLB RFO          ACCESS:          0 HIT:          0 MISS:          0
cpu0_ITLB PREFETCH     ACCESS:          0 HIT:          0 MISS:          0
cpu0_ITLB WRITE        ACCESS:          0 HIT:          0 MISS:          0
cpu0_ITLB TRANSLATION  ACCESS:          0 HIT:          0 MISS:          0
cpu0_ITLB PREFETCH REQUESTED:          0 ISSUED:          0 USEFUL:          0 USELESS:          0
cpu0_ITLB AVERAGE MISS LATENCY: 73.88 cycles
cpu0_L1D TOTAL        ACCESS:   43582824 HIT:   31489671 MISS:   12093153
cpu0_L1D LOAD         ACCESS:   15762033 HIT:   11102913 MISS:    4659120
cpu0_L1D RFO          ACCESS:          0 HIT:          0 MISS:          0
cpu0_L1D PREFETCH     ACCESS:   18247306 HIT:   13943910 MISS:    4303396
cpu0_L1D WRITE        ACCESS:    9440904 HIT:    6410817 MISS:    3030087
cpu0_L1D TRANSLATION  ACCESS:     132581 HIT:      32031 MISS:     100550
cpu0_L1D PREFETCH REQUESTED:   59359663 ISSUED:   18247318 USEFUL:     499393 USELESS:     118757
cpu0_L1D AVERAGE MISS LATENCY: 66.04 cycles
cpu0_L1I TOTAL        ACCESS:     227694 HIT:     186274 MISS:      41420
cpu0_L1I LOAD         ACCESS:      74663 HIT:      63834 MISS:      10829
cpu0_L1I RFO          ACCESS:          0 HIT:          0 MISS:          0
cpu0_L1I PREFETCH     ACCESS:     153031 HIT:     122440 MISS:      30591
cpu0_L1I WRITE        ACCESS:          0 HIT:          0 MISS:          0
cpu0_L1I TRANSLATION  ACCESS:          0 HIT:          0 MISS:          0
cpu0_L1I PREFETCH REQUESTED:     219071 ISSUED:     153031 USEFUL:      17909 USELESS:      10587
cpu0_L1I AVERAGE MISS LATENCY: 141.9 cycles
cpu0_L2C TOTAL        ACCESS:   18311869 HIT:   11065533 MISS:    7246336
cpu0_L2C LOAD         ACCESS:    3564014 HIT:    1859773 MISS:    1704241
cpu0_L2C RFO          ACCESS:    1221507 HIT:     338990 MISS:     882517
cpu0_L2C PREFETCH     ACCESS:   11083143 HIT:    6476371 MISS:    4606772
cpu0_L2C WRITE        ACCESS:    2344044 HIT:    2343938 MISS:        106
cpu0_L2C TRANSLATION  ACCESS:      99161 HIT:      46461 MISS:      52700
cpu0_L2C PREFETCH REQUESTED:    7893457 ISSUED:    7187207 USEFUL:     761947 USELESS:    1010199
cpu0_L2C AVERAGE MISS LATENCY: 209.3 cycles
cpu0_STLB TOTAL        ACCESS:     954639 HIT:     823363 MISS:     131276
cpu0_STLB LOAD         ACCESS:     954639 HIT:     823363 MISS:     131276
cpu0_STLB RFO          ACCESS:          0 HIT:          0 MISS:          0
cpu0_STLB PREFETCH     ACCESS:          0 HIT:          0 MISS:          0
cpu0_STLB WRITE        ACCESS:          0 HIT:          0 MISS:          0
cpu0_STLB TRANSLATION  ACCESS:          0 HIT:          0 MISS:          0
cpu0_STLB PREFETCH REQUESTED:          0 ISSUED:          0 USEFUL:          0 USELESS:          0
cpu0_STLB AVERAGE MISS LATENCY: 215.1 cycles

DRAM Statistics

Channel 0 RQ ROW_BUFFER_HIT:     485221
  ROW_BUFFER_MISS:    1171096
 AVG DBUS CONGESTED CYCLE: 3.935
WQ ROW_BUFFER_HIT: Channel 0 
  ROW_BUFFER_MISS:      31444
  FULL:     349527

Channel 1 RQ ROW_BUFFER_HIT:     479892
  ROW_BUFFER_MISS:    1155857
 AVG DBUS CONGESTED CYCLE: 3.931
WQ ROW_BUFFER_HIT: Channel 1 
  ROW_BUFFER_MISS:      32083
  FULL:     344992
BERTI TO_L1: 32587869 TO_L2: 38110936 TO_L2_BC_MSHR: 14276119
BERTI AVG_LAT: 135.041 NUM_TRACK_LATENCY: 5374137 NUM_CANT_TRACK_LATENCY: 727
BERTI CROSS_PAGE 9442646 NO_CROSS_PAGE: 61256159
BERTI FOUND_BERTI: 31159807 NO_FOUND_BERTI: 4409347
BERTI AVERAGE_ISSUED: 4.0945
CPU 0 L1I Entangling prefetcher final stats
IP accesses: 44de 113780 699 / 86623
IP misses: 44de 113780 698 / 22789
IP hits: 0 0 0 / 0
IP late: 22c 8b00 14 / 5215
IP wrong: e8c9 3a3240 26 / 10546
miss rate: 0.263083
coverage: 0
coverage_late: 0.228839
accuracy: 0
accuracy_late: 0.330881
discarded: 0
evicts entangled j table: 0
evicts entangled k table: 1501
max bb size: 65
formats: 390 0 1333 761 341 696 0 
hist_lookups: 1231 1299 1002 866 748 628 459 349 287 259 235 123 95 55 22 0 3 3343 
hist_lookups_evict: 0.0272629 %
hist_lookups_shortlat: 30.3799 %
bb_found_hist: 0 16561 8179 3907 1671 812 331 262 189 64 91 77 12 23 7 0 17 0 0 0 0 0 1 0 0 0 0 0 0 0 0 0 0 0 0 0 0 0 0 0 0 0 0 0 0 0 0 0 0 2 0 0 0 0 0 0 0 0 0 0 0 0 0 0 
bb_found_summary: 63982 32206 1.98665
entangled_found_hist: 0 10143 6036 9952 3735 407 66 0 
entangled_found_summary: 69442 30339 2.28887
bb_ent_found_hist: 0 21513 12369 7243 2730 1595 792 412 354 578 49 160 0 8 1 0 0 0 0 0 0 0 0 0 0 0 0 0 0 0 0 0 0 0 0 0 0 0 0 0 0 0 0 0 0 0 0 0 0 4 0 0 0 0 0 0 0 0 0 0 0 0 0 0 
bb_ent_found_summary: 105109 47808 2.19857
