WARNING: physical memory size is smaller than virtual memory size.

*** ChampSim Multicore Out-of-Order Simulator ***
Warmup Instructions: 30000000
Simulation Instructions: 100000000
Number of CPUs: 1
Page size: 4096

BTB:
Basic BTB sets: 1024 ways: 8
Indirect:
history lengths: 0 0 10 16 27 44 60 96 109 219 449 487 714 1313 2146 3881 
ITTAGE tables: 64768 bytes;Region table: 240 bytes;IUM: 384 bytes;Total Storage= 65392 bytes;
RAS:
RAS size: 64
[LLC] Demand IPV: 1 2 2 1 4 Prefetch IPV: 1 2 1 1 4
Berti Prefetcher
CPU 0 Entangling prefetcher
Off-chip DRAM Size: 8 GiB Channels: 2 Width: 64-bit Data Race: 6400 MT/s
Heartbeat CPU 0 instructions: 10000002 cycles: 1716688 heartbeat IPC: 5.825 cumulative IPC: 5.825 (Simulation time: 00 hr 00 min 34 sec)
Heartbeat CPU 0 instructions: 20000001 cycles: 3384026 heartbeat IPC: 5.998 cumulative IPC: 5.91 (Simulation time: 00 hr 01 min 07 sec)
Heartbeat CPU 0 instructions: 30000000 cycles: 5050890 heartbeat IPC: 5.999 cumulative IPC: 5.94 (Simulation time: 00 hr 01 min 40 sec)
Warmup finished CPU 0 instructions: 30000000 cycles: 5050891 cumulative IPC: 5.94 (Simulation time: 00 hr 01 min 40 sec)
Warmup complete CPU 0 instructions: 30000000 cycles: 5050891 cumulative IPC: 5.94 (Simulation time: 00 hr 01 min 40 sec)
Heartbeat CPU 0 instructions: 40000002 cycles: 6800409 heartbeat IPC: 5.716 cumulative IPC: 5.716 (Simulation time: 00 hr 02 min 25 sec)
Heartbeat CPU 0 instructions: 50000002 cycles: 8570587 heartbeat IPC: 5.649 cumulative IPC: 5.682 (Simulation time: 00 hr 03 min 12 sec)
Heartbeat CPU 0 instructions: 60000009 cycles: 10328642 heartbeat IPC: 5.688 cumulative IPC: 5.684 (Simulation time: 00 hr 03 min 59 sec)
Heartbeat CPU 0 instructions: 70000000 cycles: 12092937 heartbeat IPC: 5.668 cumulative IPC: 5.68 (Simulation time: 00 hr 04 min 39 sec)
Heartbeat CPU 0 instructions: 80000003 cycles: 13852679 heartbeat IPC: 5.683 cumulative IPC: 5.681 (Simulation time: 00 hr 05 min 20 sec)
Heartbeat CPU 0 instructions: 90000004 cycles: 15646144 heartbeat IPC: 5.576 cumulative IPC: 5.663 (Simulation time: 00 hr 06 min 01 sec)
Heartbeat CPU 0 instructions: 100000011 cycles: 17415417 heartbeat IPC: 5.652 cumulative IPC: 5.661 (Simulation time: 00 hr 06 min 42 sec)
*** Reached end of trace: (0, "../traces/secret_traces/compute_fp/compute_fp_31.champsimtrace.xz")
Heartbeat CPU 0 instructions: 110000004 cycles: 19569524 heartbeat IPC: 4.642 cumulative IPC: 5.51 (Simulation time: 00 hr 07 min 25 sec)
Heartbeat CPU 0 instructions: 120000011 cycles: 21284044 heartbeat IPC: 5.833 cumulative IPC: 5.544 (Simulation time: 00 hr 08 min 06 sec)
Heartbeat CPU 0 instructions: 130000001 cycles: 22968509 heartbeat IPC: 5.937 cumulative IPC: 5.581 (Simulation time: 00 hr 08 min 45 sec)
Simulation finished CPU 0 instructions: 100000001 cycles: 17917619 cumulative IPC: 5.581 (Simulation time: 00 hr 08 min 45 sec)
Simulation complete CPU 0 instructions: 100000001 cycles: 17917619 cumulative IPC: 5.581 (Simulation time: 00 hr 08 min 45 sec)

ChampSim completed all CPUs

=== Simulation ===
CPU 0 runs ../traces/secret_traces/compute_fp/compute_fp_31.champsimtrace.xz
Region of Interest Statistics

CPU 0 cumulative IPC: 5.581 instructions: 100000001 cycles: 17917619
CPU 0 Branch Prediction Accuracy: 99.61% MPKI: 0.3649 Average ROB Occupancy at Mispredict: 53.98
Branch type MPKI
BRANCH_DIRECT_JUMP: 0.00836
BRANCH_INDIRECT: 0.0813
BRANCH_CONDITIONAL: 0.24
BRANCH_DIRECT_CALL: 0.0212
BRANCH_INDIRECT_CALL: 0.00252
BRANCH_RETURN: 0.0116

LLC TOTAL        ACCESS:      87658 HIT:      78646 MISS:       9012
LLC LOAD         ACCESS:      14572 HIT:      11666 MISS:       2906
LLC RFO          ACCESS:      26278 HIT:      25770 MISS:        508
LLC PREFETCH     ACCESS:      16087 HIT:      11379 MISS:       4708
LLC WRITE        ACCESS:      30427 HIT:      29749 MISS:        678
LLC TRANSLATION  ACCESS:        294 HIT:         82 MISS:        212
LLC PREFETCH REQUESTED:          0 ISSUED:          0 USEFUL:          0 USELESS:          0
LLC AVERAGE MISS LATENCY: 127.6 cycles
cpu0_DTLB TOTAL        ACCESS:   15697402 HIT:   15588111 MISS:     109291
cpu0_DTLB LOAD         ACCESS:   15697402 HIT:   15588111 MISS:     109291
cpu0_DTLB RFO          ACCESS:          0 HIT:          0 MISS:          0
cpu0_DTLB PREFETCH     ACCESS:          0 HIT:          0 MISS:          0
cpu0_DTLB WRITE        ACCESS:          0 HIT:          0 MISS:          0
cpu0_DTLB TRANSLATION  ACCESS:          0 HIT:          0 MISS:          0
cpu0_DTLB PREFETCH REQUESTED:          0 ISSUED:          0 USEFUL:          0 USELESS:          0
cpu0_DTLB AVERAGE MISS LATENCY: 4.336 cycles
cpu0_ITLB TOTAL        ACCESS:    6200539 HIT:    6198998 MISS:       1541
cpu0_ITLB LOAD         ACCESS:    6200539 HIT:    6198998 MISS:       1541
cpu0_ITLB RFO          ACCESS:          0 HIT:          0 MISS:          0
cpu0_ITLB PREFETCH     ACCESS:          0 HIT:          0 MISS:          0
cpu0_ITLB WRITE        ACCESS:          0 HIT:          0 MISS:          0
cpu0_ITLB TRANSLATION  ACCESS:          0 HIT:          0 MISS:          0
cpu0_ITLB PREFETCH REQUESTED:          0 ISSUED:          0 USEFUL:          0 USELESS:          0
cpu0_ITLB AVERAGE MISS LATENCY: 14.36 cycles
cpu0_L1D TOTAL        ACCESS:   24324905 HIT:   24042698 MISS:     282207
cpu0_L1D LOAD         ACCESS:   16175053 HIT:   16046076 MISS:     128977
cpu0_L1D RFO          ACCESS:          0 HIT:          0 MISS:          0
cpu0_L1D PREFETCH     ACCESS:     113019 HIT:      77200 MISS:      35819
cpu0_L1D WRITE        ACCESS:    8036404 HIT:    7919349 MISS:     117055
cpu0_L1D TRANSLATION  ACCESS:        429 HIT:         73 MISS:        356
cpu0_L1D PREFETCH REQUESTED:     288711 ISSUED:     113019 USEFUL:       1793 USELESS:        206
cpu0_L1D AVERAGE MISS LATENCY: 9.328 cycles
cpu0_L1I TOTAL        ACCESS:    9527060 HIT:    9337351 MISS:     189709
cpu0_L1I LOAD         ACCESS:    4098816 HIT:    4016888 MISS:      81928
cpu0_L1I RFO          ACCESS:          0 HIT:          0 MISS:          0
cpu0_L1I PREFETCH     ACCESS:    5428244 HIT:    5320463 MISS:     107781
cpu0_L1I WRITE        ACCESS:          0 HIT:          0 MISS:          0
cpu0_L1I TRANSLATION  ACCESS:          0 HIT:          0 MISS:          0
cpu0_L1I PREFETCH REQUESTED:   22435746 ISSUED:    5428248 USEFUL:      59912 USELESS:      38539
cpu0_L1I AVERAGE MISS LATENCY: 9.786 cycles
cpu0_L2C TOTAL        ACCESS:     628726 HIT:     561742 MISS:      66984
cpu0_L2C LOAD         ACCESS:     127775 HIT:     112493 MISS:      15282
cpu0_L2C RFO          ACCESS:      56453 HIT:      30171 MISS:      26282
cpu0_L2C PREFETCH     ACCESS:     375655 HIT:     350530 MISS:      25125
cpu0_L2C WRITE        ACCESS:      68487 HIT:      68486 MISS:          1
cpu0_L2C TRANSLATION  ACCESS:        356 HIT:         62 MISS:        294
cpu0_L2C PREFETCH REQUESTED:     255595 ISSUED:     247984 USEFUL:       4005 USELESS:       3553
cpu0_L2C AVERAGE MISS LATENCY: 34.37 cycles
cpu0_STLB TOTAL        ACCESS:      69555 HIT:      69194 MISS:        361
cpu0_STLB LOAD         ACCESS:      69555 HIT:      69194 MISS:        361
cpu0_STLB RFO          ACCESS:          0 HIT:          0 MISS:          0
cpu0_STLB PREFETCH     ACCESS:          0 HIT:          0 MISS:          0
cpu0_STLB WRITE        ACCESS:          0 HIT:          0 MISS:          0
cpu0_STLB TRANSLATION  ACCESS:          0 HIT:          0 MISS:          0
cpu0_STLB PREFETCH REQUESTED:          0 ISSUED:          0 USEFUL:          0 USELESS:          0
cpu0_STLB AVERAGE MISS LATENCY: 175.9 cycles

DRAM Statistics

Channel 0 RQ ROW_BUFFER_HIT:       1933
  ROW_BUFFER_MISS:       2387
 AVG DBUS CONGESTED CYCLE: 3.694
WQ ROW_BUFFER_HIT: Channel 0 
  ROW_BUFFER_MISS:         65
  FULL:        200

Channel 1 RQ ROW_BUFFER_HIT:       1776
  ROW_BUFFER_MISS:       2238
 AVG DBUS CONGESTED CYCLE: 3.669
WQ ROW_BUFFER_HIT: Channel 1 
  ROW_BUFFER_MISS:         56
  FULL:        154
BERTI TO_L1: 155704 TO_L2: 283423 TO_L2_BC_MSHR: 48214
BERTI AVG_LAT: 18.5239 NUM_TRACK_LATENCY: 117235 NUM_CANT_TRACK_LATENCY: 0
BERTI CROSS_PAGE 65195 NO_CROSS_PAGE: 373932
BERTI FOUND_BERTI: 2230369 NO_FOUND_BERTI: 20531334
BERTI AVERAGE_ISSUED: 2.68751
CPU 0 L1I Entangling prefetcher final stats
IP accesses: b712 2dc480 71375 / 4100099
IP misses: b751 2dd440 2530 / 83211
IP hits: 0 0 0 / 0
IP late: 89d1 227440 832 / 31817
IP wrong: 9111 244440 926 / 37750
miss rate: 0.0202949
coverage: 0
coverage_late: 0.382366
accuracy: 0
accuracy_late: 0.457358
discarded: 0
evicts entangled j table: 0
evicts entangled k table: 2724
max bb size: 68
formats: 437 0 2562 822 574 1334 0 
hist_lookups: 4030 5243 5038 2760 1608 1216 931 603 413 352 260 176 86 39 9 0 0 2886 
hist_lookups_evict: 0 %
hist_lookups_shortlat: 11.2515 %
bb_found_hist: 0 577183 313721 188737 85416 135983 78999 32625 28708 42743 31123 6442 11245 12271 17693 25957 251 16620 3215 2473 1599 3947 4514 8509 0 5607 0 9314 0 1243 2148 0 0 700 0 129 0 1813 0 0 654 0 0 635 0 0 0 690 0 2 0 0 0 640 0 0 0 0 0 0 0 0 0 0 
bb_found_summary: 6930791 1653549 4.19147
entangled_found_hist: 0 343367 232738 387301 73332 56428 21645 0 
entangled_found_summary: 2676084 1114811 2.40049
bb_ent_found_hist: 0 548882 255130 316019 227586 140984 246099 85329 48670 74872 29237 24806 24684 44610 278 91372 720 7399 1455 14362 0 1339 33284 34229 0 10631 0 29998 0 1090 7357 0 0 0 0 709 0 0 0 0 0 0 0 0 0 0 0 1972 0 2 0 0 0 0 0 0 0 0 0 0 0 0 0 0 
bb_ent_found_summary: 13005057 2303105 5.64675
