WARNING: physical memory size is smaller than virtual memory size.

*** ChampSim Multicore Out-of-Order Simulator ***
Warmup Instructions: 30000000
Simulation Instructions: 100000000
Number of CPUs: 1
Page size: 4096

BTB:
Basic BTB sets: 1024 ways: 8
Indirect:
history lengths: 0 0 10 16 27 44 60 96 109 219 449 487 714 1313 2146 3881 
ITTAGE tables: 64768 bytes;Region table: 240 bytes;IUM: 384 bytes;Total Storage= 65392 bytes;
RAS:
RAS size: 64
[LLC] Demand IPV: 1 2 2 1 4 Prefetch IPV: 1 2 1 1 4
Berti Prefetcher
CPU 0 Entangling prefetcher
Off-chip DRAM Size: 8 GiB Channels: 2 Width: 64-bit Data Race: 6400 MT/s
Heartbeat CPU 0 instructions: 10000008 cycles: 1724239 heartbeat IPC: 5.8 cumulative IPC: 5.8 (Simulation time: 00 hr 00 min 44 sec)
Heartbeat CPU 0 instructions: 20000003 cycles: 3440956 heartbeat IPC: 5.825 cumulative IPC: 5.812 (Simulation time: 00 hr 01 min 28 sec)
Heartbeat CPU 0 instructions: 30000007 cycles: 5196054 heartbeat IPC: 5.698 cumulative IPC: 5.774 (Simulation time: 00 hr 02 min 15 sec)
Warmup finished CPU 0 instructions: 30000007 cycles: 5196055 cumulative IPC: 5.774 (Simulation time: 00 hr 02 min 15 sec)
Warmup complete CPU 0 instructions: 30000007 cycles: 5196055 cumulative IPC: 5.774 (Simulation time: 00 hr 02 min 15 sec)
Heartbeat CPU 0 instructions: 40000007 cycles: 13638598 heartbeat IPC: 1.184 cumulative IPC: 1.184 (Simulation time: 00 hr 04 min 26 sec)
Heartbeat CPU 0 instructions: 50000000 cycles: 20117180 heartbeat IPC: 1.544 cumulative IPC: 1.34 (Simulation time: 00 hr 06 min 15 sec)
Heartbeat CPU 0 instructions: 60000001 cycles: 28749382 heartbeat IPC: 1.158 cumulative IPC: 1.274 (Simulation time: 00 hr 08 min 29 sec)
Heartbeat CPU 0 instructions: 70000002 cycles: 36121397 heartbeat IPC: 1.356 cumulative IPC: 1.293 (Simulation time: 00 hr 10 min 53 sec)
Heartbeat CPU 0 instructions: 80000003 cycles: 44836958 heartbeat IPC: 1.147 cumulative IPC: 1.261 (Simulation time: 00 hr 13 min 30 sec)
Heartbeat CPU 0 instructions: 90000008 cycles: 54250213 heartbeat IPC: 1.062 cumulative IPC: 1.223 (Simulation time: 00 hr 15 min 51 sec)
Heartbeat CPU 0 instructions: 100000011 cycles: 61005053 heartbeat IPC: 1.48 cumulative IPC: 1.254 (Simulation time: 00 hr 17 min 38 sec)
*** Reached end of trace: (0, "../traces/secret_traces/compute_fp/compute_fp_12.champsimtrace.xz")
Heartbeat CPU 0 instructions: 110000007 cycles: 69288106 heartbeat IPC: 1.207 cumulative IPC: 1.248 (Simulation time: 00 hr 19 min 42 sec)
Heartbeat CPU 0 instructions: 120000009 cycles: 78678074 heartbeat IPC: 1.065 cumulative IPC: 1.225 (Simulation time: 00 hr 22 min 09 sec)
Heartbeat CPU 0 instructions: 130000005 cycles: 85172023 heartbeat IPC: 1.54 cumulative IPC: 1.25 (Simulation time: 00 hr 24 min 02 sec)
Simulation finished CPU 0 instructions: 100000010 cycles: 79975970 cumulative IPC: 1.25 (Simulation time: 00 hr 24 min 02 sec)
Simulation complete CPU 0 instructions: 100000010 cycles: 79975970 cumulative IPC: 1.25 (Simulation time: 00 hr 24 min 02 sec)

ChampSim completed all CPUs

=== Simulation ===
CPU 0 runs ../traces/secret_traces/compute_fp/compute_fp_12.champsimtrace.xz
Region of Interest Statistics

CPU 0 cumulative IPC: 1.25 instructions: 100000010 cycles: 79975970
CPU 0 Branch Prediction Accuracy: 99.72% MPKI: 0.1627 Average ROB Occupancy at Mispredict: 65.64
Branch type MPKI
BRANCH_DIRECT_JUMP: 0.0111
BRANCH_INDIRECT: 0.0711
BRANCH_CONDITIONAL: 0.0447
BRANCH_DIRECT_CALL: 0.0216
BRANCH_INDIRECT_CALL: 0.00235
BRANCH_RETURN: 0.0118

LLC TOTAL        ACCESS:    3619664 HIT:     329912 MISS:    3289752
LLC LOAD         ACCESS:     317389 HIT:      27359 MISS:     290030
LLC RFO          ACCESS:     165830 HIT:      20703 MISS:     145127
LLC PREFETCH     ACCESS:    2319333 HIT:     152075 MISS:    2167258
LLC WRITE        ACCESS:     810261 HIT:     129649 MISS:     680612
LLC TRANSLATION  ACCESS:       6851 HIT:        126 MISS:       6725
LLC PREFETCH REQUESTED:          0 ISSUED:          0 USEFUL:          0 USELESS:          0
LLC AVERAGE MISS LATENCY: 440.7 cycles
cpu0_DTLB TOTAL        ACCESS:   20602677 HIT:   20357144 MISS:     245533
cpu0_DTLB LOAD         ACCESS:   20602677 HIT:   20357144 MISS:     245533
cpu0_DTLB RFO          ACCESS:          0 HIT:          0 MISS:          0
cpu0_DTLB PREFETCH     ACCESS:          0 HIT:          0 MISS:          0
cpu0_DTLB WRITE        ACCESS:          0 HIT:          0 MISS:          0
cpu0_DTLB TRANSLATION  ACCESS:          0 HIT:          0 MISS:          0
cpu0_DTLB PREFETCH REQUESTED:          0 ISSUED:          0 USEFUL:          0 USELESS:          0
cpu0_DTLB AVERAGE MISS LATENCY: 25.76 cycles
cpu0_ITLB TOTAL        ACCESS:     678027 HIT:     676290 MISS:       1737
cpu0_ITLB LOAD         ACCESS:     678027 HIT:     676290 MISS:       1737
cpu0_ITLB RFO          ACCESS:          0 HIT:          0 MISS:          0
cpu0_ITLB PREFETCH     ACCESS:          0 HIT:          0 MISS:          0
cpu0_ITLB WRITE        ACCESS:          0 HIT:          0 MISS:          0
cpu0_ITLB TRANSLATION  ACCESS:          0 HIT:          0 MISS:          0
cpu0_ITLB PREFETCH REQUESTED:          0 ISSUED:          0 USEFUL:          0 USELESS:          0
cpu0_ITLB AVERAGE MISS LATENCY: 77.51 cycles
cpu0_L1D TOTAL        ACCESS:   39106867 HIT:   26850012 MISS:   12256855
cpu0_L1D LOAD         ACCESS:   23099451 HIT:   17506904 MISS:    5592547
cpu0_L1D RFO          ACCESS:          0 HIT:          0 MISS:          0
cpu0_L1D PREFETCH     ACCESS:    8226823 HIT:    3455832 MISS:    4770991
cpu0_L1D WRITE        ACCESS:    7744381 HIT:    5873345 MISS:    1871036
cpu0_L1D TRANSLATION  ACCESS:      36212 HIT:      13931 MISS:      22281
cpu0_L1D PREFETCH REQUESTED:  127456385 ISSUED:    8226794 USEFUL:    1267640 USELESS:      70126
cpu0_L1D AVERAGE MISS LATENCY: 57.66 cycles
cpu0_L1I TOTAL        ACCESS:    1023670 HIT:     979725 MISS:      43945
cpu0_L1I LOAD         ACCESS:     471606 HIT:     458180 MISS:      13426
cpu0_L1I RFO          ACCESS:          0 HIT:          0 MISS:          0
cpu0_L1I PREFETCH     ACCESS:     552064 HIT:     521545 MISS:      30519
cpu0_L1I WRITE        ACCESS:          0 HIT:          0 MISS:          0
cpu0_L1I TRANSLATION  ACCESS:          0 HIT:          0 MISS:          0
cpu0_L1I PREFETCH REQUESTED:     797301 ISSUED:     552064 USEFUL:      17687 USELESS:      10450
cpu0_L1I AVERAGE MISS LATENCY: 149.6 cycles
cpu0_L2C TOTAL        ACCESS:   13764477 HIT:    6506943 MISS:    7257534
cpu0_L2C LOAD         ACCESS:    2136078 HIT:    1016189 MISS:    1119889
cpu0_L2C RFO          ACCESS:     447949 HIT:     280144 MISS:     167805
cpu0_L2C PREFETCH     ACCESS:    9918326 HIT:    3955452 MISS:    5962874
cpu0_L2C WRITE        ACCESS:    1240264 HIT:    1240151 MISS:        113
cpu0_L2C TRANSLATION  ACCESS:      21860 HIT:      15007 MISS:       6853
cpu0_L2C PREFETCH REQUESTED:    6252336 ISSUED:    5998019 USEFUL:    1105183 USELESS:     222399
cpu0_L2C AVERAGE MISS LATENCY: 187.6 cycles
cpu0_STLB TOTAL        ACCESS:     171469 HIT:     135742 MISS:      35727
cpu0_STLB LOAD         ACCESS:     171469 HIT:     135742 MISS:      35727
cpu0_STLB RFO          ACCESS:          0 HIT:          0 MISS:          0
cpu0_STLB PREFETCH     ACCESS:          0 HIT:          0 MISS:          0
cpu0_STLB WRITE        ACCESS:          0 HIT:          0 MISS:          0
cpu0_STLB TRANSLATION  ACCESS:          0 HIT:          0 MISS:          0
cpu0_STLB PREFETCH REQUESTED:          0 ISSUED:          0 USEFUL:          0 USELESS:          0
cpu0_STLB AVERAGE MISS LATENCY: 184.2 cycles

DRAM Statistics

Channel 0 RQ ROW_BUFFER_HIT:     451009
  ROW_BUFFER_MISS:     859591
 AVG DBUS CONGESTED CYCLE: 3.956
WQ ROW_BUFFER_HIT: Channel 0 
  ROW_BUFFER_MISS:      43202
  FULL:     308434

Channel 1 RQ ROW_BUFFER_HIT:     445236
  ROW_BUFFER_MISS:     853097
 AVG DBUS CONGESTED CYCLE: 3.951
WQ ROW_BUFFER_HIT: Channel 1 
  ROW_BUFFER_MISS:      46678
  FULL:     304318
BERTI TO_L1: 42596252 TO_L2: 105799853 TO_L2_BC_MSHR: 51274657
BERTI AVG_LAT: 238.766 NUM_TRACK_LATENCY: 4518244 NUM_CANT_TRACK_LATENCY: 275
BERTI CROSS_PAGE 44173138 NO_CROSS_PAGE: 104222967
BERTI FOUND_BERTI: 29107918 NO_FOUND_BERTI: 16198788
BERTI AVERAGE_ISSUED: 3.41344
CPU 0 L1I Entangling prefetcher final stats
IP accesses: 14f9 53e40 7491 / 503582
IP misses: eafd 3abf40 1073 / 45402
IP hits: 0 0 0 / 0
IP late: 5aeb 16bac0 17 / 6504
IP wrong: e8e9 3a3a40 30 / 10397
miss rate: 0.0901582
coverage: 0
coverage_late: 0.143254
accuracy: 0
accuracy_late: 0.38483
discarded: 0
evicts entangled j table: 0
evicts entangled k table: 1646
max bb size: 65
formats: 509 0 1407 800 372 780 0 
hist_lookups: 1322 1319 1029 951 858 745 544 400 361 284 210 137 96 50 28 0 3 3967 
hist_lookups_evict: 0.0243824 %
hist_lookups_shortlat: 32.2416 %
bb_found_hist: 0 46665 16562 8710 6112 3678 4172 1790 844 1392 1585 279 183 8 828 807 17 801 0 240 220 0 0 2 237 0 237 480 0 0 0 0 0 0 0 0 3 474 0 6 0 6 4 0 0 0 0 0 0 0 2 0 0 0 0 0 0 0 0 0 0 0 0 0 
bb_found_summary: 316614 96344 3.28629
entangled_found_hist: 0 26219 14434 14135 3894 1337 124 0 
entangled_found_summary: 120497 60143 2.00351
bb_ent_found_hist: 0 33195 17357 7963 6464 4232 2421 1895 3072 3521 2375 455 439 89 1099 631 0 631 0 532 33 0 0 4 237 0 475 2105 0 0 0 0 0 0 0 0 0 0 0 6 0 0 0 0 0 0 0 0 0 0 6 0 0 0 0 0 0 0 0 0 0 0 0 0 
bb_ent_found_summary: 379895 89237 4.25715
