WARNING: physical memory size is smaller than virtual memory size.

*** ChampSim Multicore Out-of-Order Simulator ***
Warmup Instructions: 30000000
Simulation Instructions: 100000000
Number of CPUs: 1
Page size: 4096

BTB:
Basic BTB sets: 1024 ways: 8
Indirect:
history lengths: 0 0 10 16 27 44 60 96 109 219 449 487 714 1313 2146 3881 
ITTAGE tables: 64768 bytes;Region table: 240 bytes;IUM: 384 bytes;Total Storage= 65392 bytes;
RAS:
RAS size: 64
[LLC] Demand IPV: 1 2 2 1 4 Prefetch IPV: 1 2 1 1 4
Berti Prefetcher
CPU 0 Entangling prefetcher
Off-chip DRAM Size: 8 GiB Channels: 2 Width: 64-bit Data Race: 6400 MT/s
Heartbeat CPU 0 instructions: 10000008 cycles: 1716625 heartbeat IPC: 5.825 cumulative IPC: 5.825 (Simulation time: 00 hr 00 min 32 sec)
Heartbeat CPU 0 instructions: 20000001 cycles: 3383961 heartbeat IPC: 5.998 cumulative IPC: 5.91 (Simulation time: 00 hr 01 min 05 sec)
Heartbeat CPU 0 instructions: 30000000 cycles: 5050963 heartbeat IPC: 5.999 cumulative IPC: 5.939 (Simulation time: 00 hr 01 min 40 sec)
Warmup finished CPU 0 instructions: 30000000 cycles: 5050964 cumulative IPC: 5.939 (Simulation time: 00 hr 01 min 40 sec)
Warmup complete CPU 0 instructions: 30000000 cycles: 5050964 cumulative IPC: 5.939 (Simulation time: 00 hr 01 min 40 sec)
Heartbeat CPU 0 instructions: 40000011 cycles: 6970705 heartbeat IPC: 5.209 cumulative IPC: 5.209 (Simulation time: 00 hr 02 min 33 sec)
Heartbeat CPU 0 instructions: 50000005 cycles: 8939838 heartbeat IPC: 5.078 cumulative IPC: 5.143 (Simulation time: 00 hr 03 min 15 sec)
Heartbeat CPU 0 instructions: 60000007 cycles: 10873629 heartbeat IPC: 5.171 cumulative IPC: 5.152 (Simulation time: 00 hr 03 min 54 sec)
Heartbeat CPU 0 instructions: 70000011 cycles: 12766110 heartbeat IPC: 5.284 cumulative IPC: 5.185 (Simulation time: 00 hr 04 min 33 sec)
Heartbeat CPU 0 instructions: 80000009 cycles: 14647436 heartbeat IPC: 5.315 cumulative IPC: 5.21 (Simulation time: 00 hr 05 min 10 sec)
Heartbeat CPU 0 instructions: 90000002 cycles: 16540550 heartbeat IPC: 5.282 cumulative IPC: 5.222 (Simulation time: 00 hr 05 min 49 sec)
Heartbeat CPU 0 instructions: 100000011 cycles: 18433743 heartbeat IPC: 5.282 cumulative IPC: 5.231 (Simulation time: 00 hr 06 min 28 sec)
*** Reached end of trace: (0, "../traces/secret_traces/compute_fp/compute_fp_86.champsimtrace.xz")
Heartbeat CPU 0 instructions: 110000000 cycles: 20837337 heartbeat IPC: 4.16 cumulative IPC: 5.068 (Simulation time: 00 hr 07 min 10 sec)
Heartbeat CPU 0 instructions: 120000005 cycles: 22846660 heartbeat IPC: 4.977 cumulative IPC: 5.057 (Simulation time: 00 hr 07 min 52 sec)
Heartbeat CPU 0 instructions: 130000008 cycles: 24759571 heartbeat IPC: 5.228 cumulative IPC: 5.074 (Simulation time: 00 hr 08 min 33 sec)
Simulation finished CPU 0 instructions: 100000008 cycles: 19708608 cumulative IPC: 5.074 (Simulation time: 00 hr 08 min 33 sec)
Simulation complete CPU 0 instructions: 100000008 cycles: 19708608 cumulative IPC: 5.074 (Simulation time: 00 hr 08 min 33 sec)

ChampSim completed all CPUs

=== Simulation ===
CPU 0 runs ../traces/secret_traces/compute_fp/compute_fp_86.champsimtrace.xz
Region of Interest Statistics

CPU 0 cumulative IPC: 5.074 instructions: 100000008 cycles: 19708608
CPU 0 Branch Prediction Accuracy: 96.22% MPKI: 1.589 Average ROB Occupancy at Mispredict: 31.94
Branch type MPKI
BRANCH_DIRECT_JUMP: 0.00724
BRANCH_INDIRECT: 0.0756
BRANCH_CONDITIONAL: 1.47
BRANCH_DIRECT_CALL: 0.0197
BRANCH_INDIRECT_CALL: 0.00232
BRANCH_RETURN: 0.011

LLC TOTAL        ACCESS:      98132 HIT:      77430 MISS:      20702
LLC LOAD         ACCESS:      15927 HIT:      10266 MISS:       5661
LLC RFO          ACCESS:      26365 HIT:      25960 MISS:        405
LLC PREFETCH     ACCESS:      24083 HIT:      11289 MISS:      12794
LLC WRITE        ACCESS:      31437 HIT:      29835 MISS:       1602
LLC TRANSLATION  ACCESS:        320 HIT:         80 MISS:        240
LLC PREFETCH REQUESTED:          0 ISSUED:          0 USEFUL:          0 USELESS:          0
LLC AVERAGE MISS LATENCY: 115 cycles
cpu0_DTLB TOTAL        ACCESS:   15317486 HIT:   15307795 MISS:       9691
cpu0_DTLB LOAD         ACCESS:   15317486 HIT:   15307795 MISS:       9691
cpu0_DTLB RFO          ACCESS:          0 HIT:          0 MISS:          0
cpu0_DTLB PREFETCH     ACCESS:          0 HIT:          0 MISS:          0
cpu0_DTLB WRITE        ACCESS:          0 HIT:          0 MISS:          0
cpu0_DTLB TRANSLATION  ACCESS:          0 HIT:          0 MISS:          0
cpu0_DTLB PREFETCH REQUESTED:          0 ISSUED:          0 USEFUL:          0 USELESS:          0
cpu0_DTLB AVERAGE MISS LATENCY: 8.893 cycles
cpu0_ITLB TOTAL        ACCESS:     117528 HIT:     116134 MISS:       1394
cpu0_ITLB LOAD         ACCESS:     117528 HIT:     116134 MISS:       1394
cpu0_ITLB RFO          ACCESS:          0 HIT:          0 MISS:          0
cpu0_ITLB PREFETCH     ACCESS:          0 HIT:          0 MISS:          0
cpu0_ITLB WRITE        ACCESS:          0 HIT:          0 MISS:          0
cpu0_ITLB TRANSLATION  ACCESS:          0 HIT:          0 MISS:          0
cpu0_ITLB PREFETCH REQUESTED:          0 ISSUED:          0 USEFUL:          0 USELESS:          0
cpu0_ITLB AVERAGE MISS LATENCY: 12.64 cycles
cpu0_L1D TOTAL        ACCESS:   23715132 HIT:   20849177 MISS:    2865955
cpu0_L1D LOAD         ACCESS:   13510963 HIT:   11941731 MISS:    1569232
cpu0_L1D RFO          ACCESS:          0 HIT:          0 MISS:          0
cpu0_L1D PREFETCH     ACCESS:    2295082 HIT:    1206275 MISS:    1088807
cpu0_L1D WRITE        ACCESS:    7908467 HIT:    7701028 MISS:     207439
cpu0_L1D TRANSLATION  ACCESS:        620 HIT:        143 MISS:        477
cpu0_L1D PREFETCH REQUESTED:    3150316 ISSUED:    2295082 USEFUL:      68440 USELESS:      22793
cpu0_L1D AVERAGE MISS LATENCY: 2.703 cycles
cpu0_L1I TOTAL        ACCESS:     171016 HIT:     136815 MISS:      34201
cpu0_L1I LOAD         ACCESS:      60364 HIT:      49509 MISS:      10855
cpu0_L1I RFO          ACCESS:          0 HIT:          0 MISS:          0
cpu0_L1I PREFETCH     ACCESS:     110652 HIT:      87306 MISS:      23346
cpu0_L1I WRITE        ACCESS:          0 HIT:          0 MISS:          0
cpu0_L1I TRANSLATION  ACCESS:          0 HIT:          0 MISS:          0
cpu0_L1I PREFETCH REQUESTED:     175360 ISSUED:     110652 USEFUL:      12746 USELESS:       8834
cpu0_L1I AVERAGE MISS LATENCY: 21.79 cycles
cpu0_L2C TOTAL        ACCESS:    3563972 HIT:    3473486 MISS:      90486
cpu0_L2C LOAD         ACCESS:     644802 HIT:     626648 MISS:      18154
cpu0_L2C RFO          ACCESS:      58115 HIT:      31744 MISS:      26371
cpu0_L2C PREFETCH     ACCESS:    2587194 HIT:    2541553 MISS:      45641
cpu0_L2C WRITE        ACCESS:     273391 HIT:     273391 MISS:          0
cpu0_L2C TRANSLATION  ACCESS:        470 HIT:        150 MISS:        320
cpu0_L2C PREFETCH REQUESTED:    1704420 ISSUED:    1527637 USEFUL:       8119 USELESS:       4456
cpu0_L2C AVERAGE MISS LATENCY: 40.47 cycles
cpu0_STLB TOTAL        ACCESS:       4999 HIT:       4433 MISS:        566
cpu0_STLB LOAD         ACCESS:       4999 HIT:       4433 MISS:        566
cpu0_STLB RFO          ACCESS:          0 HIT:          0 MISS:          0
cpu0_STLB PREFETCH     ACCESS:          0 HIT:          0 MISS:          0
cpu0_STLB WRITE        ACCESS:          0 HIT:          0 MISS:          0
cpu0_STLB TRANSLATION  ACCESS:          0 HIT:          0 MISS:          0
cpu0_STLB PREFETCH REQUESTED:          0 ISSUED:          0 USEFUL:          0 USELESS:          0
cpu0_STLB AVERAGE MISS LATENCY: 154.7 cycles

DRAM Statistics

Channel 0 RQ ROW_BUFFER_HIT:       5641
  ROW_BUFFER_MISS:       4045
 AVG DBUS CONGESTED CYCLE: 3.75
WQ ROW_BUFFER_HIT: Channel 0 
  ROW_BUFFER_MISS:        144
  FULL:        489

Channel 1 RQ ROW_BUFFER_HIT:       5424
  ROW_BUFFER_MISS:       3989
 AVG DBUS CONGESTED CYCLE: 3.762
WQ ROW_BUFFER_HIT: Channel 1 
  ROW_BUFFER_MISS:        137
  FULL:        397
BERTI TO_L1: 1300244 TO_L2: 3200934 TO_L2_BC_MSHR: 74286
BERTI AVG_LAT: 12.7307 NUM_TRACK_LATENCY: 947669 NUM_CANT_TRACK_LATENCY: 0
BERTI CROSS_PAGE 637440 NO_CROSS_PAGE: 3863738
BERTI FOUND_BERTI: 9080296 NO_FOUND_BERTI: 9039555
BERTI AVERAGE_ISSUED: 3.61295
CPU 0 L1I Entangling prefetcher final stats
IP accesses: 5aeb 16bac0 243 / 60953
IP misses: 5571 155c40 134 / 11444
IP hits: 0 0 0 / 0
IP late: 5a81 16a040 12 / 5465
IP wrong: e8e9 3a3a40 22 / 8779
miss rate: 0.187752
coverage: 0
coverage_late: 0.477543
accuracy: 0
accuracy_late: 0.383671
discarded: 0
evicts entangled j table: 0
evicts entangled k table: 1773
max bb size: 45
formats: 463 0 1421 732 328 695 0 
hist_lookups: 1142 1337 1160 1046 926 721 559 480 401 278 198 123 67 39 11 0 0 2495 
hist_lookups_evict: 0 %
hist_lookups_shortlat: 22.717 %
bb_found_hist: 0 14766 6191 2857 1213 772 251 60 28 17 11 4 27 16 3 2 18 0 0 0 0 0 29 0 0 0 0 0 0 0 0 0 0 0 0 0 0 0 0 0 0 0 0 0 0 1 0 0 0 0 0 0 0 0 0 0 0 0 0 0 0 0 0 0 
bb_found_summary: 48463 26266 1.84509
entangled_found_hist: 0 8890 5138 10062 1735 399 60 0 
entangled_found_summary: 58647 26284 2.23129
bb_ent_found_hist: 0 20235 9917 5720 2499 1447 859 181 82 11 26 3 36 55 0 0 0 0 0 0 0 0 37 0 0 0 0 0 0 0 0 0 0 0 0 0 0 0 0 0 0 0 0 0 0 1 0 0 0 0 0 0 0 0 0 0 0 0 0 0 0 0 0 0 
bb_ent_found_summary: 83935 41109 2.04177
