WARNING: physical memory size is smaller than virtual memory size.

*** ChampSim Multicore Out-of-Order Simulator ***
Warmup Instructions: 30000000
Simulation Instructions: 100000000
Number of CPUs: 1
Page size: 4096

BTB:
Basic BTB sets: 1024 ways: 8
Indirect:
history lengths: 0 0 10 16 27 44 60 96 109 219 449 487 714 1313 2146 3881 
ITTAGE tables: 64768 bytes;Region table: 240 bytes;IUM: 384 bytes;Total Storage= 65392 bytes;
RAS:
RAS size: 64
[LLC] Demand IPV: 1 2 2 1 4 Prefetch IPV: 1 2 1 1 4
Berti Prefetcher
CPU 0 Entangling prefetcher
Off-chip DRAM Size: 8 GiB Channels: 2 Width: 64-bit Data Race: 6400 MT/s
Heartbeat CPU 0 instructions: 10000007 cycles: 1770390 heartbeat IPC: 5.648 cumulative IPC: 5.648 (Simulation time: 00 hr 00 min 51 sec)
Heartbeat CPU 0 instructions: 20000001 cycles: 3511248 heartbeat IPC: 5.744 cumulative IPC: 5.696 (Simulation time: 00 hr 01 min 39 sec)
Heartbeat CPU 0 instructions: 30000007 cycles: 5195945 heartbeat IPC: 5.936 cumulative IPC: 5.774 (Simulation time: 00 hr 02 min 31 sec)
Warmup finished CPU 0 instructions: 30000007 cycles: 5195946 cumulative IPC: 5.774 (Simulation time: 00 hr 02 min 31 sec)
Warmup complete CPU 0 instructions: 30000007 cycles: 5195946 cumulative IPC: 5.774 (Simulation time: 00 hr 02 min 31 sec)
Heartbeat CPU 0 instructions: 40000000 cycles: 18670770 heartbeat IPC: 0.7421 cumulative IPC: 0.7421 (Simulation time: 00 hr 06 min 03 sec)
Heartbeat CPU 0 instructions: 50000007 cycles: 32146443 heartbeat IPC: 0.7421 cumulative IPC: 0.7421 (Simulation time: 00 hr 09 min 06 sec)
Heartbeat CPU 0 instructions: 60000007 cycles: 45617596 heartbeat IPC: 0.7423 cumulative IPC: 0.7422 (Simulation time: 00 hr 12 min 17 sec)
Heartbeat CPU 0 instructions: 70000009 cycles: 59116500 heartbeat IPC: 0.7408 cumulative IPC: 0.7418 (Simulation time: 00 hr 15 min 24 sec)
Heartbeat CPU 0 instructions: 80000006 cycles: 72570120 heartbeat IPC: 0.7433 cumulative IPC: 0.7421 (Simulation time: 00 hr 18 min 36 sec)
Heartbeat CPU 0 instructions: 90000001 cycles: 86061021 heartbeat IPC: 0.7412 cumulative IPC: 0.742 (Simulation time: 00 hr 21 min 47 sec)
Heartbeat CPU 0 instructions: 100000001 cycles: 99529215 heartbeat IPC: 0.7425 cumulative IPC: 0.742 (Simulation time: 00 hr 24 min 49 sec)
*** Reached end of trace: (0, "../traces/secret_traces/compute_fp/compute_fp_130.champsimtrace.xz")
Heartbeat CPU 0 instructions: 110000005 cycles: 110124765 heartbeat IPC: 0.9438 cumulative IPC: 0.7624 (Simulation time: 00 hr 27 min 32 sec)
Heartbeat CPU 0 instructions: 120000001 cycles: 129340335 heartbeat IPC: 0.5204 cumulative IPC: 0.725 (Simulation time: 00 hr 32 min 11 sec)
Heartbeat CPU 0 instructions: 130000002 cycles: 150779842 heartbeat IPC: 0.4664 cumulative IPC: 0.6869 (Simulation time: 00 hr 37 min 48 sec)
Simulation finished CPU 0 instructions: 100000007 cycles: 145583898 cumulative IPC: 0.6869 (Simulation time: 00 hr 37 min 48 sec)
Simulation complete CPU 0 instructions: 100000007 cycles: 145583898 cumulative IPC: 0.6869 (Simulation time: 00 hr 37 min 48 sec)

ChampSim completed all CPUs

=== Simulation ===
CPU 0 runs ../traces/secret_traces/compute_fp/compute_fp_130.champsimtrace.xz
Region of Interest Statistics

CPU 0 cumulative IPC: 0.6869 instructions: 100000007 cycles: 145583898
CPU 0 Branch Prediction Accuracy: 99.34% MPKI: 0.1347 Average ROB Occupancy at Mispredict: 29.26
Branch type MPKI
BRANCH_DIRECT_JUMP: 0.00729
BRANCH_INDIRECT: 0.0661
BRANCH_CONDITIONAL: 0.0271
BRANCH_DIRECT_CALL: 0.0206
BRANCH_INDIRECT_CALL: 0.00232
BRANCH_RETURN: 0.0113

LLC TOTAL        ACCESS:    5704490 HIT:     132809 MISS:    5571681
LLC LOAD         ACCESS:    1422909 HIT:      14818 MISS:    1408091
LLC RFO          ACCESS:     103659 HIT:      24679 MISS:      78980
LLC PREFETCH     ACCESS:    3560411 HIT:      46602 MISS:    3513809
LLC WRITE        ACCESS:     615062 HIT:      46575 MISS:     568487
LLC TRANSLATION  ACCESS:       2449 HIT:        135 MISS:       2314
LLC PREFETCH REQUESTED:          0 ISSUED:          0 USEFUL:          0 USELESS:          0
LLC AVERAGE MISS LATENCY: 471.3 cycles
cpu0_DTLB TOTAL        ACCESS:   16454359 HIT:   14309960 MISS:    2144399
cpu0_DTLB LOAD         ACCESS:   16454359 HIT:   14309960 MISS:    2144399
cpu0_DTLB RFO          ACCESS:          0 HIT:          0 MISS:          0
cpu0_DTLB PREFETCH     ACCESS:          0 HIT:          0 MISS:          0
cpu0_DTLB WRITE        ACCESS:          0 HIT:          0 MISS:          0
cpu0_DTLB TRANSLATION  ACCESS:          0 HIT:          0 MISS:          0
cpu0_DTLB PREFETCH REQUESTED:          0 ISSUED:          0 USEFUL:          0 USELESS:          0
cpu0_DTLB AVERAGE MISS LATENCY: 7.156 cycles
cpu0_ITLB TOTAL        ACCESS:     117887 HIT:     116295 MISS:       1592
cpu0_ITLB LOAD         ACCESS:     117887 HIT:     116295 MISS:       1592
cpu0_ITLB RFO          ACCESS:          0 HIT:          0 MISS:          0
cpu0_ITLB PREFETCH     ACCESS:          0 HIT:          0 MISS:          0
cpu0_ITLB WRITE        ACCESS:          0 HIT:          0 MISS:          0
cpu0_ITLB TRANSLATION  ACCESS:          0 HIT:          0 MISS:          0
cpu0_ITLB PREFETCH REQUESTED:          0 ISSUED:          0 USEFUL:          0 USELESS:          0
cpu0_ITLB AVERAGE MISS LATENCY: 50.19 cycles
cpu0_L1D TOTAL        ACCESS:   24917579 HIT:   10339336 MISS:   14578243
cpu0_L1D LOAD         ACCESS:   18269592 HIT:    6226154 MISS:   12043438
cpu0_L1D RFO          ACCESS:          0 HIT:          0 MISS:          0
cpu0_L1D PREFETCH     ACCESS:    2434132 HIT:     389051 MISS:    2045081
cpu0_L1D WRITE        ACCESS:    4135609 HIT:    3678956 MISS:     456653
cpu0_L1D TRANSLATION  ACCESS:      78246 HIT:      45175 MISS:      33071
cpu0_L1D PREFETCH REQUESTED:  135425795 ISSUED:    2434132 USEFUL:     154501 USELESS:        262
cpu0_L1D AVERAGE MISS LATENCY: 85.23 cycles
cpu0_L1I TOTAL        ACCESS:     170974 HIT:     134895 MISS:      36079
cpu0_L1I LOAD         ACCESS:      59778 HIT:      48605 MISS:      11173
cpu0_L1I RFO          ACCESS:          0 HIT:          0 MISS:          0
cpu0_L1I PREFETCH     ACCESS:     111196 HIT:      86290 MISS:      24906
cpu0_L1I WRITE        ACCESS:          0 HIT:          0 MISS:          0
cpu0_L1I TRANSLATION  ACCESS:          0 HIT:          0 MISS:          0
cpu0_L1I PREFETCH REQUESTED:     167059 ISSUED:     111196 USEFUL:      13523 USELESS:       9264
cpu0_L1I AVERAGE MISS LATENCY: 68.47 cycles
cpu0_L2C TOTAL        ACCESS:   12894834 HIT:    2242796 MISS:   10652038
cpu0_L2C LOAD         ACCESS:    4967157 HIT:     793136 MISS:    4174021
cpu0_L2C RFO          ACCESS:     106725 HIT:       3057 MISS:     103668
cpu0_L2C PREFETCH     ACCESS:    7168484 HIT:     796585 MISS:    6371899
cpu0_L2C WRITE        ACCESS:     619415 HIT:     619414 MISS:          1
cpu0_L2C TRANSLATION  ACCESS:      33053 HIT:      30604 MISS:       2449
cpu0_L2C PREFETCH REQUESTED:    6391342 ISSUED:    5811580 USEFUL:    3073304 USELESS:      36892
cpu0_L2C AVERAGE MISS LATENCY: 197.9 cycles
cpu0_STLB TOTAL        ACCESS:    1329448 HIT:    1251589 MISS:      77859
cpu0_STLB LOAD         ACCESS:    1329448 HIT:    1251589 MISS:      77859
cpu0_STLB RFO          ACCESS:          0 HIT:          0 MISS:          0
cpu0_STLB PREFETCH     ACCESS:          0 HIT:          0 MISS:          0
cpu0_STLB WRITE        ACCESS:          0 HIT:          0 MISS:          0
cpu0_STLB TRANSLATION  ACCESS:          0 HIT:          0 MISS:          0
cpu0_STLB PREFETCH REQUESTED:          0 ISSUED:          0 USEFUL:          0 USELESS:          0
cpu0_STLB AVERAGE MISS LATENCY: 171.7 cycles

DRAM Statistics

Channel 0 RQ ROW_BUFFER_HIT:    1529394
  ROW_BUFFER_MISS:     978948
 AVG DBUS CONGESTED CYCLE: 3.967
WQ ROW_BUFFER_HIT: Channel 0 
  ROW_BUFFER_MISS:      49123
  FULL:     235935

Channel 1 RQ ROW_BUFFER_HIT:    1530783
  ROW_BUFFER_MISS:     964046
 AVG DBUS CONGESTED CYCLE: 3.961
WQ ROW_BUFFER_HIT: Channel 1 
  ROW_BUFFER_MISS:      53086
  FULL:     231522
BERTI TO_L1: 16561663 TO_L2: 155609707 TO_L2_BC_MSHR: 41455555
BERTI AVG_LAT: 282.317 NUM_TRACK_LATENCY: 7163972 NUM_CANT_TRACK_LATENCY: 35
BERTI CROSS_PAGE 43235606 NO_CROSS_PAGE: 128935764
BERTI FOUND_BERTI: 62952411 NO_FOUND_BERTI: 27083948
BERTI AVERAGE_ISSUED: 2.30098
CPU 0 L1I Entangling prefetcher final stats
IP accesses: 44fe 113f80 638 / 71475
IP misses: 44fe 113f80 634 / 22870
IP hits: 0 0 0 / 0
IP late: 5a81 16a040 13 / 5579
IP wrong: 5b89 16e240 19 / 9214
miss rate: 0.319973
coverage: 0
coverage_late: 0.243945
accuracy: 0
accuracy_late: 0.377138
discarded: 0
evicts entangled j table: 0
evicts entangled k table: 1556
max bb size: 65
formats: 428 0 1399 697 303 703 0 
hist_lookups: 1152 1222 963 874 805 663 549 387 347 267 206 122 82 39 14 0 6 3705 
hist_lookups_evict: 0.0526178 %
hist_lookups_shortlat: 32.4915 %
bb_found_hist: 0 14256 6196 2864 1030 666 271 79 49 38 27 4 14 0 3 1 18 0 0 0 0 2 0 0 0 0 0 0 0 0 0 0 0 0 0 0 0 0 0 0 0 0 0 0 0 0 0 0 0 2 0 0 0 0 0 0 0 0 0 0 0 0 0 0 
bb_found_summary: 46570 25520 1.82485
entangled_found_hist: 0 8531 5139 9428 1665 422 82 0 
entangled_found_summary: 56355 25267 2.23038
bb_ent_found_hist: 0 18889 10512 5205 1810 1692 658 232 145 5 65 0 8 0 0 1 0 0 0 0 0 23 0 0 0 0 0 0 0 0 0 0 0 0 0 0 0 0 0 0 0 0 0 0 0 0 0 0 0 3 0 0 0 0 0 0 0 0 0 0 0 0 0 0 
bb_ent_found_summary: 79396 39248 2.02294
