WARNING: physical memory size is smaller than virtual memory size.

*** ChampSim Multicore Out-of-Order Simulator ***
Warmup Instructions: 30000000
Simulation Instructions: 100000000
Number of CPUs: 1
Page size: 4096

BTB:
Basic BTB sets: 1024 ways: 8
Indirect:
history lengths: 0 0 10 16 27 44 60 96 109 219 449 487 714 1313 2146 3881 
ITTAGE tables: 64768 bytes;Region table: 240 bytes;IUM: 384 bytes;Total Storage= 65392 bytes;
RAS:
RAS size: 64
[LLC] Demand IPV: 1 2 2 1 4 Prefetch IPV: 1 2 1 1 4
Berti Prefetcher
CPU 0 Entangling prefetcher
Off-chip DRAM Size: 8 GiB Channels: 2 Width: 64-bit Data Race: 6400 MT/s
Heartbeat CPU 0 instructions: 10000003 cycles: 1860446 heartbeat IPC: 5.375 cumulative IPC: 5.375 (Simulation time: 00 hr 00 min 38 sec)
Heartbeat CPU 0 instructions: 20000000 cycles: 3706773 heartbeat IPC: 5.416 cumulative IPC: 5.396 (Simulation time: 00 hr 01 min 15 sec)
Heartbeat CPU 0 instructions: 30000004 cycles: 5555692 heartbeat IPC: 5.409 cumulative IPC: 5.4 (Simulation time: 00 hr 01 min 53 sec)
Warmup finished CPU 0 instructions: 30000004 cycles: 5555693 cumulative IPC: 5.4 (Simulation time: 00 hr 01 min 53 sec)
Warmup complete CPU 0 instructions: 30000004 cycles: 5555693 cumulative IPC: 5.4 (Simulation time: 00 hr 01 min 53 sec)
Heartbeat CPU 0 instructions: 40000003 cycles: 7610964 heartbeat IPC: 4.866 cumulative IPC: 4.866 (Simulation time: 00 hr 02 min 38 sec)
Heartbeat CPU 0 instructions: 50000003 cycles: 9647096 heartbeat IPC: 4.911 cumulative IPC: 4.888 (Simulation time: 00 hr 03 min 23 sec)
Heartbeat CPU 0 instructions: 60000005 cycles: 11723428 heartbeat IPC: 4.816 cumulative IPC: 4.864 (Simulation time: 00 hr 04 min 08 sec)
Heartbeat CPU 0 instructions: 70000006 cycles: 13810274 heartbeat IPC: 4.792 cumulative IPC: 4.846 (Simulation time: 00 hr 04 min 57 sec)
Heartbeat CPU 0 instructions: 80000001 cycles: 15855558 heartbeat IPC: 4.889 cumulative IPC: 4.854 (Simulation time: 00 hr 05 min 44 sec)
Heartbeat CPU 0 instructions: 90000003 cycles: 17883672 heartbeat IPC: 4.931 cumulative IPC: 4.867 (Simulation time: 00 hr 06 min 29 sec)
Heartbeat CPU 0 instructions: 100000001 cycles: 19905001 heartbeat IPC: 4.947 cumulative IPC: 4.878 (Simulation time: 00 hr 07 min 13 sec)
*** Reached end of trace: (0, "../traces/secret_traces/compute_fp/compute_fp_38.champsimtrace.xz")
Heartbeat CPU 0 instructions: 110000006 cycles: 23214036 heartbeat IPC: 3.022 cumulative IPC: 4.53 (Simulation time: 00 hr 08 min 15 sec)
Heartbeat CPU 0 instructions: 120000007 cycles: 25267071 heartbeat IPC: 4.871 cumulative IPC: 4.566 (Simulation time: 00 hr 09 min 00 sec)
Heartbeat CPU 0 instructions: 130000011 cycles: 27358282 heartbeat IPC: 4.782 cumulative IPC: 4.587 (Simulation time: 00 hr 09 min 46 sec)
Simulation finished CPU 0 instructions: 100000007 cycles: 21802590 cumulative IPC: 4.587 (Simulation time: 00 hr 09 min 46 sec)
Simulation complete CPU 0 instructions: 100000007 cycles: 21802590 cumulative IPC: 4.587 (Simulation time: 00 hr 09 min 46 sec)

ChampSim completed all CPUs

=== Simulation ===
CPU 0 runs ../traces/secret_traces/compute_fp/compute_fp_38.champsimtrace.xz
Region of Interest Statistics

CPU 0 cumulative IPC: 4.587 instructions: 100000007 cycles: 21802590
CPU 0 Branch Prediction Accuracy: 99.56% MPKI: 0.1332 Average ROB Occupancy at Mispredict: 30.18
Branch type MPKI
BRANCH_DIRECT_JUMP: 0.00723
BRANCH_INDIRECT: 0.0653
BRANCH_CONDITIONAL: 0.0273
BRANCH_DIRECT_CALL: 0.0199
BRANCH_INDIRECT_CALL: 0.00241
BRANCH_RETURN: 0.011

LLC TOTAL        ACCESS:     485457 HIT:     136649 MISS:     348808
LLC LOAD         ACCESS:      62837 HIT:       7549 MISS:      55288
LLC RFO          ACCESS:      89754 HIT:      22093 MISS:      67661
LLC PREFETCH     ACCESS:     210404 HIT:      44970 MISS:     165434
LLC WRITE        ACCESS:     119852 HIT:      61706 MISS:      58146
LLC TRANSLATION  ACCESS:       2610 HIT:        331 MISS:       2279
LLC PREFETCH REQUESTED:          0 ISSUED:          0 USEFUL:          0 USELESS:          0
LLC AVERAGE MISS LATENCY: 195.4 cycles
cpu0_DTLB TOTAL        ACCESS:   16881077 HIT:   15586046 MISS:    1295031
cpu0_DTLB LOAD         ACCESS:   16881077 HIT:   15586046 MISS:    1295031
cpu0_DTLB RFO          ACCESS:          0 HIT:          0 MISS:          0
cpu0_DTLB PREFETCH     ACCESS:          0 HIT:          0 MISS:          0
cpu0_DTLB WRITE        ACCESS:          0 HIT:          0 MISS:          0
cpu0_DTLB TRANSLATION  ACCESS:          0 HIT:          0 MISS:          0
cpu0_DTLB PREFETCH REQUESTED:          0 ISSUED:          0 USEFUL:          0 USELESS:          0
cpu0_DTLB AVERAGE MISS LATENCY: 3.386 cycles
cpu0_ITLB TOTAL        ACCESS:     136051 HIT:     134517 MISS:       1534
cpu0_ITLB LOAD         ACCESS:     136051 HIT:     134517 MISS:       1534
cpu0_ITLB RFO          ACCESS:          0 HIT:          0 MISS:          0
cpu0_ITLB PREFETCH     ACCESS:          0 HIT:          0 MISS:          0
cpu0_ITLB WRITE        ACCESS:          0 HIT:          0 MISS:          0
cpu0_ITLB TRANSLATION  ACCESS:          0 HIT:          0 MISS:          0
cpu0_ITLB PREFETCH REQUESTED:          0 ISSUED:          0 USEFUL:          0 USELESS:          0
cpu0_ITLB AVERAGE MISS LATENCY: 50.1 cycles
cpu0_L1D TOTAL        ACCESS:   30555258 HIT:   24507508 MISS:    6047750
cpu0_L1D LOAD         ACCESS:   13680110 HIT:   11386483 MISS:    2293627
cpu0_L1D RFO          ACCESS:          0 HIT:          0 MISS:          0
cpu0_L1D PREFETCH     ACCESS:    5553131 HIT:    4013375 MISS:    1539756
cpu0_L1D WRITE        ACCESS:   11317026 HIT:    9106045 MISS:    2210981
cpu0_L1D TRANSLATION  ACCESS:       4991 HIT:       1605 MISS:       3386
cpu0_L1D PREFETCH REQUESTED:   26567792 ISSUED:    5553138 USEFUL:     210671 USELESS:      77573
cpu0_L1D AVERAGE MISS LATENCY: 13.44 cycles
cpu0_L1I TOTAL        ACCESS:     198901 HIT:     161741 MISS:      37160
cpu0_L1I LOAD         ACCESS:      73248 HIT:      62098 MISS:      11150
cpu0_L1I RFO          ACCESS:          0 HIT:          0 MISS:          0
cpu0_L1I PREFETCH     ACCESS:     125653 HIT:      99643 MISS:      26010
cpu0_L1I WRITE        ACCESS:          0 HIT:          0 MISS:          0
cpu0_L1I TRANSLATION  ACCESS:          0 HIT:          0 MISS:          0
cpu0_L1I PREFETCH REQUESTED:     240646 ISSUED:     125653 USEFUL:      14745 USELESS:       9177
cpu0_L1I AVERAGE MISS LATENCY: 69.98 cycles
cpu0_L2C TOTAL        ACCESS:    8069168 HIT:    7416799 MISS:     652369
cpu0_L2C LOAD         ACCESS:    1810544 HIT:    1723439 MISS:      87105
cpu0_L2C RFO          ACCESS:    1124556 HIT:    1034787 MISS:      89769
cpu0_L2C PREFETCH     ACCESS:    3740480 HIT:    3268277 MISS:     472203
cpu0_L2C WRITE        ACCESS:    1390218 HIT:    1389536 MISS:        682
cpu0_L2C TRANSLATION  ACCESS:       3370 HIT:        760 MISS:       2610
cpu0_L2C PREFETCH REQUESTED:    3229436 ISSUED:    2323433 USEFUL:     110793 USELESS:      21202
cpu0_L2C AVERAGE MISS LATENCY: 114.5 cycles
cpu0_STLB TOTAL        ACCESS:     700029 HIT:     695201 MISS:       4828
cpu0_STLB LOAD         ACCESS:     700029 HIT:     695201 MISS:       4828
cpu0_STLB RFO          ACCESS:          0 HIT:          0 MISS:          0
cpu0_STLB PREFETCH     ACCESS:          0 HIT:          0 MISS:          0
cpu0_STLB WRITE        ACCESS:          0 HIT:          0 MISS:          0
cpu0_STLB TRANSLATION  ACCESS:          0 HIT:          0 MISS:          0
cpu0_STLB PREFETCH REQUESTED:          0 ISSUED:          0 USEFUL:          0 USELESS:          0
cpu0_STLB AVERAGE MISS LATENCY: 290.6 cycles

DRAM Statistics

Channel 0 RQ ROW_BUFFER_HIT:      54620
  ROW_BUFFER_MISS:      91543
 AVG DBUS CONGESTED CYCLE: 3.902
WQ ROW_BUFFER_HIT: Channel 0 
  ROW_BUFFER_MISS:       5331
  FULL:      34392

Channel 1 RQ ROW_BUFFER_HIT:      54437
  ROW_BUFFER_MISS:      90054
 AVG DBUS CONGESTED CYCLE: 3.896
WQ ROW_BUFFER_HIT: Channel 1 
  ROW_BUFFER_MISS:       5363
  FULL:      33504
BERTI TO_L1: 12202731 TO_L2: 22038104 TO_L2_BC_MSHR: 3400338
BERTI AVG_LAT: 50.5094 NUM_TRACK_LATENCY: 2766341 NUM_CANT_TRACK_LATENCY: 4
BERTI CROSS_PAGE 14564703 NO_CROSS_PAGE: 19676132
BERTI FOUND_BERTI: 9600190 NO_FOUND_BERTI: 9931726
BERTI AVERAGE_ISSUED: 3.09642
CPU 0 L1I Entangling prefetcher final stats
IP accesses: a18 28600 658 / 78478
IP misses: 5226 148980 281 / 16380
IP hits: 0 0 0 / 0
IP late: e8bf 3a2fc0 14 / 5637
IP wrong: 2173 85cc0 24 / 9126
miss rate: 0.208721
coverage: 0
coverage_late: 0.34414
accuracy: 0
accuracy_late: 0.381833
discarded: 0
evicts entangled j table: 0
evicts entangled k table: 1645
max bb size: 38
formats: 479 0 1333 641 317 701 0 
hist_lookups: 1107 1218 1067 865 778 691 520 386 316 265 191 131 78 65 20 0 15 3684 
hist_lookups_evict: 0.131614 %
hist_lookups_shortlat: 32.3243 %
bb_found_hist: 0 15480 6790 3042 1222 694 309 72 51 170 82 4 459 420 29 2 17 113 14 16 0 0 0 16 0 24 0 52 0 0 0 32 0 0 0 0 0 13 1 0 0 0 0 0 0 0 0 0 0 0 0 0 0 0 0 0 0 0 0 0 0 0 0 0 
bb_found_summary: 69740 29124 2.39459
entangled_found_hist: 0 9452 5651 10376 1737 553 28 0 
entangled_found_summary: 61763 27797 2.22194
bb_ent_found_hist: 0 20875 10128 6293 2389 1296 638 167 64 22 79 0 0 66 45 0 0 124 727 0 0 0 0 89 0 87 0 142 0 0 0 438 0 0 0 0 0 231 2 0 0 0 0 0 0 0 0 0 0 0 0 0 0 0 0 0 0 0 0 0 0 0 0 0 
bb_ent_found_summary: 129482 43902 2.94935
