WARNING: physical memory size is smaller than virtual memory size.

*** ChampSim Multicore Out-of-Order Simulator ***
Warmup Instructions: 30000000
Simulation Instructions: 100000000
Number of CPUs: 1
Page size: 4096

BTB:
Basic BTB sets: 1024 ways: 8
Indirect:
history lengths: 0 0 10 16 27 44 60 96 109 219 449 487 714 1313 2146 3881 
ITTAGE tables: 64768 bytes;Region table: 240 bytes;IUM: 384 bytes;Total Storage= 65392 bytes;
RAS:
RAS size: 64
[LLC] Demand IPV: 1 2 2 1 4 Prefetch IPV: 1 2 1 1 4
Berti Prefetcher
CPU 0 Entangling prefetcher
Off-chip DRAM Size: 8 GiB Channels: 2 Width: 64-bit Data Race: 6400 MT/s
Heartbeat CPU 0 instructions: 10000001 cycles: 1728940 heartbeat IPC: 5.784 cumulative IPC: 5.784 (Simulation time: 00 hr 00 min 49 sec)
Heartbeat CPU 0 instructions: 20000002 cycles: 3396279 heartbeat IPC: 5.998 cumulative IPC: 5.889 (Simulation time: 00 hr 01 min 35 sec)
Heartbeat CPU 0 instructions: 30000001 cycles: 5063319 heartbeat IPC: 5.999 cumulative IPC: 5.925 (Simulation time: 00 hr 02 min 13 sec)
Warmup finished CPU 0 instructions: 30000001 cycles: 5063320 cumulative IPC: 5.925 (Simulation time: 00 hr 02 min 13 sec)
Warmup complete CPU 0 instructions: 30000001 cycles: 5063320 cumulative IPC: 5.925 (Simulation time: 00 hr 02 min 13 sec)
Heartbeat CPU 0 instructions: 40000008 cycles: 7155228 heartbeat IPC: 4.78 cumulative IPC: 4.78 (Simulation time: 00 hr 03 min 07 sec)
Heartbeat CPU 0 instructions: 50000010 cycles: 14650635 heartbeat IPC: 1.334 cumulative IPC: 2.086 (Simulation time: 00 hr 05 min 11 sec)
Heartbeat CPU 0 instructions: 60000001 cycles: 18883770 heartbeat IPC: 2.362 cumulative IPC: 2.171 (Simulation time: 00 hr 06 min 36 sec)
Heartbeat CPU 0 instructions: 70000008 cycles: 20991250 heartbeat IPC: 4.745 cumulative IPC: 2.511 (Simulation time: 00 hr 07 min 31 sec)
Heartbeat CPU 0 instructions: 80000000 cycles: 22937464 heartbeat IPC: 5.138 cumulative IPC: 2.797 (Simulation time: 00 hr 08 min 19 sec)
Heartbeat CPU 0 instructions: 90000000 cycles: 24991604 heartbeat IPC: 4.868 cumulative IPC: 3.011 (Simulation time: 00 hr 09 min 16 sec)
Heartbeat CPU 0 instructions: 100000005 cycles: 32359352 heartbeat IPC: 1.357 cumulative IPC: 2.564 (Simulation time: 00 hr 11 min 37 sec)
*** Reached end of trace: (0, "../traces/secret_traces/compute_fp/compute_fp_47.champsimtrace.xz")
Heartbeat CPU 0 instructions: 110000000 cycles: 36987698 heartbeat IPC: 2.161 cumulative IPC: 2.506 (Simulation time: 00 hr 13 min 18 sec)
Heartbeat CPU 0 instructions: 120000011 cycles: 39039430 heartbeat IPC: 4.874 cumulative IPC: 2.649 (Simulation time: 00 hr 14 min 26 sec)
Heartbeat CPU 0 instructions: 130000005 cycles: 40922933 heartbeat IPC: 5.309 cumulative IPC: 2.789 (Simulation time: 00 hr 15 min 15 sec)
Simulation finished CPU 0 instructions: 100000004 cycles: 35859614 cumulative IPC: 2.789 (Simulation time: 00 hr 15 min 15 sec)
Simulation complete CPU 0 instructions: 100000004 cycles: 35859614 cumulative IPC: 2.789 (Simulation time: 00 hr 15 min 15 sec)

ChampSim completed all CPUs

=== Simulation ===
CPU 0 runs ../traces/secret_traces/compute_fp/compute_fp_47.champsimtrace.xz
Region of Interest Statistics

CPU 0 cumulative IPC: 2.789 instructions: 100000004 cycles: 35859614
CPU 0 Branch Prediction Accuracy: 99.75% MPKI: 0.1382 Average ROB Occupancy at Mispredict: 31.47
Branch type MPKI
BRANCH_DIRECT_JUMP: 0.00755
BRANCH_INDIRECT: 0.067
BRANCH_CONDITIONAL: 0.0296
BRANCH_DIRECT_CALL: 0.0205
BRANCH_INDIRECT_CALL: 0.00226
BRANCH_RETURN: 0.0113

LLC TOTAL        ACCESS:    1893575 HIT:     335619 MISS:    1557956
LLC LOAD         ACCESS:     158558 HIT:      48709 MISS:     109849
LLC RFO          ACCESS:     301586 HIT:      58523 MISS:     243063
LLC PREFETCH     ACCESS:     861326 HIT:      80403 MISS:     780923
LLC WRITE        ACCESS:     569795 HIT:     147926 MISS:     421869
LLC TRANSLATION  ACCESS:       2310 HIT:         58 MISS:       2252
LLC PREFETCH REQUESTED:          0 ISSUED:          0 USEFUL:          0 USELESS:          0
LLC AVERAGE MISS LATENCY: 273 cycles
cpu0_DTLB TOTAL        ACCESS:   16828229 HIT:   16754000 MISS:      74229
cpu0_DTLB LOAD         ACCESS:   16828229 HIT:   16754000 MISS:      74229
cpu0_DTLB RFO          ACCESS:          0 HIT:          0 MISS:          0
cpu0_DTLB PREFETCH     ACCESS:          0 HIT:          0 MISS:          0
cpu0_DTLB WRITE        ACCESS:          0 HIT:          0 MISS:          0
cpu0_DTLB TRANSLATION  ACCESS:          0 HIT:          0 MISS:          0
cpu0_DTLB PREFETCH REQUESTED:          0 ISSUED:          0 USEFUL:          0 USELESS:          0
cpu0_DTLB AVERAGE MISS LATENCY: 24.34 cycles
cpu0_ITLB TOTAL        ACCESS:     120905 HIT:     119318 MISS:       1587
cpu0_ITLB LOAD         ACCESS:     120905 HIT:     119318 MISS:       1587
cpu0_ITLB RFO          ACCESS:          0 HIT:          0 MISS:          0
cpu0_ITLB PREFETCH     ACCESS:          0 HIT:          0 MISS:          0
cpu0_ITLB WRITE        ACCESS:          0 HIT:          0 MISS:          0
cpu0_ITLB TRANSLATION  ACCESS:          0 HIT:          0 MISS:          0
cpu0_ITLB PREFETCH REQUESTED:          0 ISSUED:          0 USEFUL:          0 USELESS:          0
cpu0_ITLB AVERAGE MISS LATENCY: 56.74 cycles
cpu0_L1D TOTAL        ACCESS:   34751915 HIT:   29052488 MISS:    5699427
cpu0_L1D LOAD         ACCESS:   16307503 HIT:   13965230 MISS:    2342273
cpu0_L1D RFO          ACCESS:          0 HIT:          0 MISS:          0
cpu0_L1D PREFETCH     ACCESS:   13063518 HIT:   10989682 MISS:    2073836
cpu0_L1D WRITE        ACCESS:    5368328 HIT:    4090657 MISS:    1277671
cpu0_L1D TRANSLATION  ACCESS:      12566 HIT:       6919 MISS:       5647
cpu0_L1D PREFETCH REQUESTED:  182271450 ISSUED:   13063521 USEFUL:     776894 USELESS:      33046
cpu0_L1D AVERAGE MISS LATENCY: 53.14 cycles
cpu0_L1I TOTAL        ACCESS:     174948 HIT:     137950 MISS:      36998
cpu0_L1I LOAD         ACCESS:      62910 HIT:      51256 MISS:      11654
cpu0_L1I RFO          ACCESS:          0 HIT:          0 MISS:          0
cpu0_L1I PREFETCH     ACCESS:     112038 HIT:      86694 MISS:      25344
cpu0_L1I WRITE        ACCESS:          0 HIT:          0 MISS:          0
cpu0_L1I TRANSLATION  ACCESS:          0 HIT:          0 MISS:          0
cpu0_L1I PREFETCH REQUESTED:     166168 ISSUED:     112038 USEFUL:      14137 USELESS:       9004
cpu0_L1I AVERAGE MISS LATENCY: 81.62 cycles
cpu0_L2C TOTAL        ACCESS:    6208572 HIT:    3115988 MISS:    3092584
cpu0_L2C LOAD         ACCESS:     792672 HIT:     431614 MISS:     361058
cpu0_L2C RFO          ACCESS:     376577 HIT:      74961 MISS:     301616
cpu0_L2C PREFETCH     ACCESS:    4272913 HIT:    1845375 MISS:    2427538
cpu0_L2C WRITE        ACCESS:     760790 HIT:     760728 MISS:         62
cpu0_L2C TRANSLATION  ACCESS:       5620 HIT:       3310 MISS:       2310
cpu0_L2C PREFETCH REQUESTED:    2586936 ISSUED:    2492268 USEFUL:     289988 USELESS:     180625
cpu0_L2C AVERAGE MISS LATENCY: 135.1 cycles
cpu0_STLB TOTAL        ACCESS:      24198 HIT:      11878 MISS:      12320
cpu0_STLB LOAD         ACCESS:      24198 HIT:      11878 MISS:      12320
cpu0_STLB RFO          ACCESS:          0 HIT:          0 MISS:          0
cpu0_STLB PREFETCH     ACCESS:          0 HIT:          0 MISS:          0
cpu0_STLB WRITE        ACCESS:          0 HIT:          0 MISS:          0
cpu0_STLB TRANSLATION  ACCESS:          0 HIT:          0 MISS:          0
cpu0_STLB PREFETCH REQUESTED:          0 ISSUED:          0 USEFUL:          0 USELESS:          0
cpu0_STLB AVERAGE MISS LATENCY: 177.1 cycles

DRAM Statistics

Channel 0 RQ ROW_BUFFER_HIT:     147883
  ROW_BUFFER_MISS:     421957
 AVG DBUS CONGESTED CYCLE: 3.946
WQ ROW_BUFFER_HIT: Channel 0 
  ROW_BUFFER_MISS:      42942
  FULL:     169320

Channel 1 RQ ROW_BUFFER_HIT:     145323
  ROW_BUFFER_MISS:     420916
 AVG DBUS CONGESTED CYCLE: 3.944
WQ ROW_BUFFER_HIT: Channel 1 
  ROW_BUFFER_MISS:      42957
  FULL:     167698
BERTI TO_L1: 155354245 TO_L2: 86907055 TO_L2_BC_MSHR: 40642267
BERTI AVG_LAT: 175.548 NUM_TRACK_LATENCY: 2055955 NUM_CANT_TRACK_LATENCY: 8
BERTI CROSS_PAGE 31216368 NO_CROSS_PAGE: 211044932
BERTI FOUND_BERTI: 26309712 NO_FOUND_BERTI: 879885
BERTI AVERAGE_ISSUED: 3.23573
CPU 0 L1I Entangling prefetcher final stats
IP accesses: 44df 1137c0 673 / 79160
IP misses: 44df 1137c0 660 / 27904
IP hits: 0 0 0 / 0
IP late: 216f 85bc0 13 / 5831
IP wrong: e8e9 3a3a40 26 / 8947
miss rate: 0.352502
coverage: 0
coverage_late: 0.208967
accuracy: 0
accuracy_late: 0.394574
discarded: 0
evicts entangled j table: 0
evicts entangled k table: 1639
max bb size: 65
formats: 495 0 1365 717 329 695 0 
hist_lookups: 1125 1247 967 881 805 694 590 433 338 270 206 147 74 51 26 0 3 3955 
hist_lookups_evict: 0.025398 %
hist_lookups_shortlat: 33.4829 %
bb_found_hist: 0 14874 6289 3016 1089 724 247 76 65 16 11 6 12 0 3 1 18 3 0 0 2 0 0 0 0 0 0 0 0 0 0 0 0 0 0 0 0 0 0 0 0 0 0 0 0 0 0 0 0 0 0 0 0 0 0 0 0 0 0 0 0 0 0 0 
bb_found_summary: 47910 26452 1.81121
entangled_found_hist: 0 8444 5035 9566 1842 436 52 0 
entangled_found_summary: 57072 25375 2.24915
bb_ent_found_hist: 0 18662 10010 5179 2398 1351 646 183 241 17 17 4 0 0 0 1 0 7 0 0 0 0 0 0 0 0 0 0 0 0 0 0 0 0 0 0 0 0 0 0 0 0 0 0 0 0 0 0 0 0 0 0 0 0 0 0 0 0 0 0 0 0 0 0 
bb_ent_found_summary: 78152 38716 2.0186
