WARNING: physical memory size is smaller than virtual memory size.

*** ChampSim Multicore Out-of-Order Simulator ***
Warmup Instructions: 30000000
Simulation Instructions: 100000000
Number of CPUs: 1
Page size: 4096

BTB:
Basic BTB sets: 1024 ways: 8
Indirect:
history lengths: 0 0 10 16 27 44 60 96 109 219 449 487 714 1313 2146 3881 
ITTAGE tables: 64768 bytes;Region table: 240 bytes;IUM: 384 bytes;Total Storage= 65392 bytes;
RAS:
RAS size: 64
[LLC] Demand IPV: 1 2 2 1 4 Prefetch IPV: 1 2 1 1 4
Berti Prefetcher
CPU 0 Entangling prefetcher
Off-chip DRAM Size: 8 GiB Channels: 2 Width: 64-bit Data Race: 6400 MT/s
Heartbeat CPU 0 instructions: 10000009 cycles: 1716435 heartbeat IPC: 5.826 cumulative IPC: 5.826 (Simulation time: 00 hr 00 min 38 sec)
Heartbeat CPU 0 instructions: 20000001 cycles: 3383295 heartbeat IPC: 5.999 cumulative IPC: 5.911 (Simulation time: 00 hr 01 min 15 sec)
Heartbeat CPU 0 instructions: 30000003 cycles: 5050570 heartbeat IPC: 5.998 cumulative IPC: 5.94 (Simulation time: 00 hr 01 min 51 sec)
Warmup finished CPU 0 instructions: 30000003 cycles: 5050571 cumulative IPC: 5.94 (Simulation time: 00 hr 01 min 51 sec)
Warmup complete CPU 0 instructions: 30000003 cycles: 5050571 cumulative IPC: 5.94 (Simulation time: 00 hr 01 min 51 sec)
Heartbeat CPU 0 instructions: 40000004 cycles: 6932188 heartbeat IPC: 5.315 cumulative IPC: 5.315 (Simulation time: 00 hr 02 min 31 sec)
Heartbeat CPU 0 instructions: 50000002 cycles: 8823248 heartbeat IPC: 5.288 cumulative IPC: 5.301 (Simulation time: 00 hr 03 min 10 sec)
Heartbeat CPU 0 instructions: 60000011 cycles: 10694866 heartbeat IPC: 5.343 cumulative IPC: 5.315 (Simulation time: 00 hr 03 min 49 sec)
Heartbeat CPU 0 instructions: 70000000 cycles: 12615999 heartbeat IPC: 5.205 cumulative IPC: 5.287 (Simulation time: 00 hr 04 min 29 sec)
Heartbeat CPU 0 instructions: 80000008 cycles: 14556043 heartbeat IPC: 5.155 cumulative IPC: 5.26 (Simulation time: 00 hr 05 min 09 sec)
Heartbeat CPU 0 instructions: 90000005 cycles: 16425056 heartbeat IPC: 5.35 cumulative IPC: 5.275 (Simulation time: 00 hr 05 min 51 sec)
Heartbeat CPU 0 instructions: 100000007 cycles: 18361512 heartbeat IPC: 5.164 cumulative IPC: 5.259 (Simulation time: 00 hr 06 min 30 sec)
*** Reached end of trace: (0, "../traces/secret_traces/compute_fp/compute_fp_73.champsimtrace.xz")
Heartbeat CPU 0 instructions: 110000005 cycles: 20753286 heartbeat IPC: 4.181 cumulative IPC: 5.095 (Simulation time: 00 hr 07 min 14 sec)
Heartbeat CPU 0 instructions: 120000011 cycles: 22610269 heartbeat IPC: 5.385 cumulative IPC: 5.125 (Simulation time: 00 hr 07 min 53 sec)
Heartbeat CPU 0 instructions: 130000010 cycles: 24558300 heartbeat IPC: 5.133 cumulative IPC: 5.126 (Simulation time: 00 hr 08 min 33 sec)
Simulation finished CPU 0 instructions: 100000007 cycles: 19507730 cumulative IPC: 5.126 (Simulation time: 00 hr 08 min 33 sec)
Simulation complete CPU 0 instructions: 100000007 cycles: 19507730 cumulative IPC: 5.126 (Simulation time: 00 hr 08 min 33 sec)

ChampSim completed all CPUs

=== Simulation ===
CPU 0 runs ../traces/secret_traces/compute_fp/compute_fp_73.champsimtrace.xz
Region of Interest Statistics

CPU 0 cumulative IPC: 5.126 instructions: 100000007 cycles: 19507730
CPU 0 Branch Prediction Accuracy: 95.81% MPKI: 1.5 Average ROB Occupancy at Mispredict: 29.85
Branch type MPKI
BRANCH_DIRECT_JUMP: 0.00729
BRANCH_INDIRECT: 0.0727
BRANCH_CONDITIONAL: 1.39
BRANCH_DIRECT_CALL: 0.0198
BRANCH_INDIRECT_CALL: 0.00232
BRANCH_RETURN: 0.011

LLC TOTAL        ACCESS:      96097 HIT:      77627 MISS:      18470
LLC LOAD         ACCESS:      15645 HIT:      10476 MISS:       5169
LLC RFO          ACCESS:      26348 HIT:      26003 MISS:        345
LLC PREFETCH     ACCESS:      22782 HIT:      11297 MISS:      11485
LLC WRITE        ACCESS:      31071 HIT:      29760 MISS:       1311
LLC TRANSLATION  ACCESS:        251 HIT:         91 MISS:        160
LLC PREFETCH REQUESTED:          0 ISSUED:          0 USEFUL:          0 USELESS:          0
LLC AVERAGE MISS LATENCY: 115.8 cycles
cpu0_DTLB TOTAL        ACCESS:   16081766 HIT:   16072746 MISS:       9020
cpu0_DTLB LOAD         ACCESS:   16081766 HIT:   16072746 MISS:       9020
cpu0_DTLB RFO          ACCESS:          0 HIT:          0 MISS:          0
cpu0_DTLB PREFETCH     ACCESS:          0 HIT:          0 MISS:          0
cpu0_DTLB WRITE        ACCESS:          0 HIT:          0 MISS:          0
cpu0_DTLB TRANSLATION  ACCESS:          0 HIT:          0 MISS:          0
cpu0_DTLB PREFETCH REQUESTED:          0 ISSUED:          0 USEFUL:          0 USELESS:          0
cpu0_DTLB AVERAGE MISS LATENCY: 7.913 cycles
cpu0_ITLB TOTAL        ACCESS:     119682 HIT:     118253 MISS:       1429
cpu0_ITLB LOAD         ACCESS:     119682 HIT:     118253 MISS:       1429
cpu0_ITLB RFO          ACCESS:          0 HIT:          0 MISS:          0
cpu0_ITLB PREFETCH     ACCESS:          0 HIT:          0 MISS:          0
cpu0_ITLB WRITE        ACCESS:          0 HIT:          0 MISS:          0
cpu0_ITLB TRANSLATION  ACCESS:          0 HIT:          0 MISS:          0
cpu0_ITLB PREFETCH REQUESTED:          0 ISSUED:          0 USEFUL:          0 USELESS:          0
cpu0_ITLB AVERAGE MISS LATENCY: 8.847 cycles
cpu0_L1D TOTAL        ACCESS:   26509840 HIT:   24126564 MISS:    2383276
cpu0_L1D LOAD         ACCESS:   16203588 HIT:   14825540 MISS:    1378048
cpu0_L1D RFO          ACCESS:          0 HIT:          0 MISS:          0
cpu0_L1D PREFETCH     ACCESS:    1772172 HIT:     955539 MISS:     816633
cpu0_L1D WRITE        ACCESS:    8533587 HIT:    8345381 MISS:     188206
cpu0_L1D TRANSLATION  ACCESS:        493 HIT:        104 MISS:        389
cpu0_L1D PREFETCH REQUESTED:    2522137 ISSUED:    1772172 USEFUL:      53704 USELESS:      16891
cpu0_L1D AVERAGE MISS LATENCY: 2.811 cycles
cpu0_L1I TOTAL        ACCESS:     174241 HIT:     139524 MISS:      34717
cpu0_L1I LOAD         ACCESS:      61329 HIT:      50253 MISS:      11076
cpu0_L1I RFO          ACCESS:          0 HIT:          0 MISS:          0
cpu0_L1I PREFETCH     ACCESS:     112912 HIT:      89271 MISS:      23641
cpu0_L1I WRITE        ACCESS:          0 HIT:          0 MISS:          0
cpu0_L1I TRANSLATION  ACCESS:          0 HIT:          0 MISS:          0
cpu0_L1I PREFETCH REQUESTED:     183688 ISSUED:     112912 USEFUL:      13155 USELESS:       8749
cpu0_L1I AVERAGE MISS LATENCY: 21.01 cycles
cpu0_L2C TOTAL        ACCESS:    2976051 HIT:    2889617 MISS:      86434
cpu0_L2C LOAD         ACCESS:     577440 HIT:     559877 MISS:      17563
cpu0_L2C RFO          ACCESS:      53499 HIT:      27146 MISS:      26353
cpu0_L2C PREFETCH     ACCESS:    2104175 HIT:    2061908 MISS:      42267
cpu0_L2C WRITE        ACCESS:     240554 HIT:     240554 MISS:          0
cpu0_L2C TRANSLATION  ACCESS:        383 HIT:        132 MISS:        251
cpu0_L2C PREFETCH REQUESTED:    1384797 ISSUED:    1296818 USEFUL:       7313 USELESS:       4247
cpu0_L2C AVERAGE MISS LATENCY: 39.27 cycles
cpu0_STLB TOTAL        ACCESS:       4855 HIT:       4409 MISS:        446
cpu0_STLB LOAD         ACCESS:       4855 HIT:       4409 MISS:        446
cpu0_STLB RFO          ACCESS:          0 HIT:          0 MISS:          0
cpu0_STLB PREFETCH     ACCESS:          0 HIT:          0 MISS:          0
cpu0_STLB WRITE        ACCESS:          0 HIT:          0 MISS:          0
cpu0_STLB TRANSLATION  ACCESS:          0 HIT:          0 MISS:          0
cpu0_STLB PREFETCH REQUESTED:          0 ISSUED:          0 USEFUL:          0 USELESS:          0
cpu0_STLB AVERAGE MISS LATENCY: 144.3 cycles

DRAM Statistics

Channel 0 RQ ROW_BUFFER_HIT:       4883
  ROW_BUFFER_MISS:       3840
 AVG DBUS CONGESTED CYCLE: 3.743
WQ ROW_BUFFER_HIT: Channel 0 
  ROW_BUFFER_MISS:        102
  FULL:        427

Channel 1 RQ ROW_BUFFER_HIT:       4693
  ROW_BUFFER_MISS:       3743
 AVG DBUS CONGESTED CYCLE: 3.672
WQ ROW_BUFFER_HIT: Channel 1 
  ROW_BUFFER_MISS:         99
  FULL:        308
BERTI TO_L1: 1392370 TO_L2: 2641175 TO_L2_BC_MSHR: 124507
BERTI AVG_LAT: 12.9006 NUM_TRACK_LATENCY: 857690 NUM_CANT_TRACK_LATENCY: 0
BERTI CROSS_PAGE 565545 NO_CROSS_PAGE: 3468000
BERTI FOUND_BERTI: 8283726 NO_FOUND_BERTI: 12769689
BERTI AVERAGE_ISSUED: 3.68673
CPU 0 L1I Entangling prefetcher final stats
IP accesses: 5aeb 16bac0 251 / 62220
IP misses: 5ef0 17bc00 95 / 11967
IP hits: 0 0 0 / 0
IP late: 215c 85700 14 / 5480
IP wrong: ea8a 3aa280 24 / 8687
miss rate: 0.192334
coverage: 0
coverage_late: 0.457926
accuracy: 0
accuracy_late: 0.386815
discarded: 0
evicts entangled j table: 0
evicts entangled k table: 1749
max bb size: 65
formats: 456 0 1420 745 304 696 0 
hist_lookups: 1136 1379 1150 1047 923 752 630 456 308 228 199 135 73 34 15 0 3 2604 
hist_lookups_evict: 0.0270954 %
hist_lookups_shortlat: 23.5188 %
bb_found_hist: 0 14699 6321 2959 1171 748 243 82 86 14 11 7 31 0 3 4 19 0 0 0 29 0 0 0 0 20 0 0 35 0 0 0 0 0 0 0 0 0 0 0 0 0 0 0 0 0 0 0 0 2 0 0 0 0 0 0 0 0 0 0 0 0 0 0 
bb_found_summary: 50611 26484 1.91101
entangled_found_hist: 0 8165 5110 10406 1931 590 52 0 
entangled_found_summary: 60589 26254 2.30781
bb_ent_found_hist: 0 20279 9983 6096 2654 1678 1093 172 145 5 22 10 17 0 0 0 2 0 0 0 0 0 0 0 0 0 0 0 57 0 0 0 0 0 0 0 0 0 0 0 0 0 0 0 0 0 0 0 0 3 0 0 0 0 0 0 0 0 0 0 0 0 0 0 
bb_ent_found_summary: 88815 42216 2.10383
