WARNING: physical memory size is smaller than virtual memory size.

*** ChampSim Multicore Out-of-Order Simulator ***
Warmup Instructions: 30000000
Simulation Instructions: 100000000
Number of CPUs: 1
Page size: 4096

BTB:
Basic BTB sets: 1024 ways: 8
Indirect:
history lengths: 0 0 10 16 27 44 60 96 109 219 449 487 714 1313 2146 3881 
ITTAGE tables: 64768 bytes;Region table: 240 bytes;IUM: 384 bytes;Total Storage= 65392 bytes;
RAS:
RAS size: 64
[LLC] Demand IPV: 1 2 2 1 4 Prefetch IPV: 1 2 1 1 4
Berti Prefetcher
CPU 0 Entangling prefetcher
Off-chip DRAM Size: 8 GiB Channels: 2 Width: 64-bit Data Race: 6400 MT/s
Heartbeat CPU 0 instructions: 10000000 cycles: 1716577 heartbeat IPC: 5.826 cumulative IPC: 5.826 (Simulation time: 00 hr 00 min 35 sec)
Heartbeat CPU 0 instructions: 20000003 cycles: 3384111 heartbeat IPC: 5.997 cumulative IPC: 5.91 (Simulation time: 00 hr 01 min 09 sec)
Heartbeat CPU 0 instructions: 30000002 cycles: 5050923 heartbeat IPC: 5.999 cumulative IPC: 5.94 (Simulation time: 00 hr 01 min 42 sec)
Warmup finished CPU 0 instructions: 30000002 cycles: 5050924 cumulative IPC: 5.94 (Simulation time: 00 hr 01 min 42 sec)
Warmup complete CPU 0 instructions: 30000002 cycles: 5050924 cumulative IPC: 5.94 (Simulation time: 00 hr 01 min 42 sec)
Heartbeat CPU 0 instructions: 40000001 cycles: 6758624 heartbeat IPC: 5.856 cumulative IPC: 5.856 (Simulation time: 00 hr 02 min 23 sec)
Heartbeat CPU 0 instructions: 50000002 cycles: 8446490 heartbeat IPC: 5.925 cumulative IPC: 5.89 (Simulation time: 00 hr 03 min 07 sec)
Heartbeat CPU 0 instructions: 60000004 cycles: 10146466 heartbeat IPC: 5.882 cumulative IPC: 5.887 (Simulation time: 00 hr 03 min 49 sec)
Heartbeat CPU 0 instructions: 70000011 cycles: 11837039 heartbeat IPC: 5.915 cumulative IPC: 5.894 (Simulation time: 00 hr 04 min 30 sec)
Heartbeat CPU 0 instructions: 80000009 cycles: 13536820 heartbeat IPC: 5.883 cumulative IPC: 5.892 (Simulation time: 00 hr 05 min 11 sec)
Heartbeat CPU 0 instructions: 90000006 cycles: 15210578 heartbeat IPC: 5.975 cumulative IPC: 5.906 (Simulation time: 00 hr 05 min 55 sec)
Heartbeat CPU 0 instructions: 100000002 cycles: 16898451 heartbeat IPC: 5.925 cumulative IPC: 5.908 (Simulation time: 00 hr 06 min 41 sec)
*** Reached end of trace: (0, "../traces/secret_traces/compute_fp/compute_fp_40.champsimtrace.xz")
Heartbeat CPU 0 instructions: 110000005 cycles: 19053104 heartbeat IPC: 4.641 cumulative IPC: 5.713 (Simulation time: 00 hr 07 min 26 sec)
Heartbeat CPU 0 instructions: 120000010 cycles: 20780577 heartbeat IPC: 5.789 cumulative IPC: 5.722 (Simulation time: 00 hr 08 min 07 sec)
Heartbeat CPU 0 instructions: 130000000 cycles: 22490529 heartbeat IPC: 5.848 cumulative IPC: 5.734 (Simulation time: 00 hr 08 min 49 sec)
Simulation finished CPU 0 instructions: 100000003 cycles: 17439607 cumulative IPC: 5.734 (Simulation time: 00 hr 08 min 49 sec)
Simulation complete CPU 0 instructions: 100000003 cycles: 17439607 cumulative IPC: 5.734 (Simulation time: 00 hr 08 min 49 sec)

ChampSim completed all CPUs

=== Simulation ===
CPU 0 runs ../traces/secret_traces/compute_fp/compute_fp_40.champsimtrace.xz
Region of Interest Statistics

CPU 0 cumulative IPC: 5.734 instructions: 100000003 cycles: 17439607
CPU 0 Branch Prediction Accuracy: 99.55% MPKI: 0.2322 Average ROB Occupancy at Mispredict: 58.65
Branch type MPKI
BRANCH_DIRECT_JUMP: 0.00791
BRANCH_INDIRECT: 0.0696
BRANCH_CONDITIONAL: 0.12
BRANCH_DIRECT_CALL: 0.0208
BRANCH_INDIRECT_CALL: 0.00227
BRANCH_RETURN: 0.0114

LLC TOTAL        ACCESS:      90498 HIT:      80320 MISS:      10178
LLC LOAD         ACCESS:      13515 HIT:      10968 MISS:       2547
LLC RFO          ACCESS:      26426 HIT:      26090 MISS:        336
LLC PREFETCH     ACCESS:      19123 HIT:      12930 MISS:       6193
LLC WRITE        ACCESS:      31213 HIT:      30259 MISS:        954
LLC TRANSLATION  ACCESS:        221 HIT:         73 MISS:        148
LLC PREFETCH REQUESTED:          0 ISSUED:          0 USEFUL:          0 USELESS:          0
LLC AVERAGE MISS LATENCY: 129.5 cycles
cpu0_DTLB TOTAL        ACCESS:   16436844 HIT:   16400164 MISS:      36680
cpu0_DTLB LOAD         ACCESS:   16436844 HIT:   16400164 MISS:      36680
cpu0_DTLB RFO          ACCESS:          0 HIT:          0 MISS:          0
cpu0_DTLB PREFETCH     ACCESS:          0 HIT:          0 MISS:          0
cpu0_DTLB WRITE        ACCESS:          0 HIT:          0 MISS:          0
cpu0_DTLB TRANSLATION  ACCESS:          0 HIT:          0 MISS:          0
cpu0_DTLB PREFETCH REQUESTED:          0 ISSUED:          0 USEFUL:          0 USELESS:          0
cpu0_DTLB AVERAGE MISS LATENCY: 4.05 cycles
cpu0_ITLB TOTAL        ACCESS:     808505 HIT:     806871 MISS:       1634
cpu0_ITLB LOAD         ACCESS:     808505 HIT:     806871 MISS:       1634
cpu0_ITLB RFO          ACCESS:          0 HIT:          0 MISS:          0
cpu0_ITLB PREFETCH     ACCESS:          0 HIT:          0 MISS:          0
cpu0_ITLB WRITE        ACCESS:          0 HIT:          0 MISS:          0
cpu0_ITLB TRANSLATION  ACCESS:          0 HIT:          0 MISS:          0
cpu0_ITLB PREFETCH REQUESTED:          0 ISSUED:          0 USEFUL:          0 USELESS:          0
cpu0_ITLB AVERAGE MISS LATENCY: 10.45 cycles
cpu0_L1D TOTAL        ACCESS:   21432477 HIT:   20520058 MISS:     912419
cpu0_L1D LOAD         ACCESS:   16549879 HIT:   16084958 MISS:     464921
cpu0_L1D RFO          ACCESS:          0 HIT:          0 MISS:          0
cpu0_L1D PREFETCH     ACCESS:     262669 HIT:     156808 MISS:     105861
cpu0_L1D WRITE        ACCESS:    4619615 HIT:    4278246 MISS:     341369
cpu0_L1D TRANSLATION  ACCESS:        314 HIT:         46 MISS:        268
cpu0_L1D PREFETCH REQUESTED:    5156504 ISSUED:     262669 USEFUL:       8041 USELESS:       5840
cpu0_L1D AVERAGE MISS LATENCY: 7.868 cycles
cpu0_L1I TOTAL        ACCESS:    1236202 HIT:    1183453 MISS:      52749
cpu0_L1I LOAD         ACCESS:     505959 HIT:     488965 MISS:      16994
cpu0_L1I RFO          ACCESS:          0 HIT:          0 MISS:          0
cpu0_L1I PREFETCH     ACCESS:     730243 HIT:     694488 MISS:      35755
cpu0_L1I WRITE        ACCESS:          0 HIT:          0 MISS:          0
cpu0_L1I TRANSLATION  ACCESS:          0 HIT:          0 MISS:          0
cpu0_L1I PREFETCH REQUESTED:    2611158 ISSUED:     730243 USEFUL:      20265 USELESS:      12727
cpu0_L1I AVERAGE MISS LATENCY: 18.55 cycles
cpu0_L2C TOTAL        ACCESS:    1624893 HIT:    1552057 MISS:      72836
cpu0_L2C LOAD         ACCESS:     385833 HIT:     370968 MISS:      14865
cpu0_L2C RFO          ACCESS:     193409 HIT:     166975 MISS:      26434
cpu0_L2C PREFETCH     ACCESS:     612661 HIT:     581345 MISS:      31316
cpu0_L2C WRITE        ACCESS:     432722 HIT:     432722 MISS:          0
cpu0_L2C TRANSLATION  ACCESS:        268 HIT:         47 MISS:        221
cpu0_L2C PREFETCH REQUESTED:     508270 ISSUED:     490224 USEFUL:       5150 USELESS:       3858
cpu0_L2C AVERAGE MISS LATENCY: 34.19 cycles
cpu0_STLB TOTAL        ACCESS:      21334 HIT:      21073 MISS:        261
cpu0_STLB LOAD         ACCESS:      21334 HIT:      21073 MISS:        261
cpu0_STLB RFO          ACCESS:          0 HIT:          0 MISS:          0
cpu0_STLB PREFETCH     ACCESS:          0 HIT:          0 MISS:          0
cpu0_STLB WRITE        ACCESS:          0 HIT:          0 MISS:          0
cpu0_STLB TRANSLATION  ACCESS:          0 HIT:          0 MISS:          0
cpu0_STLB PREFETCH REQUESTED:          0 ISSUED:          0 USEFUL:          0 USELESS:          0
cpu0_STLB AVERAGE MISS LATENCY: 161.7 cycles

DRAM Statistics

Channel 0 RQ ROW_BUFFER_HIT:       2072
  ROW_BUFFER_MISS:       2674
 AVG DBUS CONGESTED CYCLE: 3.766
WQ ROW_BUFFER_HIT: Channel 0 
  ROW_BUFFER_MISS:         95
  FULL:        309

Channel 1 RQ ROW_BUFFER_HIT:       1911
  ROW_BUFFER_MISS:       2567
 AVG DBUS CONGESTED CYCLE: 3.72
WQ ROW_BUFFER_HIT: Channel 1 
  ROW_BUFFER_MISS:         78
  FULL:        258
BERTI TO_L1: 2354991 TO_L2: 4780243 TO_L2_BC_MSHR: 57128
BERTI AVG_LAT: 22.4424 NUM_TRACK_LATENCY: 587016 NUM_CANT_TRACK_LATENCY: 246
BERTI CROSS_PAGE 1718235 NO_CROSS_PAGE: 5416999
BERTI FOUND_BERTI: 8959106 NO_FOUND_BERTI: 15095931
BERTI AVERAGE_ISSUED: 3.96557
CPU 0 L1I Entangling prefetcher final stats
IP accesses: b790 2de400 16984 / 507454
IP misses: 89d4 227500 165 / 18489
IP hits: 0 0 0 / 0
IP late: c411 310440 56 / 7935
IP wrong: b6dd 2db740 110 / 12647
miss rate: 0.0364349
coverage: 0
coverage_late: 0.429175
accuracy: 0
accuracy_late: 0.385532
discarded: 0
evicts entangled j table: 0
evicts entangled k table: 1979
max bb size: 65
formats: 426 0 1702 743 409 822 0 
hist_lookups: 1459 1629 1368 1156 975 804 699 519 406 356 271 161 92 48 19 0 0 2789 
hist_lookups_evict: 0 %
hist_lookups_shortlat: 21.8728 %
bb_found_hist: 0 63805 27568 20284 11709 20913 12353 9911 533 4699 3738 2418 2882 1264 1594 4659 183 1822 1308 1136 637 0 24 240 357 214 0 214 112 0 0 0 495 0 0 0 0 0 1179 0 0 0 0 0 0 0 0 0 0 2 0 0 0 0 0 0 0 0 0 0 0 0 0 0 
bb_found_summary: 909829 196253 4.63601
entangled_found_hist: 0 29956 35577 39006 3368 3077 375 0 
entangled_found_summary: 249235 111359 2.23813
bb_ent_found_hist: 0 61938 31733 19883 5500 10694 12854 5189 3738 3754 426 79 12 5637 1318 4180 1020 5355 3065 5614 479 0 651 978 6152 214 0 2188 3664 0 0 0 1536 0 0 0 0 0 5631 0 0 0 0 0 0 0 0 0 0 2 0 0 0 0 0 0 0 0 0 0 0 0 0 0 
bb_ent_found_summary: 1490847 203484 7.32661
