WARNING: physical memory size is smaller than virtual memory size.

*** ChampSim Multicore Out-of-Order Simulator ***
Warmup Instructions: 30000000
Simulation Instructions: 100000000
Number of CPUs: 1
Page size: 4096

BTB:
Basic BTB sets: 1024 ways: 8
Indirect:
history lengths: 0 0 10 16 27 44 60 96 109 219 449 487 714 1313 2146 3881 
ITTAGE tables: 64768 bytes;Region table: 240 bytes;IUM: 384 bytes;Total Storage= 65392 bytes;
RAS:
RAS size: 64
[LLC] Demand IPV: 1 2 2 1 4 Prefetch IPV: 1 2 1 1 4
Berti Prefetcher
CPU 0 Entangling prefetcher
Off-chip DRAM Size: 8 GiB Channels: 2 Width: 64-bit Data Race: 6400 MT/s
Heartbeat CPU 0 instructions: 10000000 cycles: 1666929 heartbeat IPC: 5.999 cumulative IPC: 5.999 (Simulation time: 00 hr 00 min 37 sec)
Heartbeat CPU 0 instructions: 20000000 cycles: 3333594 heartbeat IPC: 6 cumulative IPC: 6 (Simulation time: 00 hr 01 min 15 sec)
Heartbeat CPU 0 instructions: 30000004 cycles: 5000262 heartbeat IPC: 6 cumulative IPC: 6 (Simulation time: 00 hr 01 min 58 sec)
Warmup finished CPU 0 instructions: 30000004 cycles: 5000263 cumulative IPC: 6 (Simulation time: 00 hr 01 min 58 sec)
Warmup complete CPU 0 instructions: 30000004 cycles: 5000263 cumulative IPC: 6 (Simulation time: 00 hr 01 min 58 sec)
Heartbeat CPU 0 instructions: 40000000 cycles: 6667011 heartbeat IPC: 6 cumulative IPC: 6 (Simulation time: 00 hr 02 min 49 sec)
Heartbeat CPU 0 instructions: 50000004 cycles: 8333849 heartbeat IPC: 5.999 cumulative IPC: 6 (Simulation time: 00 hr 03 min 40 sec)
Heartbeat CPU 0 instructions: 60000007 cycles: 10000626 heartbeat IPC: 6 cumulative IPC: 6 (Simulation time: 00 hr 04 min 30 sec)
Heartbeat CPU 0 instructions: 70000005 cycles: 11667391 heartbeat IPC: 6 cumulative IPC: 6 (Simulation time: 00 hr 05 min 19 sec)
Heartbeat CPU 0 instructions: 80000005 cycles: 13334099 heartbeat IPC: 6 cumulative IPC: 6 (Simulation time: 00 hr 06 min 04 sec)
Heartbeat CPU 0 instructions: 90000001 cycles: 15000993 heartbeat IPC: 5.999 cumulative IPC: 6 (Simulation time: 00 hr 06 min 50 sec)
Heartbeat CPU 0 instructions: 100000003 cycles: 16794782 heartbeat IPC: 5.575 cumulative IPC: 5.935 (Simulation time: 00 hr 07 min 36 sec)
*** Reached end of trace: (0, "../traces/secret_traces/compute_fp/compute_fp_93.champsimtrace.xz")
Heartbeat CPU 0 instructions: 110000008 cycles: 18461701 heartbeat IPC: 5.999 cumulative IPC: 5.943 (Simulation time: 00 hr 08 min 20 sec)
Heartbeat CPU 0 instructions: 120000011 cycles: 20128443 heartbeat IPC: 6 cumulative IPC: 5.949 (Simulation time: 00 hr 09 min 05 sec)
Heartbeat CPU 0 instructions: 130000003 cycles: 21795181 heartbeat IPC: 6 cumulative IPC: 5.954 (Simulation time: 00 hr 09 min 49 sec)
Simulation finished CPU 0 instructions: 100000000 cycles: 16794920 cumulative IPC: 5.954 (Simulation time: 00 hr 09 min 49 sec)
Simulation complete CPU 0 instructions: 100000000 cycles: 16794920 cumulative IPC: 5.954 (Simulation time: 00 hr 09 min 49 sec)

ChampSim completed all CPUs

=== Simulation ===
CPU 0 runs ../traces/secret_traces/compute_fp/compute_fp_93.champsimtrace.xz
Region of Interest Statistics

CPU 0 cumulative IPC: 5.954 instructions: 100000000 cycles: 16794920
CPU 0 Branch Prediction Accuracy: 99.95% MPKI: 0.01354 Average ROB Occupancy at Mispredict: 14.68
Branch type MPKI
BRANCH_DIRECT_JUMP: 0.00091
BRANCH_INDIRECT: 0.00974
BRANCH_CONDITIONAL: 0.0017
BRANCH_DIRECT_CALL: 0.00016
BRANCH_INDIRECT_CALL: 0.00015
BRANCH_RETURN: 0.00088

LLC TOTAL        ACCESS:       1694 HIT:          0 MISS:       1694
LLC LOAD         ACCESS:        720 HIT:          0 MISS:        720
LLC RFO          ACCESS:         54 HIT:          0 MISS:         54
LLC PREFETCH     ACCESS:        766 HIT:          0 MISS:        766
LLC WRITE        ACCESS:          0 HIT:          0 MISS:          0
LLC TRANSLATION  ACCESS:        154 HIT:          0 MISS:        154
LLC PREFETCH REQUESTED:          0 ISSUED:          0 USEFUL:          0 USELESS:          0
LLC AVERAGE MISS LATENCY: 129.1 cycles
cpu0_DTLB TOTAL        ACCESS:   16643007 HIT:   16627028 MISS:      15979
cpu0_DTLB LOAD         ACCESS:   16643007 HIT:   16627028 MISS:      15979
cpu0_DTLB RFO          ACCESS:          0 HIT:          0 MISS:          0
cpu0_DTLB PREFETCH     ACCESS:          0 HIT:          0 MISS:          0
cpu0_DTLB WRITE        ACCESS:          0 HIT:          0 MISS:          0
cpu0_DTLB TRANSLATION  ACCESS:          0 HIT:          0 MISS:          0
cpu0_DTLB PREFETCH REQUESTED:          0 ISSUED:          0 USEFUL:          0 USELESS:          0
cpu0_DTLB AVERAGE MISS LATENCY: 9.252 cycles
cpu0_ITLB TOTAL        ACCESS:       8950 HIT:       8865 MISS:         85
cpu0_ITLB LOAD         ACCESS:       8950 HIT:       8865 MISS:         85
cpu0_ITLB RFO          ACCESS:          0 HIT:          0 MISS:          0
cpu0_ITLB PREFETCH     ACCESS:          0 HIT:          0 MISS:          0
cpu0_ITLB WRITE        ACCESS:          0 HIT:          0 MISS:          0
cpu0_ITLB TRANSLATION  ACCESS:          0 HIT:          0 MISS:          0
cpu0_ITLB PREFETCH REQUESTED:          0 ISSUED:          0 USEFUL:          0 USELESS:          0
cpu0_ITLB AVERAGE MISS LATENCY: 223.3 cycles
cpu0_L1D TOTAL        ACCESS:   39549091 HIT:   38021685 MISS:    1527406
cpu0_L1D LOAD         ACCESS:   22803359 HIT:   22684378 MISS:     118981
cpu0_L1D RFO          ACCESS:          0 HIT:          0 MISS:          0
cpu0_L1D PREFETCH     ACCESS:    9699698 HIT:    8306598 MISS:    1393100
cpu0_L1D WRITE        ACCESS:    7045845 HIT:    7030682 MISS:      15163
cpu0_L1D TRANSLATION  ACCESS:        189 HIT:         27 MISS:        162
cpu0_L1D PREFETCH REQUESTED:   65935314 ISSUED:    9699702 USEFUL:     847842 USELESS:       3937
cpu0_L1D AVERAGE MISS LATENCY: 5.768 cycles
cpu0_L1I TOTAL        ACCESS:      12979 HIT:      11399 MISS:       1580
cpu0_L1I LOAD         ACCESS:       6908 HIT:       5764 MISS:       1144
cpu0_L1I RFO          ACCESS:          0 HIT:          0 MISS:          0
cpu0_L1I PREFETCH     ACCESS:       6071 HIT:       5635 MISS:        436
cpu0_L1I WRITE        ACCESS:          0 HIT:          0 MISS:          0
cpu0_L1I TRANSLATION  ACCESS:          0 HIT:          0 MISS:          0
cpu0_L1I PREFETCH REQUESTED:       9824 ISSUED:       6071 USEFUL:        237 USELESS:         29
cpu0_L1I AVERAGE MISS LATENCY: 42.11 cycles
cpu0_L2C TOTAL        ACCESS:    3692271 HIT:    3690375 MISS:       1896
cpu0_L2C LOAD         ACCESS:      25411 HIT:      24655 MISS:        756
cpu0_L2C RFO          ACCESS:       7955 HIT:       7900 MISS:         55
cpu0_L2C PREFETCH     ACCESS:    2788738 HIT:    2787808 MISS:        930
cpu0_L2C WRITE        ACCESS:     870006 HIT:     870006 MISS:          0
cpu0_L2C TRANSLATION  ACCESS:        161 HIT:          6 MISS:        155
cpu0_L2C PREFETCH REQUESTED:    1409237 ISSUED:    1404912 USEFUL:        257 USELESS:          0
cpu0_L2C AVERAGE MISS LATENCY: 132.4 cycles
cpu0_STLB TOTAL        ACCESS:      14942 HIT:      14775 MISS:        167
cpu0_STLB LOAD         ACCESS:      14942 HIT:      14775 MISS:        167
cpu0_STLB RFO          ACCESS:          0 HIT:          0 MISS:          0
cpu0_STLB PREFETCH     ACCESS:          0 HIT:          0 MISS:          0
cpu0_STLB WRITE        ACCESS:          0 HIT:          0 MISS:          0
cpu0_STLB TRANSLATION  ACCESS:          0 HIT:          0 MISS:          0
cpu0_STLB PREFETCH REQUESTED:          0 ISSUED:          0 USEFUL:          0 USELESS:          0
cpu0_STLB AVERAGE MISS LATENCY: 315.5 cycles

DRAM Statistics

Channel 0 RQ ROW_BUFFER_HIT:        336
  ROW_BUFFER_MISS:        521
 AVG DBUS CONGESTED CYCLE: 3.594
WQ ROW_BUFFER_HIT: Channel 0 
  ROW_BUFFER_MISS:          0
  FULL:          0

Channel 1 RQ ROW_BUFFER_HIT:        343
  ROW_BUFFER_MISS:        494
 AVG DBUS CONGESTED CYCLE: 3.517
WQ ROW_BUFFER_HIT: Channel 1 
  ROW_BUFFER_MISS:          0
  FULL:          0
BERTI TO_L1: 60918427 TO_L2: 25749847 TO_L2_BC_MSHR: 3645
BERTI AVG_LAT: 59.8378 NUM_TRACK_LATENCY: 1150052 NUM_CANT_TRACK_LATENCY: 0
BERTI CROSS_PAGE 15671950 NO_CROSS_PAGE: 70996324
BERTI FOUND_BERTI: 21843745 NO_FOUND_BERTI: 8236840
BERTI AVERAGE_ISSUED: 2.25804
CPU 0 L1I Entangling prefetcher final stats
IP accesses: 3b34 ecd00 76 / 6913
IP misses: 4374 10dd00 30 / 1149
IP hits: 0 0 0 / 0
IP late: 2133 84cc0 10 / 349
IP wrong: 64e1 193840 2 / 28
miss rate: 0.166209
coverage: 0
coverage_late: 0.303743
accuracy: 0
accuracy_late: 0.92573
discarded: 0
evicts entangled j table: 0
evicts entangled k table: 28
max bb size: 15
formats: 8 11 122 62 92 113 0 
hist_lookups: 266 166 40 35 41 55 37 28 18 14 6 7 5 4 1 0 0 318 
hist_lookups_evict: 0 %
hist_lookups_shortlat: 30.5476 %
bb_found_hist: 0 1083 553 196 73 39 24 33 23 1 0 0 0 0 0 10 0 0 0 0 0 0 0 0 0 0 0 0 0 0 0 0 0 0 0 0 0 0 0 0 0 0 0 0 0 0 0 0 0 0 0 0 0 0 0 0 0 0 0 0 0 0 0 0 
bb_found_summary: 3982 2035 1.95676
entangled_found_hist: 0 531 422 356 64 8 0 0 
entangled_found_summary: 2739 1381 1.98335
bb_ent_found_hist: 0 851 347 222 53 47 60 51 0 4 0 1 0 0 0 12 0 0 0 0 0 0 0 0 0 0 0 0 0 0 0 0 0 0 0 0 0 0 0 0 0 0 0 0 0 0 0 0 0 0 0 0 0 0 0 0 0 0 0 0 0 0 0 0 
bb_ent_found_summary: 3602 1648 2.18568
