WARNING: physical memory size is smaller than virtual memory size.

*** ChampSim Multicore Out-of-Order Simulator ***
Warmup Instructions: 30000000
Simulation Instructions: 100000000
Number of CPUs: 1
Page size: 4096

BTB:
Basic BTB sets: 1024 ways: 8
Indirect:
history lengths: 0 0 10 16 27 44 60 96 109 219 449 487 714 1313 2146 3881 
ITTAGE tables: 64768 bytes;Region table: 240 bytes;IUM: 384 bytes;Total Storage= 65392 bytes;
RAS:
RAS size: 64
[LLC] Demand IPV: 1 2 2 1 4 Prefetch IPV: 1 2 1 1 4
Berti Prefetcher
CPU 0 Entangling prefetcher
Off-chip DRAM Size: 8 GiB Channels: 2 Width: 64-bit Data Race: 6400 MT/s
Heartbeat CPU 0 instructions: 10000001 cycles: 1714915 heartbeat IPC: 5.831 cumulative IPC: 5.831 (Simulation time: 00 hr 00 min 41 sec)
Heartbeat CPU 0 instructions: 20000000 cycles: 3459673 heartbeat IPC: 5.731 cumulative IPC: 5.781 (Simulation time: 00 hr 01 min 23 sec)
Heartbeat CPU 0 instructions: 30000005 cycles: 5184714 heartbeat IPC: 5.797 cumulative IPC: 5.786 (Simulation time: 00 hr 02 min 05 sec)
Warmup finished CPU 0 instructions: 30000005 cycles: 5184715 cumulative IPC: 5.786 (Simulation time: 00 hr 02 min 05 sec)
Warmup complete CPU 0 instructions: 30000005 cycles: 5184715 cumulative IPC: 5.786 (Simulation time: 00 hr 02 min 05 sec)
Heartbeat CPU 0 instructions: 40000009 cycles: 6928940 heartbeat IPC: 5.733 cumulative IPC: 5.733 (Simulation time: 00 hr 02 min 52 sec)
Heartbeat CPU 0 instructions: 50000003 cycles: 9554806 heartbeat IPC: 3.808 cumulative IPC: 4.577 (Simulation time: 00 hr 03 min 39 sec)
Heartbeat CPU 0 instructions: 60000002 cycles: 11289105 heartbeat IPC: 5.766 cumulative IPC: 4.914 (Simulation time: 00 hr 04 min 26 sec)
Heartbeat CPU 0 instructions: 70000009 cycles: 13114887 heartbeat IPC: 5.477 cumulative IPC: 5.044 (Simulation time: 00 hr 05 min 16 sec)
Heartbeat CPU 0 instructions: 80000004 cycles: 14854028 heartbeat IPC: 5.75 cumulative IPC: 5.171 (Simulation time: 00 hr 06 min 04 sec)
Heartbeat CPU 0 instructions: 90000004 cycles: 16592153 heartbeat IPC: 5.753 cumulative IPC: 5.26 (Simulation time: 00 hr 06 min 52 sec)
Heartbeat CPU 0 instructions: 100000004 cycles: 18316069 heartbeat IPC: 5.801 cumulative IPC: 5.331 (Simulation time: 00 hr 07 min 34 sec)
*** Reached end of trace: (0, "../traces/secret_traces/compute_fp/compute_fp_32.champsimtrace.xz")
Heartbeat CPU 0 instructions: 110000002 cycles: 20042865 heartbeat IPC: 5.791 cumulative IPC: 5.384 (Simulation time: 00 hr 08 min 21 sec)
Heartbeat CPU 0 instructions: 120000009 cycles: 21805802 heartbeat IPC: 5.672 cumulative IPC: 5.415 (Simulation time: 00 hr 09 min 10 sec)
Heartbeat CPU 0 instructions: 130000000 cycles: 23541218 heartbeat IPC: 5.762 cumulative IPC: 5.448 (Simulation time: 00 hr 09 min 58 sec)
Simulation finished CPU 0 instructions: 100000007 cycles: 18356505 cumulative IPC: 5.448 (Simulation time: 00 hr 09 min 58 sec)
Simulation complete CPU 0 instructions: 100000007 cycles: 18356505 cumulative IPC: 5.448 (Simulation time: 00 hr 09 min 58 sec)

ChampSim completed all CPUs

=== Simulation ===
CPU 0 runs ../traces/secret_traces/compute_fp/compute_fp_32.champsimtrace.xz
Region of Interest Statistics

CPU 0 cumulative IPC: 5.448 instructions: 100000007 cycles: 18356505
CPU 0 Branch Prediction Accuracy: 99.86% MPKI: 0.1942 Average ROB Occupancy at Mispredict: 20.44
Branch type MPKI
BRANCH_DIRECT_JUMP: 0.0125
BRANCH_INDIRECT: 0.0733
BRANCH_CONDITIONAL: 0.061
BRANCH_DIRECT_CALL: 0.0205
BRANCH_INDIRECT_CALL: 0.00802
BRANCH_RETURN: 0.0188

LLC TOTAL        ACCESS:     101543 HIT:      80717 MISS:      20826
LLC LOAD         ACCESS:       6454 HIT:       2233 MISS:       4221
LLC RFO          ACCESS:      23761 HIT:      14266 MISS:       9495
LLC PREFETCH     ACCESS:      46963 HIT:      40785 MISS:       6178
LLC WRITE        ACCESS:      23857 HIT:      23392 MISS:        465
LLC TRANSLATION  ACCESS:        508 HIT:         41 MISS:        467
LLC PREFETCH REQUESTED:          0 ISSUED:          0 USEFUL:          0 USELESS:          0
LLC AVERAGE MISS LATENCY: 94.21 cycles
cpu0_DTLB TOTAL        ACCESS:   16165260 HIT:   13534883 MISS:    2630377
cpu0_DTLB LOAD         ACCESS:   16165260 HIT:   13534883 MISS:    2630377
cpu0_DTLB RFO          ACCESS:          0 HIT:          0 MISS:          0
cpu0_DTLB PREFETCH     ACCESS:          0 HIT:          0 MISS:          0
cpu0_DTLB WRITE        ACCESS:          0 HIT:          0 MISS:          0
cpu0_DTLB TRANSLATION  ACCESS:          0 HIT:          0 MISS:          0
cpu0_DTLB PREFETCH REQUESTED:          0 ISSUED:          0 USEFUL:          0 USELESS:          0
cpu0_DTLB AVERAGE MISS LATENCY: 5.515 cycles
cpu0_ITLB TOTAL        ACCESS:      68963 HIT:      68065 MISS:        898
cpu0_ITLB LOAD         ACCESS:      68963 HIT:      68065 MISS:        898
cpu0_ITLB RFO          ACCESS:          0 HIT:          0 MISS:          0
cpu0_ITLB PREFETCH     ACCESS:          0 HIT:          0 MISS:          0
cpu0_ITLB WRITE        ACCESS:          0 HIT:          0 MISS:          0
cpu0_ITLB TRANSLATION  ACCESS:          0 HIT:          0 MISS:          0
cpu0_ITLB PREFETCH REQUESTED:          0 ISSUED:          0 USEFUL:          0 USELESS:          0
cpu0_ITLB AVERAGE MISS LATENCY: 120.4 cycles
cpu0_L1D TOTAL        ACCESS:   30793667 HIT:   23649532 MISS:    7144135
cpu0_L1D LOAD         ACCESS:   11782155 HIT:    8814378 MISS:    2967777
cpu0_L1D RFO          ACCESS:          0 HIT:          0 MISS:          0
cpu0_L1D PREFETCH     ACCESS:    9558732 HIT:    5949001 MISS:    3609731
cpu0_L1D WRITE        ACCESS:    9451857 HIT:    8885854 MISS:     566003
cpu0_L1D TRANSLATION  ACCESS:        923 HIT:        299 MISS:        624
cpu0_L1D PREFETCH REQUESTED:   39713107 ISSUED:    9558739 USEFUL:    1538070 USELESS:     325582
cpu0_L1D AVERAGE MISS LATENCY: 10.55 cycles
cpu0_L1I TOTAL        ACCESS:      95675 HIT:      79390 MISS:      16285
cpu0_L1I LOAD         ACCESS:      40887 HIT:      30984 MISS:       9903
cpu0_L1I RFO          ACCESS:          0 HIT:          0 MISS:          0
cpu0_L1I PREFETCH     ACCESS:      54788 HIT:      48406 MISS:       6382
cpu0_L1I WRITE        ACCESS:          0 HIT:          0 MISS:          0
cpu0_L1I TRANSLATION  ACCESS:          0 HIT:          0 MISS:          0
cpu0_L1I PREFETCH REQUESTED:      65299 ISSUED:      54788 USEFUL:       2816 USELESS:       2406
cpu0_L1I AVERAGE MISS LATENCY: 43.44 cycles
cpu0_L2C TOTAL        ACCESS:   12069201 HIT:   11957909 MISS:     111292
cpu0_L2C LOAD         ACCESS:    2225976 HIT:    2218576 MISS:       7400
cpu0_L2C RFO          ACCESS:     296866 HIT:     273097 MISS:      23769
cpu0_L2C PREFETCH     ACCESS:    5745792 HIT:    5666177 MISS:      79615
cpu0_L2C WRITE        ACCESS:    3799944 HIT:    3799944 MISS:          0
cpu0_L2C TRANSLATION  ACCESS:        623 HIT:        115 MISS:        508
cpu0_L2C PREFETCH REQUESTED:    5401976 ISSUED:    2569785 USEFUL:      11995 USELESS:       9043
cpu0_L2C AVERAGE MISS LATENCY: 31.47 cycles
cpu0_STLB TOTAL        ACCESS:    2076934 HIT:    2076055 MISS:        879
cpu0_STLB LOAD         ACCESS:    2076934 HIT:    2076055 MISS:        879
cpu0_STLB RFO          ACCESS:          0 HIT:          0 MISS:          0
cpu0_STLB PREFETCH     ACCESS:          0 HIT:          0 MISS:          0
cpu0_STLB WRITE        ACCESS:          0 HIT:          0 MISS:          0
cpu0_STLB TRANSLATION  ACCESS:          0 HIT:          0 MISS:          0
cpu0_STLB PREFETCH REQUESTED:          0 ISSUED:          0 USEFUL:          0 USELESS:          0
cpu0_STLB AVERAGE MISS LATENCY: 243 cycles

DRAM Statistics

Channel 0 RQ ROW_BUFFER_HIT:       6611
  ROW_BUFFER_MISS:       3634
 AVG DBUS CONGESTED CYCLE: 3.278
WQ ROW_BUFFER_HIT: Channel 0 
  ROW_BUFFER_MISS:         12
  FULL:         38

Channel 1 RQ ROW_BUFFER_HIT:       6545
  ROW_BUFFER_MISS:       3570
 AVG DBUS CONGESTED CYCLE: 3.211
WQ ROW_BUFFER_HIT: Channel 1 
  ROW_BUFFER_MISS:         13
  FULL:         26
BERTI TO_L1: 23812113 TO_L2: 34174959 TO_L2_BC_MSHR: 12011688
BERTI AVG_LAT: 46.2834 NUM_TRACK_LATENCY: 5401162 NUM_CANT_TRACK_LATENCY: 190
BERTI CROSS_PAGE 41446970 NO_CROSS_PAGE: 16540102
BERTI FOUND_BERTI: 12318805 NO_FOUND_BERTI: 4879922
BERTI AVERAGE_ISSUED: 2.78532
CPU 0 L1I Entangling prefetcher final stats
IP accesses: 2562 95880 200 / 41462
IP misses: f087 3c21c0 42 / 10478
IP hits: 0 0 0 / 0
IP late: 2133 84cc0 9 / 2032
IP wrong: fd0e 3f4380 17 / 2383
miss rate: 0.252714
coverage: 0
coverage_late: 0.193931
accuracy: 0
accuracy_late: 0.46025
discarded: 0
evicts entangled j table: 0
evicts entangled k table: 346
max bb size: 17
formats: 52 69 1498 568 455 1306 0 
hist_lookups: 2756 1774 597 371 290 212 189 141 97 69 39 25 29 24 11 0 3 1289 
hist_lookups_evict: 0.037898 %
hist_lookups_shortlat: 16.2835 %
bb_found_hist: 0 6507 2027 967 463 112 51 39 9 12 20 11 0 0 0 9 0 0 0 0 0 0 0 0 0 0 0 0 0 0 0 0 0 0 0 0 0 0 0 0 0 0 0 0 0 0 0 0 0 0 0 0 0 0 0 0 0 0 0 0 0 0 0 0 
bb_found_summary: 17089 10227 1.67097
entangled_found_hist: 0 3999 3589 2898 889 724 0 0 
entangled_found_summary: 27047 12099 2.23548
bb_ent_found_hist: 0 7375 2597 1629 737 191 142 155 10 21 87 21 0 0 0 18 0 0 0 0 0 0 0 0 0 0 0 0 0 0 0 0 0 0 0 0 0 0 0 0 0 0 0 0 0 0 0 0 0 0 0 0 0 0 0 0 0 0 0 0 0 0 0 0 
bb_ent_found_summary: 24936 12983 1.92067
