WARNING: physical memory size is smaller than virtual memory size.

*** ChampSim Multicore Out-of-Order Simulator ***
Warmup Instructions: 30000000
Simulation Instructions: 100000000
Number of CPUs: 1
Page size: 4096

BTB:
Basic BTB sets: 1024 ways: 8
Indirect:
history lengths: 0 0 10 16 27 44 60 96 109 219 449 487 714 1313 2146 3881 
ITTAGE tables: 64768 bytes;Region table: 240 bytes;IUM: 384 bytes;Total Storage= 65392 bytes;
RAS:
RAS size: 64
[LLC] Demand IPV: 1 2 2 1 4 Prefetch IPV: 1 2 1 1 4
Berti Prefetcher
CPU 0 Entangling prefetcher
Off-chip DRAM Size: 8 GiB Channels: 2 Width: 64-bit Data Race: 6400 MT/s
Heartbeat CPU 0 instructions: 10000008 cycles: 1890204 heartbeat IPC: 5.29 cumulative IPC: 5.29 (Simulation time: 00 hr 00 min 43 sec)
Heartbeat CPU 0 instructions: 20000000 cycles: 3706716 heartbeat IPC: 5.505 cumulative IPC: 5.396 (Simulation time: 00 hr 01 min 26 sec)
Heartbeat CPU 0 instructions: 30000004 cycles: 5514891 heartbeat IPC: 5.53 cumulative IPC: 5.44 (Simulation time: 00 hr 02 min 10 sec)
Warmup finished CPU 0 instructions: 30000004 cycles: 5514892 cumulative IPC: 5.44 (Simulation time: 00 hr 02 min 10 sec)
Warmup complete CPU 0 instructions: 30000004 cycles: 5514892 cumulative IPC: 5.44 (Simulation time: 00 hr 02 min 10 sec)
Heartbeat CPU 0 instructions: 40000000 cycles: 12822396 heartbeat IPC: 1.368 cumulative IPC: 1.368 (Simulation time: 00 hr 03 min 41 sec)
Heartbeat CPU 0 instructions: 50000001 cycles: 19474983 heartbeat IPC: 1.503 cumulative IPC: 1.433 (Simulation time: 00 hr 05 min 10 sec)
Heartbeat CPU 0 instructions: 60000004 cycles: 26413672 heartbeat IPC: 1.441 cumulative IPC: 1.435 (Simulation time: 00 hr 06 min 51 sec)
Heartbeat CPU 0 instructions: 70000008 cycles: 32125183 heartbeat IPC: 1.751 cumulative IPC: 1.503 (Simulation time: 00 hr 08 min 15 sec)
Heartbeat CPU 0 instructions: 80000006 cycles: 37198604 heartbeat IPC: 1.971 cumulative IPC: 1.578 (Simulation time: 00 hr 09 min 30 sec)
Heartbeat CPU 0 instructions: 90000003 cycles: 42846130 heartbeat IPC: 1.771 cumulative IPC: 1.607 (Simulation time: 00 hr 10 min 58 sec)
Heartbeat CPU 0 instructions: 100000003 cycles: 49793710 heartbeat IPC: 1.439 cumulative IPC: 1.581 (Simulation time: 00 hr 12 min 28 sec)
*** Reached end of trace: (0, "../traces/secret_traces/compute_fp/compute_fp_94.champsimtrace.xz")
Heartbeat CPU 0 instructions: 110000009 cycles: 55695370 heartbeat IPC: 1.694 cumulative IPC: 1.594 (Simulation time: 00 hr 13 min 58 sec)
Heartbeat CPU 0 instructions: 120000004 cycles: 61932108 heartbeat IPC: 1.603 cumulative IPC: 1.595 (Simulation time: 00 hr 15 min 27 sec)
Heartbeat CPU 0 instructions: 130000002 cycles: 68602226 heartbeat IPC: 1.499 cumulative IPC: 1.585 (Simulation time: 00 hr 16 min 54 sec)
Simulation finished CPU 0 instructions: 100000000 cycles: 63087336 cumulative IPC: 1.585 (Simulation time: 00 hr 16 min 54 sec)
Simulation complete CPU 0 instructions: 100000000 cycles: 63087336 cumulative IPC: 1.585 (Simulation time: 00 hr 16 min 54 sec)

ChampSim completed all CPUs

=== Simulation ===
CPU 0 runs ../traces/secret_traces/compute_fp/compute_fp_94.champsimtrace.xz
Region of Interest Statistics

CPU 0 cumulative IPC: 1.585 instructions: 100000000 cycles: 63087336
CPU 0 Branch Prediction Accuracy: 97.73% MPKI: 2.837 Average ROB Occupancy at Mispredict: 96.74
Branch type MPKI
BRANCH_DIRECT_JUMP: 0.0115
BRANCH_INDIRECT: 1.65
BRANCH_CONDITIONAL: 1.14
BRANCH_DIRECT_CALL: 0.0223
BRANCH_INDIRECT_CALL: 0.00306
BRANCH_RETURN: 0.0122

LLC TOTAL        ACCESS:    3077887 HIT:     724267 MISS:    2353620
LLC LOAD         ACCESS:     626156 HIT:      73023 MISS:     553133
LLC RFO          ACCESS:     166659 HIT:     150256 MISS:      16403
LLC PREFETCH     ACCESS:    2006589 HIT:     284101 MISS:    1722488
LLC WRITE        ACCESS:     250348 HIT:     211494 MISS:      38854
LLC TRANSLATION  ACCESS:      28135 HIT:       5393 MISS:      22742
LLC PREFETCH REQUESTED:          0 ISSUED:          0 USEFUL:          0 USELESS:          0
LLC AVERAGE MISS LATENCY: 255 cycles
cpu0_DTLB TOTAL        ACCESS:   20802189 HIT:   20288848 MISS:     513341
cpu0_DTLB LOAD         ACCESS:   20802189 HIT:   20288848 MISS:     513341
cpu0_DTLB RFO          ACCESS:          0 HIT:          0 MISS:          0
cpu0_DTLB PREFETCH     ACCESS:          0 HIT:          0 MISS:          0
cpu0_DTLB WRITE        ACCESS:          0 HIT:          0 MISS:          0
cpu0_DTLB TRANSLATION  ACCESS:          0 HIT:          0 MISS:          0
cpu0_DTLB PREFETCH REQUESTED:          0 ISSUED:          0 USEFUL:          0 USELESS:          0
cpu0_DTLB AVERAGE MISS LATENCY: 14.15 cycles
cpu0_ITLB TOTAL        ACCESS:     208209 HIT:     206576 MISS:       1633
cpu0_ITLB LOAD         ACCESS:     208209 HIT:     206576 MISS:       1633
cpu0_ITLB RFO          ACCESS:          0 HIT:          0 MISS:          0
cpu0_ITLB PREFETCH     ACCESS:          0 HIT:          0 MISS:          0
cpu0_ITLB WRITE        ACCESS:          0 HIT:          0 MISS:          0
cpu0_ITLB TRANSLATION  ACCESS:          0 HIT:          0 MISS:          0
cpu0_ITLB PREFETCH REQUESTED:          0 ISSUED:          0 USEFUL:          0 USELESS:          0
cpu0_ITLB AVERAGE MISS LATENCY: 51.24 cycles
cpu0_L1D TOTAL        ACCESS:   40010969 HIT:   31162212 MISS:    8848757
cpu0_L1D LOAD         ACCESS:   19158125 HIT:   14801488 MISS:    4356637
cpu0_L1D RFO          ACCESS:          0 HIT:          0 MISS:          0
cpu0_L1D PREFETCH     ACCESS:   16777094 HIT:   12801109 MISS:    3975985
cpu0_L1D WRITE        ACCESS:    3970510 HIT:    3526845 MISS:     443665
cpu0_L1D TRANSLATION  ACCESS:     105240 HIT:      32770 MISS:      72470
cpu0_L1D PREFETCH REQUESTED:   65969229 ISSUED:   16777103 USEFUL:    1103030 USELESS:      31665
cpu0_L1D AVERAGE MISS LATENCY: 32.32 cycles
cpu0_L1I TOTAL        ACCESS:     306211 HIT:     264615 MISS:      41596
cpu0_L1I LOAD         ACCESS:     112065 HIT:     100644 MISS:      11421
cpu0_L1I RFO          ACCESS:          0 HIT:          0 MISS:          0
cpu0_L1I PREFETCH     ACCESS:     194146 HIT:     163971 MISS:      30175
cpu0_L1I WRITE        ACCESS:          0 HIT:          0 MISS:          0
cpu0_L1I TRANSLATION  ACCESS:          0 HIT:          0 MISS:          0
cpu0_L1I PREFETCH REQUESTED:     299401 ISSUED:     194146 USEFUL:      17418 USELESS:      10223
cpu0_L1I AVERAGE MISS LATENCY: 81.35 cycles
cpu0_L2C TOTAL        ACCESS:   11230463 HIT:    5175938 MISS:    6054525
cpu0_L2C LOAD         ACCESS:    1741572 HIT:     955814 MISS:     785758
cpu0_L2C RFO          ACCESS:     219457 HIT:      52736 MISS:     166721
cpu0_L2C PREFETCH     ACCESS:    8880412 HIT:    3806868 MISS:    5073544
cpu0_L2C WRITE        ACCESS:     317310 HIT:     316943 MISS:        367
cpu0_L2C TRANSLATION  ACCESS:      71712 HIT:      43577 MISS:      28135
cpu0_L2C PREFETCH REQUESTED:    5447278 ISSUED:    5207323 USEFUL:     705812 USELESS:     548430
cpu0_L2C AVERAGE MISS LATENCY: 105.3 cycles
cpu0_STLB TOTAL        ACCESS:     177245 HIT:      72339 MISS:     104906
cpu0_STLB LOAD         ACCESS:     177245 HIT:      72339 MISS:     104906
cpu0_STLB RFO          ACCESS:          0 HIT:          0 MISS:          0
cpu0_STLB PREFETCH     ACCESS:          0 HIT:          0 MISS:          0
cpu0_STLB WRITE        ACCESS:          0 HIT:          0 MISS:          0
cpu0_STLB TRANSLATION  ACCESS:          0 HIT:          0 MISS:          0
cpu0_STLB PREFETCH REQUESTED:          0 ISSUED:          0 USEFUL:          0 USELESS:          0
cpu0_STLB AVERAGE MISS LATENCY: 80.68 cycles

DRAM Statistics

Channel 0 RQ ROW_BUFFER_HIT:     780635
  ROW_BUFFER_MISS:     381882
 AVG DBUS CONGESTED CYCLE: 3.925
WQ ROW_BUFFER_HIT: Channel 0 
  ROW_BUFFER_MISS:       3878
  FULL:      15753

Channel 1 RQ ROW_BUFFER_HIT:     775939
  ROW_BUFFER_MISS:     376255
 AVG DBUS CONGESTED CYCLE: 3.923
WQ ROW_BUFFER_HIT: Channel 1 
  ROW_BUFFER_MISS:       3641
  FULL:      15649
BERTI TO_L1: 59820974 TO_L2: 30943577 TO_L2_BC_MSHR: 8329970
BERTI AVG_LAT: 101.288 NUM_TRACK_LATENCY: 3735576 NUM_CANT_TRACK_LATENCY: 0
BERTI CROSS_PAGE 19217857 NO_CROSS_PAGE: 71546694
BERTI FOUND_BERTI: 15798864 NO_FOUND_BERTI: 9938443
BERTI AVERAGE_ISSUED: 3.65331
CPU 0 L1I Entangling prefetcher final stats
IP accesses: 6d 1b40 1743 / 122725
IP misses: 399a e6680 501 / 22081
IP hits: 0 0 0 / 0
IP late: 5aed 16bb40 16 / 6063
IP wrong: e8e9 3a3a40 28 / 10176
miss rate: 0.179923
coverage: 0
coverage_late: 0.27458
accuracy: 0
accuracy_late: 0.373361
discarded: 0
evicts entangled j table: 0
evicts entangled k table: 1621
max bb size: 65
formats: 455 0 1326 698 352 762 0 
hist_lookups: 1220 1278 967 857 763 670 511 433 353 275 206 140 97 72 24 0 6 3638 
hist_lookups_evict: 0.0521286 %
hist_lookups_shortlat: 31.6073 %
bb_found_hist: 0 22642 8493 4608 3118 1403 1774 244 359 221 23 21 15 46 3 0 17 0 45 0 0 0 0 0 0 0 0 0 0 0 0 0 0 0 0 0 0 0 0 0 0 0 0 0 0 0 0 0 0 0 0 0 0 0 0 0 0 0 0 0 0 0 0 0 
bb_found_summary: 92515 43032 2.14992
entangled_found_hist: 0 11465 11596 11370 2828 1149 106 0 
entangled_found_summary: 86460 38514 2.2449
bb_ent_found_hist: 0 29620 13168 7308 5238 3740 604 727 380 287 93 3 14 413 9 0 0 0 126 0 0 0 0 0 0 0 0 0 0 0 0 0 0 0 0 0 0 0 0 0 0 0 0 0 0 0 0 0 0 0 0 0 0 0 0 0 0 0 0 0 0 0 0 0 
bb_ent_found_summary: 140762 61730 2.28029
