WARNING: physical memory size is smaller than virtual memory size.

*** ChampSim Multicore Out-of-Order Simulator ***
Warmup Instructions: 30000000
Simulation Instructions: 100000000
Number of CPUs: 1
Page size: 4096

BTB:
Basic BTB sets: 1024 ways: 8
Indirect:
history lengths: 0 0 10 16 27 44 60 96 109 219 449 487 714 1313 2146 3881 
ITTAGE tables: 64768 bytes;Region table: 240 bytes;IUM: 384 bytes;Total Storage= 65392 bytes;
RAS:
RAS size: 64
[LLC] Demand IPV: 1 2 2 1 4 Prefetch IPV: 1 2 1 1 4
Berti Prefetcher
CPU 0 Entangling prefetcher
Off-chip DRAM Size: 8 GiB Channels: 2 Width: 64-bit Data Race: 6400 MT/s
Heartbeat CPU 0 instructions: 10000007 cycles: 1717168 heartbeat IPC: 5.824 cumulative IPC: 5.824 (Simulation time: 00 hr 00 min 36 sec)
Heartbeat CPU 0 instructions: 20000004 cycles: 3384846 heartbeat IPC: 5.996 cumulative IPC: 5.909 (Simulation time: 00 hr 01 min 12 sec)
Heartbeat CPU 0 instructions: 30000000 cycles: 5532348 heartbeat IPC: 4.657 cumulative IPC: 5.423 (Simulation time: 00 hr 01 min 55 sec)
Warmup finished CPU 0 instructions: 30000000 cycles: 5532349 cumulative IPC: 5.423 (Simulation time: 00 hr 01 min 55 sec)
Warmup complete CPU 0 instructions: 30000000 cycles: 5532349 cumulative IPC: 5.423 (Simulation time: 00 hr 01 min 55 sec)
Heartbeat CPU 0 instructions: 40000002 cycles: 14968392 heartbeat IPC: 1.06 cumulative IPC: 1.06 (Simulation time: 00 hr 03 min 59 sec)
Heartbeat CPU 0 instructions: 50000002 cycles: 27169985 heartbeat IPC: 0.8196 cumulative IPC: 0.9243 (Simulation time: 00 hr 06 min 27 sec)
Heartbeat CPU 0 instructions: 60000002 cycles: 39386129 heartbeat IPC: 0.8186 cumulative IPC: 0.8862 (Simulation time: 00 hr 09 min 05 sec)
Heartbeat CPU 0 instructions: 70000007 cycles: 51497372 heartbeat IPC: 0.8257 cumulative IPC: 0.8702 (Simulation time: 00 hr 11 min 33 sec)
Heartbeat CPU 0 instructions: 80000006 cycles: 63157524 heartbeat IPC: 0.8576 cumulative IPC: 0.8677 (Simulation time: 00 hr 14 min 01 sec)
Heartbeat CPU 0 instructions: 90000011 cycles: 82411087 heartbeat IPC: 0.5194 cumulative IPC: 0.7804 (Simulation time: 00 hr 18 min 44 sec)
Heartbeat CPU 0 instructions: 100000006 cycles: 106470467 heartbeat IPC: 0.4156 cumulative IPC: 0.6935 (Simulation time: 00 hr 24 min 06 sec)
*** Reached end of trace: (0, "../traces/secret_traces/compute_fp/compute_fp_95.champsimtrace.xz")
Heartbeat CPU 0 instructions: 110000005 cycles: 115379507 heartbeat IPC: 1.122 cumulative IPC: 0.7283 (Simulation time: 00 hr 26 min 11 sec)
Heartbeat CPU 0 instructions: 120000003 cycles: 125334375 heartbeat IPC: 1.005 cumulative IPC: 0.7512 (Simulation time: 00 hr 28 min 46 sec)
Heartbeat CPU 0 instructions: 130000002 cycles: 144649676 heartbeat IPC: 0.5177 cumulative IPC: 0.7188 (Simulation time: 00 hr 31 min 54 sec)
Simulation finished CPU 0 instructions: 100000002 cycles: 139117328 cumulative IPC: 0.7188 (Simulation time: 00 hr 31 min 54 sec)
Simulation complete CPU 0 instructions: 100000002 cycles: 139117328 cumulative IPC: 0.7188 (Simulation time: 00 hr 31 min 54 sec)

ChampSim completed all CPUs

=== Simulation ===
CPU 0 runs ../traces/secret_traces/compute_fp/compute_fp_95.champsimtrace.xz
Region of Interest Statistics

CPU 0 cumulative IPC: 0.7188 instructions: 100000002 cycles: 139117328
CPU 0 Branch Prediction Accuracy: 99.08% MPKI: 0.1323 Average ROB Occupancy at Mispredict: 28
Branch type MPKI
BRANCH_DIRECT_JUMP: 0.0072
BRANCH_INDIRECT: 0.0658
BRANCH_CONDITIONAL: 0.0259
BRANCH_DIRECT_CALL: 0.0201
BRANCH_INDIRECT_CALL: 0.0022
BRANCH_RETURN: 0.0112

LLC TOTAL        ACCESS:    6083932 HIT:     133083 MISS:    5950849
LLC LOAD         ACCESS:    1812121 HIT:      17852 MISS:    1794269
LLC RFO          ACCESS:     839870 HIT:      30124 MISS:     809746
LLC PREFETCH     ACCESS:    1978413 HIT:      24031 MISS:    1954382
LLC WRITE        ACCESS:    1446332 HIT:      60981 MISS:    1385351
LLC TRANSLATION  ACCESS:       7196 HIT:         95 MISS:       7101
LLC PREFETCH REQUESTED:          0 ISSUED:          0 USEFUL:          0 USELESS:          0
LLC AVERAGE MISS LATENCY: 365.5 cycles
cpu0_DTLB TOTAL        ACCESS:   14943207 HIT:   13575410 MISS:    1367797
cpu0_DTLB LOAD         ACCESS:   14943207 HIT:   13575410 MISS:    1367797
cpu0_DTLB RFO          ACCESS:          0 HIT:          0 MISS:          0
cpu0_DTLB PREFETCH     ACCESS:          0 HIT:          0 MISS:          0
cpu0_DTLB WRITE        ACCESS:          0 HIT:          0 MISS:          0
cpu0_DTLB TRANSLATION  ACCESS:          0 HIT:          0 MISS:          0
cpu0_DTLB PREFETCH REQUESTED:          0 ISSUED:          0 USEFUL:          0 USELESS:          0
cpu0_DTLB AVERAGE MISS LATENCY: 9.307 cycles
cpu0_ITLB TOTAL        ACCESS:     116185 HIT:     114697 MISS:       1488
cpu0_ITLB LOAD         ACCESS:     116185 HIT:     114697 MISS:       1488
cpu0_ITLB RFO          ACCESS:          0 HIT:          0 MISS:          0
cpu0_ITLB PREFETCH     ACCESS:          0 HIT:          0 MISS:          0
cpu0_ITLB WRITE        ACCESS:          0 HIT:          0 MISS:          0
cpu0_ITLB TRANSLATION  ACCESS:          0 HIT:          0 MISS:          0
cpu0_ITLB PREFETCH REQUESTED:          0 ISSUED:          0 USEFUL:          0 USELESS:          0
cpu0_ITLB AVERAGE MISS LATENCY: 65.52 cycles
cpu0_L1D TOTAL        ACCESS:   25274399 HIT:   10393775 MISS:   14880624
cpu0_L1D LOAD         ACCESS:   14470980 HIT:    3131815 MISS:   11339165
cpu0_L1D RFO          ACCESS:          0 HIT:          0 MISS:          0
cpu0_L1D PREFETCH     ACCESS:    2186336 HIT:     793374 MISS:    1392962
cpu0_L1D WRITE        ACCESS:    8338545 HIT:    6216140 MISS:    2122405
cpu0_L1D TRANSLATION  ACCESS:     278538 HIT:     252446 MISS:      26092
cpu0_L1D PREFETCH REQUESTED:   42131117 ISSUED:    2186327 USEFUL:     257723 USELESS:       8184
cpu0_L1D AVERAGE MISS LATENCY: 89.53 cycles
cpu0_L1I TOTAL        ACCESS:     168434 HIT:     133646 MISS:      34788
cpu0_L1I LOAD         ACCESS:      58919 HIT:      48470 MISS:      10449
cpu0_L1I RFO          ACCESS:          0 HIT:          0 MISS:          0
cpu0_L1I PREFETCH     ACCESS:     109515 HIT:      85176 MISS:      24339
cpu0_L1I WRITE        ACCESS:          0 HIT:          0 MISS:          0
cpu0_L1I TRANSLATION  ACCESS:          0 HIT:          0 MISS:          0
cpu0_L1I PREFETCH REQUESTED:     165744 ISSUED:     109515 USEFUL:      13344 USELESS:       8932
cpu0_L1I AVERAGE MISS LATENCY: 88.27 cycles
cpu0_L2C TOTAL        ACCESS:    9915670 HIT:    2693788 MISS:    7221882
cpu0_L2C LOAD         ACCESS:    2672963 HIT:     299156 MISS:    2373807
cpu0_L2C RFO          ACCESS:     844086 HIT:       4205 MISS:     839881
cpu0_L2C PREFETCH     ACCESS:    4922678 HIT:     929352 MISS:    3993326
cpu0_L2C WRITE        ACCESS:    1450135 HIT:    1442463 MISS:       7672
cpu0_L2C TRANSLATION  ACCESS:      25808 HIT:      18612 MISS:       7196
cpu0_L2C PREFETCH REQUESTED:    3930916 ISSUED:    3801433 USEFUL:     681634 USELESS:     841957
cpu0_L2C AVERAGE MISS LATENCY: 302.2 cycles
cpu0_STLB TOTAL        ACCESS:     279775 HIT:       2023 MISS:     277752
cpu0_STLB LOAD         ACCESS:     279775 HIT:       2023 MISS:     277752
cpu0_STLB RFO          ACCESS:          0 HIT:          0 MISS:          0
cpu0_STLB PREFETCH     ACCESS:          0 HIT:          0 MISS:          0
cpu0_STLB WRITE        ACCESS:          0 HIT:          0 MISS:          0
cpu0_STLB TRANSLATION  ACCESS:          0 HIT:          0 MISS:          0
cpu0_STLB PREFETCH REQUESTED:          0 ISSUED:          0 USEFUL:          0 USELESS:          0
cpu0_STLB AVERAGE MISS LATENCY: 59.86 cycles

DRAM Statistics

Channel 0 RQ ROW_BUFFER_HIT:     711590
  ROW_BUFFER_MISS:    1567984
 AVG DBUS CONGESTED CYCLE: 3.925
WQ ROW_BUFFER_HIT: Channel 0 
  ROW_BUFFER_MISS:     121619
  FULL:     570105

Channel 1 RQ ROW_BUFFER_HIT:     797214
  ROW_BUFFER_MISS:    1488700
 AVG DBUS CONGESTED CYCLE: 3.96
WQ ROW_BUFFER_HIT: Channel 1 
  ROW_BUFFER_MISS:     113358
  FULL:     582306
BERTI TO_L1: 3548482 TO_L2: 41914913 TO_L2_BC_MSHR: 26228606
BERTI AVG_LAT: 362.078 NUM_TRACK_LATENCY: 3622877 NUM_CANT_TRACK_LATENCY: 28
BERTI CROSS_PAGE 29800152 NO_CROSS_PAGE: 15663243
BERTI FOUND_BERTI: 25220019 NO_FOUND_BERTI: 16913436
BERTI AVERAGE_ISSUED: 3.9921
CPU 0 L1I Entangling prefetcher final stats
IP accesses: 4242 109080 814 / 67291
IP misses: 4242 109080 805 / 18821
IP hits: 0 0 0 / 0
IP late: 4232 108c80 13 / 5412
IP wrong: 41fe 107f80 22 / 8880
miss rate: 0.279696
coverage: 0
coverage_late: 0.287552
accuracy: 0
accuracy_late: 0.378674
discarded: 0
evicts entangled j table: 0
evicts entangled k table: 1563
max bb size: 37
formats: 456 0 1249 693 290 684 0 
hist_lookups: 1105 1186 920 829 768 649 517 438 355 264 174 119 81 28 19 0 21 3681 
hist_lookups_evict: 0.188274 %
hist_lookups_shortlat: 33.0017 %
bb_found_hist: 0 14076 6411 2785 1026 687 228 76 50 11 12 29 12 0 3 2 22 0 8 0 7 0 0 0 5 2 0 0 0 0 0 0 0 0 0 0 0 1 0 0 0 0 0 0 0 0 0 0 0 0 0 0 0 0 0 0 0 0 0 0 0 0 0 0 
bb_found_summary: 46689 25453 1.83433
entangled_found_hist: 0 8106 4894 9423 1860 378 93 0 
entangled_found_summary: 56051 24754 2.26433
bb_ent_found_hist: 0 18973 9473 5347 2021 1719 711 193 94 5 18 163 0 0 0 0 0 0 3 0 0 0 0 0 0 1 0 0 0 0 0 0 0 0 0 0 0 0 0 0 0 0 0 0 0 0 0 0 0 0 0 0 0 0 0 0 0 0 0 0 0 0 0 0 
bb_ent_found_summary: 79105 38721 2.04295
