WARNING: physical memory size is smaller than virtual memory size.

*** ChampSim Multicore Out-of-Order Simulator ***
Warmup Instructions: 30000000
Simulation Instructions: 100000000
Number of CPUs: 1
Page size: 4096

BTB:
Basic BTB sets: 1024 ways: 8
Indirect:
history lengths: 0 0 10 16 27 44 60 96 109 219 449 487 714 1313 2146 3881 
ITTAGE tables: 64768 bytes;Region table: 240 bytes;IUM: 384 bytes;Total Storage= 65392 bytes;
RAS:
RAS size: 64
[LLC] Demand IPV: 1 2 2 1 4 Prefetch IPV: 1 2 1 1 4
Berti Prefetcher
CPU 0 Entangling prefetcher
Off-chip DRAM Size: 8 GiB Channels: 2 Width: 64-bit Data Race: 6400 MT/s
Heartbeat CPU 0 instructions: 10000010 cycles: 1666782 heartbeat IPC: 6 cumulative IPC: 6 (Simulation time: 00 hr 00 min 38 sec)
Heartbeat CPU 0 instructions: 20000006 cycles: 3333449 heartbeat IPC: 6 cumulative IPC: 6 (Simulation time: 00 hr 01 min 21 sec)
Heartbeat CPU 0 instructions: 30000003 cycles: 5000115 heartbeat IPC: 6 cumulative IPC: 6 (Simulation time: 00 hr 02 min 03 sec)
Warmup finished CPU 0 instructions: 30000003 cycles: 5000116 cumulative IPC: 6 (Simulation time: 00 hr 02 min 03 sec)
Warmup complete CPU 0 instructions: 30000003 cycles: 5000116 cumulative IPC: 6 (Simulation time: 00 hr 02 min 03 sec)
Heartbeat CPU 0 instructions: 40000000 cycles: 6666952 heartbeat IPC: 5.999 cumulative IPC: 5.999 (Simulation time: 00 hr 02 min 47 sec)
Heartbeat CPU 0 instructions: 50000011 cycles: 8333781 heartbeat IPC: 5.999 cumulative IPC: 5.999 (Simulation time: 00 hr 03 min 31 sec)
Heartbeat CPU 0 instructions: 60000011 cycles: 10000527 heartbeat IPC: 6 cumulative IPC: 6 (Simulation time: 00 hr 04 min 14 sec)
Heartbeat CPU 0 instructions: 70000001 cycles: 11667307 heartbeat IPC: 6 cumulative IPC: 6 (Simulation time: 00 hr 04 min 58 sec)
Heartbeat CPU 0 instructions: 80000000 cycles: 13334149 heartbeat IPC: 5.999 cumulative IPC: 5.999 (Simulation time: 00 hr 05 min 42 sec)
Heartbeat CPU 0 instructions: 90000003 cycles: 15000939 heartbeat IPC: 6 cumulative IPC: 6 (Simulation time: 00 hr 06 min 25 sec)
Heartbeat CPU 0 instructions: 100000004 cycles: 16667766 heartbeat IPC: 5.999 cumulative IPC: 5.999 (Simulation time: 00 hr 07 min 10 sec)
*** Reached end of trace: (0, "../traces/secret_traces/compute_fp/compute_fp_88.champsimtrace.xz")
Heartbeat CPU 0 instructions: 110000003 cycles: 18334543 heartbeat IPC: 6 cumulative IPC: 6 (Simulation time: 00 hr 07 min 58 sec)
Heartbeat CPU 0 instructions: 120000002 cycles: 20001277 heartbeat IPC: 6 cumulative IPC: 6 (Simulation time: 00 hr 08 min 54 sec)
Heartbeat CPU 0 instructions: 130000008 cycles: 21668068 heartbeat IPC: 6 cumulative IPC: 6 (Simulation time: 00 hr 09 min 47 sec)
Simulation finished CPU 0 instructions: 100000005 cycles: 16667953 cumulative IPC: 6 (Simulation time: 00 hr 09 min 47 sec)
Simulation complete CPU 0 instructions: 100000005 cycles: 16667953 cumulative IPC: 6 (Simulation time: 00 hr 09 min 47 sec)

ChampSim completed all CPUs

=== Simulation ===
CPU 0 runs ../traces/secret_traces/compute_fp/compute_fp_88.champsimtrace.xz
Region of Interest Statistics

CPU 0 cumulative IPC: 6 instructions: 100000005 cycles: 16667953
CPU 0 Branch Prediction Accuracy: 100% MPKI: 0.00086 Average ROB Occupancy at Mispredict: 78.23
Branch type MPKI
BRANCH_DIRECT_JUMP: 1e-05
BRANCH_INDIRECT: 0
BRANCH_CONDITIONAL: 0.00085
BRANCH_DIRECT_CALL: 0
BRANCH_INDIRECT_CALL: 0
BRANCH_RETURN: 0

LLC TOTAL        ACCESS:          3 HIT:          0 MISS:          3
LLC LOAD         ACCESS:          0 HIT:          0 MISS:          0
LLC RFO          ACCESS:          0 HIT:          0 MISS:          0
LLC PREFETCH     ACCESS:          3 HIT:          0 MISS:          3
LLC WRITE        ACCESS:          0 HIT:          0 MISS:          0
LLC TRANSLATION  ACCESS:          0 HIT:          0 MISS:          0
LLC PREFETCH REQUESTED:          0 ISSUED:          0 USEFUL:          0 USELESS:          0
LLC AVERAGE MISS LATENCY: 157.7 cycles
cpu0_DTLB TOTAL        ACCESS:   16651899 HIT:   16633336 MISS:      18563
cpu0_DTLB LOAD         ACCESS:   16651899 HIT:   16633336 MISS:      18563
cpu0_DTLB RFO          ACCESS:          0 HIT:          0 MISS:          0
cpu0_DTLB PREFETCH     ACCESS:          0 HIT:          0 MISS:          0
cpu0_DTLB WRITE        ACCESS:          0 HIT:          0 MISS:          0
cpu0_DTLB TRANSLATION  ACCESS:          0 HIT:          0 MISS:          0
cpu0_DTLB PREFETCH REQUESTED:          0 ISSUED:          0 USEFUL:          0 USELESS:          0
cpu0_DTLB AVERAGE MISS LATENCY: 6.38 cycles
cpu0_ITLB TOTAL        ACCESS:       5857 HIT:       5857 MISS:          0
cpu0_ITLB LOAD         ACCESS:       5857 HIT:       5857 MISS:          0
cpu0_ITLB RFO          ACCESS:          0 HIT:          0 MISS:          0
cpu0_ITLB PREFETCH     ACCESS:          0 HIT:          0 MISS:          0
cpu0_ITLB WRITE        ACCESS:          0 HIT:          0 MISS:          0
cpu0_ITLB TRANSLATION  ACCESS:          0 HIT:          0 MISS:          0
cpu0_ITLB PREFETCH REQUESTED:          0 ISSUED:          0 USEFUL:          0 USELESS:          0
cpu0_ITLB AVERAGE MISS LATENCY: -nan cycles
cpu0_L1D TOTAL        ACCESS:   30777102 HIT:   27499484 MISS:    3277618
cpu0_L1D LOAD         ACCESS:   16811165 HIT:   16665023 MISS:     146142
cpu0_L1D RFO          ACCESS:          0 HIT:          0 MISS:          0
cpu0_L1D PREFETCH     ACCESS:   12323347 HIT:    9518937 MISS:    2804410
cpu0_L1D WRITE        ACCESS:    1642590 HIT:    1315524 MISS:     327066
cpu0_L1D TRANSLATION  ACCESS:          0 HIT:          0 MISS:          0
cpu0_L1D PREFETCH REQUESTED:   99747191 ISSUED:   12323355 USEFUL:     768300 USELESS:        571
cpu0_L1D AVERAGE MISS LATENCY: 2.847 cycles
cpu0_L1I TOTAL        ACCESS:       8619 HIT:       8510 MISS:        109
cpu0_L1I LOAD         ACCESS:       4842 HIT:       4755 MISS:         87
cpu0_L1I RFO          ACCESS:          0 HIT:          0 MISS:          0
cpu0_L1I PREFETCH     ACCESS:       3777 HIT:       3755 MISS:         22
cpu0_L1I WRITE        ACCESS:          0 HIT:          0 MISS:          0
cpu0_L1I TRANSLATION  ACCESS:          0 HIT:          0 MISS:          0
cpu0_L1I PREFETCH REQUESTED:       5642 ISSUED:       3777 USEFUL:          8 USELESS:          0
cpu0_L1I AVERAGE MISS LATENCY: 5.037 cycles
cpu0_L2C TOTAL        ACCESS:    6025676 HIT:    6025673 MISS:          3
cpu0_L2C LOAD         ACCESS:      52374 HIT:      52374 MISS:          0
cpu0_L2C RFO          ACCESS:     204991 HIT:     204991 MISS:          0
cpu0_L2C PREFETCH     ACCESS:    5562755 HIT:    5562752 MISS:          3
cpu0_L2C WRITE        ACCESS:     205556 HIT:     205556 MISS:          0
cpu0_L2C TRANSLATION  ACCESS:          0 HIT:          0 MISS:          0
cpu0_L2C PREFETCH REQUESTED:    2823830 ISSUED:    2791300 USEFUL:          3 USELESS:          0
cpu0_L2C AVERAGE MISS LATENCY: 178.7 cycles
cpu0_STLB TOTAL        ACCESS:      16355 HIT:      16355 MISS:          0
cpu0_STLB LOAD         ACCESS:      16355 HIT:      16355 MISS:          0
cpu0_STLB RFO          ACCESS:          0 HIT:          0 MISS:          0
cpu0_STLB PREFETCH     ACCESS:          0 HIT:          0 MISS:          0
cpu0_STLB WRITE        ACCESS:          0 HIT:          0 MISS:          0
cpu0_STLB TRANSLATION  ACCESS:          0 HIT:          0 MISS:          0
cpu0_STLB PREFETCH REQUESTED:          0 ISSUED:          0 USEFUL:          0 USELESS:          0
cpu0_STLB AVERAGE MISS LATENCY: -nan cycles

DRAM Statistics

Channel 0 RQ ROW_BUFFER_HIT:          0
  ROW_BUFFER_MISS:          2
 AVG DBUS CONGESTED CYCLE: -
WQ ROW_BUFFER_HIT: Channel 0 
  ROW_BUFFER_MISS:          0
  FULL:          0

Channel 1 RQ ROW_BUFFER_HIT:          0
  ROW_BUFFER_MISS:          1
 AVG DBUS CONGESTED CYCLE: -
WQ ROW_BUFFER_HIT: Channel 1 
  ROW_BUFFER_MISS:          0
  FULL:          0
BERTI TO_L1: 77516753 TO_L2: 45193443 TO_L2_BC_MSHR: 829
BERTI AVG_LAT: 49.9037 NUM_TRACK_LATENCY: 1066854 NUM_CANT_TRACK_LATENCY: 0
BERTI CROSS_PAGE 16639603 NO_CROSS_PAGE: 106070593
BERTI FOUND_BERTI: 12099124 NO_FOUND_BERTI: 9814281
BERTI AVERAGE_ISSUED: 2.63195
CPU 0 L1I Entangling prefetcher final stats
IP accesses: 3b34 ecd00 57 / 4842
IP misses: 4374 10dd00 27 / 87
IP hits: 0 0 0 / 0
IP late: 2134 84d00 9 / 46
IP wrong: 0 0 0 / 0
miss rate: 0.0179678
coverage: 0
coverage_late: 0.528736
accuracy: 0
accuracy_late: 1
discarded: 0
evicts entangled j table: 0
evicts entangled k table: 0
max bb size: 15
formats: 0 0 1 1 1 2 0 
hist_lookups: 0 0 0 9 8 0 6 3 1 0 0 0 0 0 0 0 0 171 
hist_lookups_evict: 0 %
hist_lookups_shortlat: 86.3637 %
bb_found_hist: 0 933 420 187 27 17 18 0 0 0 0 0 0 0 0 9 0 0 0 0 0 0 0 0 0 0 0 0 0 0 0 0 0 0 0 0 0 0 0 0 0 0 0 0 0 0 0 0 0 0 0 0 0 0 0 0 0 0 0 0 0 0 0 0 
bb_found_summary: 2770 1611 1.71943
entangled_found_hist: 0 358 158 185 27 0 0 0 
entangled_found_summary: 1337 728 1.83654
bb_ent_found_hist: 0 508 251 75 18 9 18 0 0 0 0 0 0 0 0 9 0 0 0 0 0 0 0 0 0 0 0 0 0 0 0 0 0 0 0 0 0 0 0 0 0 0 0 0 0 0 0 0 0 0 0 0 0 0 0 0 0 0 0 0 0 0 0 0 
bb_ent_found_summary: 1595 888 1.79618
