WARNING: physical memory size is smaller than virtual memory size.

*** ChampSim Multicore Out-of-Order Simulator ***
Warmup Instructions: 30000000
Simulation Instructions: 100000000
Number of CPUs: 1
Page size: 4096

BTB:
Basic BTB sets: 1024 ways: 8
Indirect:
history lengths: 0 0 10 16 27 44 60 96 109 219 449 487 714 1313 2146 3881 
ITTAGE tables: 64768 bytes;Region table: 240 bytes;IUM: 384 bytes;Total Storage= 65392 bytes;
RAS:
RAS size: 64
[LLC] Demand IPV: 1 2 2 1 4 Prefetch IPV: 1 2 1 1 4
Berti Prefetcher
CPU 0 Entangling prefetcher
Off-chip DRAM Size: 8 GiB Channels: 2 Width: 64-bit Data Race: 6400 MT/s
Heartbeat CPU 0 instructions: 10000009 cycles: 1716484 heartbeat IPC: 5.826 cumulative IPC: 5.826 (Simulation time: 00 hr 00 min 41 sec)
Heartbeat CPU 0 instructions: 20000000 cycles: 3383758 heartbeat IPC: 5.998 cumulative IPC: 5.911 (Simulation time: 00 hr 01 min 21 sec)
Heartbeat CPU 0 instructions: 30000002 cycles: 5050554 heartbeat IPC: 6 cumulative IPC: 5.94 (Simulation time: 00 hr 02 min 02 sec)
Warmup finished CPU 0 instructions: 30000002 cycles: 5050555 cumulative IPC: 5.94 (Simulation time: 00 hr 02 min 02 sec)
Warmup complete CPU 0 instructions: 30000002 cycles: 5050555 cumulative IPC: 5.94 (Simulation time: 00 hr 02 min 02 sec)
Heartbeat CPU 0 instructions: 40000001 cycles: 7573367 heartbeat IPC: 3.964 cumulative IPC: 3.964 (Simulation time: 00 hr 02 min 58 sec)
Heartbeat CPU 0 instructions: 50000002 cycles: 10084154 heartbeat IPC: 3.983 cumulative IPC: 3.973 (Simulation time: 00 hr 03 min 54 sec)
Heartbeat CPU 0 instructions: 60000002 cycles: 12602683 heartbeat IPC: 3.971 cumulative IPC: 3.972 (Simulation time: 00 hr 04 min 51 sec)
Heartbeat CPU 0 instructions: 70000002 cycles: 15149948 heartbeat IPC: 3.926 cumulative IPC: 3.961 (Simulation time: 00 hr 05 min 48 sec)
Heartbeat CPU 0 instructions: 80000000 cycles: 17694461 heartbeat IPC: 3.93 cumulative IPC: 3.954 (Simulation time: 00 hr 06 min 47 sec)
Heartbeat CPU 0 instructions: 90000000 cycles: 20196464 heartbeat IPC: 3.997 cumulative IPC: 3.961 (Simulation time: 00 hr 07 min 43 sec)
Heartbeat CPU 0 instructions: 100000003 cycles: 22693913 heartbeat IPC: 4.004 cumulative IPC: 3.967 (Simulation time: 00 hr 08 min 42 sec)
*** Reached end of trace: (0, "../traces/secret_traces/compute_fp/compute_fp_113.champsimtrace.xz")
Heartbeat CPU 0 instructions: 110000000 cycles: 25667025 heartbeat IPC: 3.363 cumulative IPC: 3.88 (Simulation time: 00 hr 09 min 42 sec)
Heartbeat CPU 0 instructions: 120000002 cycles: 28239366 heartbeat IPC: 3.888 cumulative IPC: 3.881 (Simulation time: 00 hr 10 min 40 sec)
Heartbeat CPU 0 instructions: 130000001 cycles: 30785411 heartbeat IPC: 3.928 cumulative IPC: 3.886 (Simulation time: 00 hr 11 min 37 sec)
Simulation finished CPU 0 instructions: 100000003 cycles: 25734858 cumulative IPC: 3.886 (Simulation time: 00 hr 11 min 37 sec)
Simulation complete CPU 0 instructions: 100000003 cycles: 25734858 cumulative IPC: 3.886 (Simulation time: 00 hr 11 min 37 sec)

ChampSim completed all CPUs

=== Simulation ===
CPU 0 runs ../traces/secret_traces/compute_fp/compute_fp_113.champsimtrace.xz
Region of Interest Statistics

CPU 0 cumulative IPC: 3.886 instructions: 100000003 cycles: 25734858
CPU 0 Branch Prediction Accuracy: 99.93% MPKI: 0.1708 Average ROB Occupancy at Mispredict: 69.44
Branch type MPKI
BRANCH_DIRECT_JUMP: 0.00735
BRANCH_INDIRECT: 0.0679
BRANCH_CONDITIONAL: 0.0608
BRANCH_DIRECT_CALL: 0.021
BRANCH_INDIRECT_CALL: 0.00233
BRANCH_RETURN: 0.0114

LLC TOTAL        ACCESS:      96196 HIT:      72465 MISS:      23731
LLC LOAD         ACCESS:      15717 HIT:       7689 MISS:       8028
LLC RFO          ACCESS:      25659 HIT:      23970 MISS:       1689
LLC PREFETCH     ACCESS:      23155 HIT:      11864 MISS:      11291
LLC WRITE        ACCESS:      31182 HIT:      28860 MISS:       2322
LLC TRANSLATION  ACCESS:        483 HIT:         82 MISS:        401
LLC PREFETCH REQUESTED:          0 ISSUED:          0 USEFUL:          0 USELESS:          0
LLC AVERAGE MISS LATENCY: 127.8 cycles
cpu0_DTLB TOTAL        ACCESS:   24492733 HIT:   24261665 MISS:     231068
cpu0_DTLB LOAD         ACCESS:   24492733 HIT:   24261665 MISS:     231068
cpu0_DTLB RFO          ACCESS:          0 HIT:          0 MISS:          0
cpu0_DTLB PREFETCH     ACCESS:          0 HIT:          0 MISS:          0
cpu0_DTLB WRITE        ACCESS:          0 HIT:          0 MISS:          0
cpu0_DTLB TRANSLATION  ACCESS:          0 HIT:          0 MISS:          0
cpu0_DTLB PREFETCH REQUESTED:          0 ISSUED:          0 USEFUL:          0 USELESS:          0
cpu0_DTLB AVERAGE MISS LATENCY: 1.783 cycles
cpu0_ITLB TOTAL        ACCESS:     118300 HIT:     116862 MISS:       1438
cpu0_ITLB LOAD         ACCESS:     118300 HIT:     116862 MISS:       1438
cpu0_ITLB RFO          ACCESS:          0 HIT:          0 MISS:          0
cpu0_ITLB PREFETCH     ACCESS:          0 HIT:          0 MISS:          0
cpu0_ITLB WRITE        ACCESS:          0 HIT:          0 MISS:          0
cpu0_ITLB TRANSLATION  ACCESS:          0 HIT:          0 MISS:          0
cpu0_ITLB PREFETCH REQUESTED:          0 ISSUED:          0 USEFUL:          0 USELESS:          0
cpu0_ITLB AVERAGE MISS LATENCY: 15.95 cycles
cpu0_L1D TOTAL        ACCESS:   56083251 HIT:   49364213 MISS:    6719038
cpu0_L1D LOAD         ACCESS:   12647146 HIT:   12459610 MISS:     187536
cpu0_L1D RFO          ACCESS:          0 HIT:          0 MISS:          0
cpu0_L1D PREFETCH     ACCESS:   43204440 HIT:   36756117 MISS:    6448323
cpu0_L1D WRITE        ACCESS:     230982 HIT:     148380 MISS:      82602
cpu0_L1D TRANSLATION  ACCESS:        683 HIT:        106 MISS:        577
cpu0_L1D PREFETCH REQUESTED:   56524560 ISSUED:   43204420 USEFUL:    6083263 USELESS:      18816
cpu0_L1D AVERAGE MISS LATENCY: 9.922 cycles
cpu0_L1I TOTAL        ACCESS:     171844 HIT:     136705 MISS:      35139
cpu0_L1I LOAD         ACCESS:      61829 HIT:      50203 MISS:      11626
cpu0_L1I RFO          ACCESS:          0 HIT:          0 MISS:          0
cpu0_L1I PREFETCH     ACCESS:     110015 HIT:      86502 MISS:      23513
cpu0_L1I WRITE        ACCESS:          0 HIT:          0 MISS:          0
cpu0_L1I TRANSLATION  ACCESS:          0 HIT:          0 MISS:          0
cpu0_L1I PREFETCH REQUESTED:     177750 ISSUED:     110015 USEFUL:      13047 USELESS:       8851
cpu0_L1I AVERAGE MISS LATENCY: 22.76 cycles
cpu0_L2C TOTAL        ACCESS:   12691550 HIT:   12599706 MISS:      91844
cpu0_L2C LOAD         ACCESS:      88163 HIT:      69335 MISS:      18828
cpu0_L2C RFO          ACCESS:      33371 HIT:       7662 MISS:      25709
cpu0_L2C PREFETCH     ACCESS:   12523362 HIT:   12476538 MISS:      46824
cpu0_L2C WRITE        ACCESS:      46087 HIT:      46087 MISS:          0
cpu0_L2C TRANSLATION  ACCESS:        567 HIT:         84 MISS:        483
cpu0_L2C PREFETCH REQUESTED:    6379747 ISSUED:    6231765 USEFUL:       5385 USELESS:       4236
cpu0_L2C AVERAGE MISS LATENCY: 46.23 cycles
cpu0_STLB TOTAL        ACCESS:      99094 HIT:      98544 MISS:        550
cpu0_STLB LOAD         ACCESS:      99094 HIT:      98544 MISS:        550
cpu0_STLB RFO          ACCESS:          0 HIT:          0 MISS:          0
cpu0_STLB PREFETCH     ACCESS:          0 HIT:          0 MISS:          0
cpu0_STLB WRITE        ACCESS:          0 HIT:          0 MISS:          0
cpu0_STLB TRANSLATION  ACCESS:          0 HIT:          0 MISS:          0
cpu0_STLB PREFETCH REQUESTED:          0 ISSUED:          0 USEFUL:          0 USELESS:          0
cpu0_STLB AVERAGE MISS LATENCY: 229.6 cycles

DRAM Statistics

Channel 0 RQ ROW_BUFFER_HIT:       6757
  ROW_BUFFER_MISS:       4567
 AVG DBUS CONGESTED CYCLE: 3.799
WQ ROW_BUFFER_HIT: Channel 0 
  ROW_BUFFER_MISS:        219
  FULL:        852

Channel 1 RQ ROW_BUFFER_HIT:       5953
  ROW_BUFFER_MISS:       4130
 AVG DBUS CONGESTED CYCLE: 3.766
WQ ROW_BUFFER_HIT: Channel 1 
  ROW_BUFFER_MISS:        175
  FULL:        636
BERTI TO_L1: 65946010 TO_L2: 12951724 TO_L2_BC_MSHR: 300908
BERTI AVG_LAT: 27.7594 NUM_TRACK_LATENCY: 8025210 NUM_CANT_TRACK_LATENCY: 0
BERTI CROSS_PAGE 11034590 NO_CROSS_PAGE: 67863144
BERTI FOUND_BERTI: 16175426 NO_FOUND_BERTI: 374366
BERTI AVERAGE_ISSUED: 3.62586
CPU 0 L1I Entangling prefetcher final stats
IP accesses: 5aeb 16bac0 256 / 62627
IP misses: 5ef2 17bc80 99 / 12424
IP hits: 0 0 0 / 0
IP late: 38ea e3a80 13 / 5580
IP wrong: 2172 85c80 24 / 8799
miss rate: 0.198381
coverage: 0
coverage_late: 0.449131
accuracy: 0
accuracy_late: 0.388066
discarded: 0
evicts entangled j table: 0
evicts entangled k table: 1803
max bb size: 49
formats: 449 0 1546 770 317 741 0 
hist_lookups: 1209 1427 1164 1024 962 815 639 520 386 298 208 132 74 32 12 0 0 2677 
hist_lookups_evict: 0 %
hist_lookups_shortlat: 23.1195 %
bb_found_hist: 0 14899 6269 2780 1122 696 236 69 118 20 11 6 10 0 3 3 18 0 0 0 0 33 0 0 0 0 0 0 0 0 0 0 0 0 0 0 0 0 0 0 0 0 0 0 0 0 0 0 0 2 0 0 0 0 0 0 0 0 0 0 0 0 0 0 
bb_found_summary: 48230 26295 1.83419
entangled_found_hist: 0 8372 5105 10722 1851 543 50 0 
entangled_found_summary: 61167 26643 2.29581
bb_ent_found_hist: 0 20321 10179 5894 2362 1687 844 183 170 4 28 0 0 0 0 1 0 0 0 0 0 28 0 0 0 0 0 0 0 0 0 0 0 0 0 0 0 0 0 0 0 0 0 0 0 0 0 0 0 6 0 0 0 0 0 0 0 0 0 0 0 0 0 0 
bb_ent_found_summary: 85162 41707 2.04192
