WARNING: physical memory size is smaller than virtual memory size.

*** ChampSim Multicore Out-of-Order Simulator ***
Warmup Instructions: 30000000
Simulation Instructions: 100000000
Number of CPUs: 1
Page size: 4096

BTB:
Basic BTB sets: 1024 ways: 8
Indirect:
history lengths: 0 0 10 16 27 44 60 96 109 219 449 487 714 1313 2146 3881 
ITTAGE tables: 64768 bytes;Region table: 240 bytes;IUM: 384 bytes;Total Storage= 65392 bytes;
RAS:
RAS size: 64
[LLC] Demand IPV: 1 2 2 1 4 Prefetch IPV: 1 2 1 1 4
Berti Prefetcher
CPU 0 Entangling prefetcher
Off-chip DRAM Size: 8 GiB Channels: 2 Width: 64-bit Data Race: 6400 MT/s
Heartbeat CPU 0 instructions: 10000005 cycles: 1718534 heartbeat IPC: 5.819 cumulative IPC: 5.819 (Simulation time: 00 hr 00 min 53 sec)
Heartbeat CPU 0 instructions: 20000009 cycles: 3386958 heartbeat IPC: 5.994 cumulative IPC: 5.905 (Simulation time: 00 hr 01 min 49 sec)
Heartbeat CPU 0 instructions: 30000005 cycles: 5057671 heartbeat IPC: 5.985 cumulative IPC: 5.932 (Simulation time: 00 hr 02 min 30 sec)
Warmup finished CPU 0 instructions: 30000005 cycles: 5057672 cumulative IPC: 5.932 (Simulation time: 00 hr 02 min 30 sec)
Warmup complete CPU 0 instructions: 30000005 cycles: 5057672 cumulative IPC: 5.932 (Simulation time: 00 hr 02 min 30 sec)
Heartbeat CPU 0 instructions: 40000006 cycles: 10417412 heartbeat IPC: 1.866 cumulative IPC: 1.866 (Simulation time: 00 hr 04 min 07 sec)
Heartbeat CPU 0 instructions: 50000002 cycles: 15815756 heartbeat IPC: 1.852 cumulative IPC: 1.859 (Simulation time: 00 hr 05 min 42 sec)
Heartbeat CPU 0 instructions: 60000005 cycles: 26435619 heartbeat IPC: 0.9416 cumulative IPC: 1.403 (Simulation time: 00 hr 08 min 55 sec)
Heartbeat CPU 0 instructions: 70000010 cycles: 43641216 heartbeat IPC: 0.5812 cumulative IPC: 1.037 (Simulation time: 00 hr 13 min 34 sec)
Heartbeat CPU 0 instructions: 80000007 cycles: 66650064 heartbeat IPC: 0.4346 cumulative IPC: 0.8118 (Simulation time: 00 hr 19 min 22 sec)
Heartbeat CPU 0 instructions: 90000008 cycles: 91255074 heartbeat IPC: 0.4064 cumulative IPC: 0.6961 (Simulation time: 00 hr 26 min 33 sec)
Heartbeat CPU 0 instructions: 100000009 cycles: 102446540 heartbeat IPC: 0.8935 cumulative IPC: 0.7188 (Simulation time: 00 hr 29 min 20 sec)
*** Reached end of trace: (0, "../traces/secret_traces/compute_fp/compute_fp_128.champsimtrace.xz")
Heartbeat CPU 0 instructions: 110000008 cycles: 111921868 heartbeat IPC: 1.055 cumulative IPC: 0.7486 (Simulation time: 00 hr 31 min 45 sec)
Heartbeat CPU 0 instructions: 120000009 cycles: 133676198 heartbeat IPC: 0.4597 cumulative IPC: 0.6997 (Simulation time: 00 hr 38 min 30 sec)
Heartbeat CPU 0 instructions: 130000011 cycles: 138962421 heartbeat IPC: 1.892 cumulative IPC: 0.7468 (Simulation time: 00 hr 40 min 04 sec)
Simulation finished CPU 0 instructions: 100000006 cycles: 133904750 cumulative IPC: 0.7468 (Simulation time: 00 hr 40 min 04 sec)
Simulation complete CPU 0 instructions: 100000006 cycles: 133904750 cumulative IPC: 0.7468 (Simulation time: 00 hr 40 min 04 sec)

ChampSim completed all CPUs

=== Simulation ===
CPU 0 runs ../traces/secret_traces/compute_fp/compute_fp_128.champsimtrace.xz
Region of Interest Statistics

CPU 0 cumulative IPC: 0.7468 instructions: 100000006 cycles: 133904750
CPU 0 Branch Prediction Accuracy: 99.8% MPKI: 0.1452 Average ROB Occupancy at Mispredict: 45.51
Branch type MPKI
BRANCH_DIRECT_JUMP: 0.00754
BRANCH_INDIRECT: 0.0677
BRANCH_CONDITIONAL: 0.0345
BRANCH_DIRECT_CALL: 0.0216
BRANCH_INDIRECT_CALL: 0.00228
BRANCH_RETURN: 0.0115

LLC TOTAL        ACCESS:    5089849 HIT:     212588 MISS:    4877261
LLC LOAD         ACCESS:     740648 HIT:      30514 MISS:     710134
LLC RFO          ACCESS:     955906 HIT:      45080 MISS:     910826
LLC PREFETCH     ACCESS:    2170619 HIT:      65202 MISS:    2105417
LLC WRITE        ACCESS:    1214010 HIT:      71421 MISS:    1142589
LLC TRANSLATION  ACCESS:       8666 HIT:        371 MISS:       8295
LLC PREFETCH REQUESTED:          0 ISSUED:          0 USEFUL:          0 USELESS:          0
LLC AVERAGE MISS LATENCY: 483 cycles
cpu0_DTLB TOTAL        ACCESS:   17952851 HIT:   17361907 MISS:     590944
cpu0_DTLB LOAD         ACCESS:   17952851 HIT:   17361907 MISS:     590944
cpu0_DTLB RFO          ACCESS:          0 HIT:          0 MISS:          0
cpu0_DTLB PREFETCH     ACCESS:          0 HIT:          0 MISS:          0
cpu0_DTLB WRITE        ACCESS:          0 HIT:          0 MISS:          0
cpu0_DTLB TRANSLATION  ACCESS:          0 HIT:          0 MISS:          0
cpu0_DTLB PREFETCH REQUESTED:          0 ISSUED:          0 USEFUL:          0 USELESS:          0
cpu0_DTLB AVERAGE MISS LATENCY: 29.1 cycles
cpu0_ITLB TOTAL        ACCESS:    3309767 HIT:    3308190 MISS:       1577
cpu0_ITLB LOAD         ACCESS:    3309767 HIT:    3308190 MISS:       1577
cpu0_ITLB RFO          ACCESS:          0 HIT:          0 MISS:          0
cpu0_ITLB PREFETCH     ACCESS:          0 HIT:          0 MISS:          0
cpu0_ITLB WRITE        ACCESS:          0 HIT:          0 MISS:          0
cpu0_ITLB TRANSLATION  ACCESS:          0 HIT:          0 MISS:          0
cpu0_ITLB PREFETCH REQUESTED:          0 ISSUED:          0 USEFUL:          0 USELESS:          0
cpu0_ITLB AVERAGE MISS LATENCY: 66.38 cycles
cpu0_L1D TOTAL        ACCESS:   31232987 HIT:   16458965 MISS:   14774022
cpu0_L1D LOAD         ACCESS:   15204717 HIT:    8316736 MISS:    6887981
cpu0_L1D RFO          ACCESS:          0 HIT:          0 MISS:          0
cpu0_L1D PREFETCH     ACCESS:    3665020 HIT:    1673224 MISS:    1991796
cpu0_L1D WRITE        ACCESS:   12296193 HIT:    6453948 MISS:    5842245
cpu0_L1D TRANSLATION  ACCESS:      67057 HIT:      15057 MISS:      52000
cpu0_L1D PREFETCH REQUESTED:  297734177 ISSUED:    3664988 USEFUL:     388087 USELESS:      41221
cpu0_L1D AVERAGE MISS LATENCY: 103.6 cycles
cpu0_L1I TOTAL        ACCESS:    4937753 HIT:    4899073 MISS:      38680
cpu0_L1I LOAD         ACCESS:    2518247 HIT:    2506282 MISS:      11965
cpu0_L1I RFO          ACCESS:          0 HIT:          0 MISS:          0
cpu0_L1I PREFETCH     ACCESS:    2419506 HIT:    2392791 MISS:      26715
cpu0_L1I WRITE        ACCESS:          0 HIT:          0 MISS:          0
cpu0_L1I TRANSLATION  ACCESS:          0 HIT:          0 MISS:          0
cpu0_L1I PREFETCH REQUESTED:    8056051 ISSUED:    2419506 USEFUL:      15045 USELESS:       9643
cpu0_L1I AVERAGE MISS LATENCY: 109.2 cycles
cpu0_L2C TOTAL        ACCESS:   13565516 HIT:    6565749 MISS:    6999767
cpu0_L2C LOAD         ACCESS:    3792139 HIT:    1557120 MISS:    2235019
cpu0_L2C RFO          ACCESS:    1329321 HIT:     371508 MISS:     957813
cpu0_L2C PREFETCH     ACCESS:    6687187 HIT:    2889056 MISS:    3798131
cpu0_L2C WRITE        ACCESS:    1705150 HIT:    1705092 MISS:         58
cpu0_L2C TRANSLATION  ACCESS:      51719 HIT:      42973 MISS:       8746
cpu0_L2C PREFETCH REQUESTED:    5307974 ISSUED:    5228523 USEFUL:    1763647 USELESS:      86912
cpu0_L2C AVERAGE MISS LATENCY: 294.7 cycles
cpu0_STLB TOTAL        ACCESS:     286783 HIT:     220180 MISS:      66603
cpu0_STLB LOAD         ACCESS:     286783 HIT:     220180 MISS:      66603
cpu0_STLB RFO          ACCESS:          0 HIT:          0 MISS:          0
cpu0_STLB PREFETCH     ACCESS:          0 HIT:          0 MISS:          0
cpu0_STLB WRITE        ACCESS:          0 HIT:          0 MISS:          0
cpu0_STLB TRANSLATION  ACCESS:          0 HIT:          0 MISS:          0
cpu0_STLB PREFETCH REQUESTED:          0 ISSUED:          0 USEFUL:          0 USELESS:          0
cpu0_STLB AVERAGE MISS LATENCY: 347.2 cycles

DRAM Statistics

Channel 0 RQ ROW_BUFFER_HIT:     434666
  ROW_BUFFER_MISS:    1443162
 AVG DBUS CONGESTED CYCLE: 3.971
WQ ROW_BUFFER_HIT: Channel 0 
  ROW_BUFFER_MISS:      63956
  FULL:     514435

Channel 1 RQ ROW_BUFFER_HIT:     424659
  ROW_BUFFER_MISS:    1431920
 AVG DBUS CONGESTED CYCLE: 3.964
WQ ROW_BUFFER_HIT: Channel 1 
  ROW_BUFFER_MISS:      67813
  FULL:     509602
BERTI TO_L1: 24851391 TO_L2: 296625237 TO_L2_BC_MSHR: 208060876
BERTI AVG_LAT: 294.435 NUM_TRACK_LATENCY: 5753125 NUM_CANT_TRACK_LATENCY: 7105
BERTI CROSS_PAGE 39919375 NO_CROSS_PAGE: 281557253
BERTI FOUND_BERTI: 64784035 NO_FOUND_BERTI: 14455773
BERTI AVERAGE_ISSUED: 2.34005
CPU 0 L1I Entangling prefetcher final stats
IP accesses: 629 18a40 91449 / 2532192
IP misses: 44e8 113a00 703 / 25910
IP hits: 0 0 0 / 0
IP late: 216f 85bc0 13 / 5850
IP wrong: e8e9 3a3a40 25 / 9600
miss rate: 0.0102323
coverage: 0
coverage_late: 0.225782
accuracy: 0
accuracy_late: 0.378641
discarded: 0
evicts entangled j table: 0
evicts entangled k table: 1614
max bb size: 102
formats: 469 0 1294 726 299 701 0 
hist_lookups: 1129 1206 998 838 735 637 520 414 330 272 204 155 106 63 34 0 30 3923 
hist_lookups_evict: 0.258755 %
hist_lookups_shortlat: 33.8365 %
bb_found_hist: 0 76253 129861 16191 6348 32759 1156 27854 1829 3635 4081 2327 12 56683 19069 37433 20823 1543 1768 0 72095 1784 0 0 255 647 15 527 0 1782 0 0 0 0 0 0 0 0 1572 0 0 0 0 0 0 0 0 0 0 2 0 0 0 0 0 0 0 0 0 0 0 0 0 0 
bb_found_summary: 4473900 518304 8.63181
entangled_found_hist: 0 244485 19161 18000 7020 318 57 0 
entangled_found_summary: 366819 289041 1.26909
bb_ent_found_hist: 0 67553 29592 42674 2697 5968 2087 6025 147 3602 5286 10533 0 242 1828 0 5 400 66418 0 3369 60235 0 0 1542 647 15 0 0 2299 0 0 0 0 0 0 0 0 16 0 0 0 0 0 0 0 0 0 0 3 0 0 0 0 0 0 0 0 0 0 0 0 0 0 
bb_ent_found_summary: 3236857 313183 10.3354
