WARNING: physical memory size is smaller than virtual memory size.

*** ChampSim Multicore Out-of-Order Simulator ***
Warmup Instructions: 30000000
Simulation Instructions: 100000000
Number of CPUs: 1
Page size: 4096

BTB:
Basic BTB sets: 1024 ways: 8
Indirect:
history lengths: 0 0 10 16 27 44 60 96 109 219 449 487 714 1313 2146 3881 
ITTAGE tables: 64768 bytes;Region table: 240 bytes;IUM: 384 bytes;Total Storage= 65392 bytes;
RAS:
RAS size: 64
[LLC] Demand IPV: 1 2 2 1 4 Prefetch IPV: 1 2 1 1 4
Berti Prefetcher
CPU 0 Entangling prefetcher
Off-chip DRAM Size: 8 GiB Channels: 2 Width: 64-bit Data Race: 6400 MT/s
Heartbeat CPU 0 instructions: 10000005 cycles: 1761073 heartbeat IPC: 5.678 cumulative IPC: 5.678 (Simulation time: 00 hr 00 min 35 sec)
Heartbeat CPU 0 instructions: 20000001 cycles: 3456246 heartbeat IPC: 5.899 cumulative IPC: 5.787 (Simulation time: 00 hr 01 min 08 sec)
Heartbeat CPU 0 instructions: 30000004 cycles: 5129582 heartbeat IPC: 5.976 cumulative IPC: 5.848 (Simulation time: 00 hr 01 min 42 sec)
Warmup finished CPU 0 instructions: 30000004 cycles: 5129583 cumulative IPC: 5.848 (Simulation time: 00 hr 01 min 42 sec)
Warmup complete CPU 0 instructions: 30000004 cycles: 5129583 cumulative IPC: 5.848 (Simulation time: 00 hr 01 min 42 sec)
Heartbeat CPU 0 instructions: 40000006 cycles: 21241569 heartbeat IPC: 0.6207 cumulative IPC: 0.6207 (Simulation time: 00 hr 05 min 29 sec)
Heartbeat CPU 0 instructions: 50000001 cycles: 25112790 heartbeat IPC: 2.583 cumulative IPC: 1.001 (Simulation time: 00 hr 07 min 02 sec)
Heartbeat CPU 0 instructions: 60000002 cycles: 36811168 heartbeat IPC: 0.8548 cumulative IPC: 0.9469 (Simulation time: 00 hr 09 min 55 sec)
Heartbeat CPU 0 instructions: 70000009 cycles: 43499338 heartbeat IPC: 1.495 cumulative IPC: 1.042 (Simulation time: 00 hr 11 min 49 sec)
Heartbeat CPU 0 instructions: 80000004 cycles: 50190729 heartbeat IPC: 1.494 cumulative IPC: 1.11 (Simulation time: 00 hr 13 min 52 sec)
Heartbeat CPU 0 instructions: 90000008 cycles: 61698933 heartbeat IPC: 0.8689 cumulative IPC: 1.061 (Simulation time: 00 hr 16 min 57 sec)
Heartbeat CPU 0 instructions: 100000010 cycles: 65062310 heartbeat IPC: 2.973 cumulative IPC: 1.168 (Simulation time: 00 hr 18 min 14 sec)
*** Reached end of trace: (0, "../traces/secret_traces/compute_fp/compute_fp_28.champsimtrace.xz")
Heartbeat CPU 0 instructions: 110000000 cycles: 67629179 heartbeat IPC: 3.896 cumulative IPC: 1.28 (Simulation time: 00 hr 19 min 02 sec)
Heartbeat CPU 0 instructions: 120000003 cycles: 69444189 heartbeat IPC: 5.51 cumulative IPC: 1.399 (Simulation time: 00 hr 19 min 42 sec)
Heartbeat CPU 0 instructions: 130000001 cycles: 71211000 heartbeat IPC: 5.66 cumulative IPC: 1.513 (Simulation time: 00 hr 20 min 22 sec)
Simulation finished CPU 0 instructions: 100000000 cycles: 66081420 cumulative IPC: 1.513 (Simulation time: 00 hr 20 min 22 sec)
Simulation complete CPU 0 instructions: 100000000 cycles: 66081420 cumulative IPC: 1.513 (Simulation time: 00 hr 20 min 22 sec)

ChampSim completed all CPUs

=== Simulation ===
CPU 0 runs ../traces/secret_traces/compute_fp/compute_fp_28.champsimtrace.xz
Region of Interest Statistics

CPU 0 cumulative IPC: 1.513 instructions: 100000000 cycles: 66081420
CPU 0 Branch Prediction Accuracy: 99.78% MPKI: 0.1327 Average ROB Occupancy at Mispredict: 31.11
Branch type MPKI
BRANCH_DIRECT_JUMP: 0.00712
BRANCH_INDIRECT: 0.0652
BRANCH_CONDITIONAL: 0.0272
BRANCH_DIRECT_CALL: 0.0199
BRANCH_INDIRECT_CALL: 0.00237
BRANCH_RETURN: 0.011

LLC TOTAL        ACCESS:    2711561 HIT:     103479 MISS:    2608082
LLC LOAD         ACCESS:     882562 HIT:      13120 MISS:     869442
LLC RFO          ACCESS:      41898 HIT:      26485 MISS:      15413
LLC PREFETCH     ACCESS:    1517665 HIT:      18600 MISS:    1499065
LLC WRITE        ACCESS:      77742 HIT:      44905 MISS:      32837
LLC TRANSLATION  ACCESS:     191694 HIT:        369 MISS:     191325
LLC PREFETCH REQUESTED:          0 ISSUED:          0 USEFUL:          0 USELESS:          0
LLC AVERAGE MISS LATENCY: 466.4 cycles
cpu0_DTLB TOTAL        ACCESS:   21081172 HIT:   17490860 MISS:    3590312
cpu0_DTLB LOAD         ACCESS:   21081172 HIT:   17490860 MISS:    3590312
cpu0_DTLB RFO          ACCESS:          0 HIT:          0 MISS:          0
cpu0_DTLB PREFETCH     ACCESS:          0 HIT:          0 MISS:          0
cpu0_DTLB WRITE        ACCESS:          0 HIT:          0 MISS:          0
cpu0_DTLB TRANSLATION  ACCESS:          0 HIT:          0 MISS:          0
cpu0_DTLB PREFETCH REQUESTED:          0 ISSUED:          0 USEFUL:          0 USELESS:          0
cpu0_DTLB AVERAGE MISS LATENCY: 37.23 cycles
cpu0_ITLB TOTAL        ACCESS:     116283 HIT:     114802 MISS:       1481
cpu0_ITLB LOAD         ACCESS:     116283 HIT:     114802 MISS:       1481
cpu0_ITLB RFO          ACCESS:          0 HIT:          0 MISS:          0
cpu0_ITLB PREFETCH     ACCESS:          0 HIT:          0 MISS:          0
cpu0_ITLB WRITE        ACCESS:          0 HIT:          0 MISS:          0
cpu0_ITLB TRANSLATION  ACCESS:          0 HIT:          0 MISS:          0
cpu0_ITLB PREFETCH REQUESTED:          0 ISSUED:          0 USEFUL:          0 USELESS:          0
cpu0_ITLB AVERAGE MISS LATENCY: 46.01 cycles
cpu0_L1D TOTAL        ACCESS:   30506734 HIT:   18464918 MISS:   12041816
cpu0_L1D LOAD         ACCESS:   12652125 HIT:    4866649 MISS:    7785476
cpu0_L1D RFO          ACCESS:          0 HIT:          0 MISS:          0
cpu0_L1D PREFETCH     ACCESS:    6938641 HIT:    3298691 MISS:    3639950
cpu0_L1D WRITE        ACCESS:   10614708 HIT:   10266055 MISS:     348653
cpu0_L1D TRANSLATION  ACCESS:     301260 HIT:      33523 MISS:     267737
cpu0_L1D PREFETCH REQUESTED:   64098365 ISSUED:    6938645 USEFUL:     748854 USELESS:     202440
cpu0_L1D AVERAGE MISS LATENCY: 47.55 cycles
cpu0_L1I TOTAL        ACCESS:     168843 HIT:     133682 MISS:      35161
cpu0_L1I LOAD         ACCESS:      59594 HIT:      48920 MISS:      10674
cpu0_L1I RFO          ACCESS:          0 HIT:          0 MISS:          0
cpu0_L1I PREFETCH     ACCESS:     109249 HIT:      84762 MISS:      24487
cpu0_L1I WRITE        ACCESS:          0 HIT:          0 MISS:          0
cpu0_L1I TRANSLATION  ACCESS:          0 HIT:          0 MISS:          0
cpu0_L1I PREFETCH REQUESTED:     164371 ISSUED:     109249 USEFUL:      13478 USELESS:       9002
cpu0_L1I AVERAGE MISS LATENCY: 46.05 cycles
cpu0_L2C TOTAL        ACCESS:   20552926 HIT:   17790622 MISS:    2762304
cpu0_L2C LOAD         ACCESS:    7684771 HIT:    6792147 MISS:     892624
cpu0_L2C RFO          ACCESS:     109863 HIT:      67943 MISS:      41920
cpu0_L2C PREFETCH     ACCESS:   11141891 HIT:    9505833 MISS:    1636058
cpu0_L2C WRITE        ACCESS:    1351609 HIT:    1351601 MISS:          8
cpu0_L2C TRANSLATION  ACCESS:     264792 HIT:      73098 MISS:     191694
cpu0_L2C PREFETCH REQUESTED:   11125566 ISSUED:    7781847 USEFUL:     632044 USELESS:     830874
cpu0_L2C AVERAGE MISS LATENCY: 459.8 cycles
cpu0_STLB TOTAL        ACCESS:    3356859 HIT:    3153997 MISS:     202862
cpu0_STLB LOAD         ACCESS:    3356859 HIT:    3153997 MISS:     202862
cpu0_STLB RFO          ACCESS:          0 HIT:          0 MISS:          0
cpu0_STLB PREFETCH     ACCESS:          0 HIT:          0 MISS:          0
cpu0_STLB WRITE        ACCESS:          0 HIT:          0 MISS:          0
cpu0_STLB TRANSLATION  ACCESS:          0 HIT:          0 MISS:          0
cpu0_STLB PREFETCH REQUESTED:          0 ISSUED:          0 USEFUL:          0 USELESS:          0
cpu0_STLB AVERAGE MISS LATENCY: 540.3 cycles

DRAM Statistics

Channel 0 RQ ROW_BUFFER_HIT:     410919
  ROW_BUFFER_MISS:     882952
 AVG DBUS CONGESTED CYCLE: 3.925
WQ ROW_BUFFER_HIT: Channel 0 
  ROW_BUFFER_MISS:       1093
  FULL:      16465

Channel 1 RQ ROW_BUFFER_HIT:     410764
  ROW_BUFFER_MISS:     870542
 AVG DBUS CONGESTED CYCLE: 3.924
WQ ROW_BUFFER_HIT: Channel 1 
  ROW_BUFFER_MISS:       1008
  FULL:      16120
BERTI TO_L1: 18753768 TO_L2: 48793511 TO_L2_BC_MSHR: 18424461
BERTI AVG_LAT: 85.7149 NUM_TRACK_LATENCY: 8682719 NUM_CANT_TRACK_LATENCY: 1430
BERTI CROSS_PAGE 41272214 NO_CROSS_PAGE: 26275065
BERTI FOUND_BERTI: 13267679 NO_FOUND_BERTI: 9215901
BERTI AVERAGE_ISSUED: 5.11993
CPU 0 L1I Entangling prefetcher final stats
IP accesses: 5aeb 16bac0 234 / 60000
IP misses: 6b8e 1ae380 64 / 11080
IP hits: 0 0 0 / 0
IP late: 215c 85700 12 / 5383
IP wrong: e8c9 3a3240 27 / 8948
miss rate: 0.184667
coverage: 0
coverage_late: 0.485831
accuracy: 0
accuracy_late: 0.37562
discarded: 0
evicts entangled j table: 0
evicts entangled k table: 1657
max bb size: 92
formats: 469 0 1297 735 320 653 0 
hist_lookups: 1045 1234 1039 914 802 672 539 434 325 284 201 105 73 41 21 0 21 3118 
hist_lookups_evict: 0.193228 %
hist_lookups_shortlat: 28.6898 %
bb_found_hist: 0 14252 6104 2820 1076 632 230 73 61 22 14 7 13 2 28 0 0 0 0 0 0 0 0 2 0 1 0 0 0 0 0 0 0 0 0 0 0 0 0 0 0 0 0 0 0 0 0 0 0 0 0 0 0 0 0 0 0 0 0 0 0 0 0 0 
bb_found_summary: 45823 25337 1.80855
entangled_found_hist: 0 7967 5348 9334 1860 372 54 0 
entangled_found_summary: 56289 24935 2.25743
bb_ent_found_hist: 0 19122 9437 5560 2174 1431 629 267 87 10 27 13 4 2 2 0 0 0 5 0 0 0 0 0 0 3 0 0 0 0 0 0 0 0 0 0 0 0 0 0 0 0 0 0 0 0 0 0 0 0 0 0 0 0 0 0 0 0 0 0 0 0 0 0 
bb_ent_found_summary: 77636 38773 2.00233
