WARNING: physical memory size is smaller than virtual memory size.

*** ChampSim Multicore Out-of-Order Simulator ***
Warmup Instructions: 30000000
Simulation Instructions: 100000000
Number of CPUs: 1
Page size: 4096

BTB:
Basic BTB sets: 1024 ways: 8
Indirect:
history lengths: 0 0 10 16 27 44 60 96 109 219 449 487 714 1313 2146 3881 
ITTAGE tables: 64768 bytes;Region table: 240 bytes;IUM: 384 bytes;Total Storage= 65392 bytes;
RAS:
RAS size: 64
[LLC] Demand IPV: 1 2 2 1 4 Prefetch IPV: 1 2 1 1 4
Berti Prefetcher
CPU 0 Entangling prefetcher
Off-chip DRAM Size: 8 GiB Channels: 2 Width: 64-bit Data Race: 6400 MT/s
Heartbeat CPU 0 instructions: 10000001 cycles: 1726957 heartbeat IPC: 5.791 cumulative IPC: 5.791 (Simulation time: 00 hr 00 min 45 sec)
Heartbeat CPU 0 instructions: 20000000 cycles: 3411516 heartbeat IPC: 5.936 cumulative IPC: 5.862 (Simulation time: 00 hr 01 min 27 sec)
Heartbeat CPU 0 instructions: 30000004 cycles: 5078370 heartbeat IPC: 5.999 cumulative IPC: 5.907 (Simulation time: 00 hr 01 min 59 sec)
Warmup finished CPU 0 instructions: 30000004 cycles: 5078371 cumulative IPC: 5.907 (Simulation time: 00 hr 01 min 59 sec)
Warmup complete CPU 0 instructions: 30000004 cycles: 5078371 cumulative IPC: 5.907 (Simulation time: 00 hr 01 min 59 sec)
Heartbeat CPU 0 instructions: 40000003 cycles: 6764703 heartbeat IPC: 5.93 cumulative IPC: 5.93 (Simulation time: 00 hr 02 min 35 sec)
Heartbeat CPU 0 instructions: 50000005 cycles: 8446960 heartbeat IPC: 5.944 cumulative IPC: 5.937 (Simulation time: 00 hr 03 min 11 sec)
Heartbeat CPU 0 instructions: 60000006 cycles: 10127530 heartbeat IPC: 5.95 cumulative IPC: 5.942 (Simulation time: 00 hr 03 min 47 sec)
Heartbeat CPU 0 instructions: 70000006 cycles: 11811875 heartbeat IPC: 5.937 cumulative IPC: 5.94 (Simulation time: 00 hr 04 min 24 sec)
Heartbeat CPU 0 instructions: 80000008 cycles: 13494852 heartbeat IPC: 5.942 cumulative IPC: 5.941 (Simulation time: 00 hr 05 min 00 sec)
Heartbeat CPU 0 instructions: 90000000 cycles: 15182154 heartbeat IPC: 5.927 cumulative IPC: 5.938 (Simulation time: 00 hr 05 min 36 sec)
Heartbeat CPU 0 instructions: 100000011 cycles: 16876898 heartbeat IPC: 5.901 cumulative IPC: 5.933 (Simulation time: 00 hr 06 min 12 sec)
*** Reached end of trace: (0, "../traces/secret_traces/compute_fp/compute_fp_46.champsimtrace.xz")
Heartbeat CPU 0 instructions: 110000003 cycles: 19796510 heartbeat IPC: 3.425 cumulative IPC: 5.435 (Simulation time: 00 hr 07 min 03 sec)
Heartbeat CPU 0 instructions: 120000011 cycles: 22128012 heartbeat IPC: 4.289 cumulative IPC: 5.279 (Simulation time: 00 hr 07 min 59 sec)
Heartbeat CPU 0 instructions: 130000001 cycles: 23898246 heartbeat IPC: 5.649 cumulative IPC: 5.314 (Simulation time: 00 hr 08 min 38 sec)
Simulation finished CPU 0 instructions: 100000003 cycles: 18819885 cumulative IPC: 5.314 (Simulation time: 00 hr 08 min 38 sec)
Simulation complete CPU 0 instructions: 100000003 cycles: 18819885 cumulative IPC: 5.314 (Simulation time: 00 hr 08 min 38 sec)

ChampSim completed all CPUs

=== Simulation ===
CPU 0 runs ../traces/secret_traces/compute_fp/compute_fp_46.champsimtrace.xz
Region of Interest Statistics

CPU 0 cumulative IPC: 5.314 instructions: 100000003 cycles: 18819885
CPU 0 Branch Prediction Accuracy: 96.3% MPKI: 0.5109 Average ROB Occupancy at Mispredict: 46.12
Branch type MPKI
BRANCH_DIRECT_JUMP: 0.00803
BRANCH_INDIRECT: 0.075
BRANCH_CONDITIONAL: 0.393
BRANCH_DIRECT_CALL: 0.021
BRANCH_INDIRECT_CALL: 0.00252
BRANCH_RETURN: 0.0117

LLC TOTAL        ACCESS:     294637 HIT:     142707 MISS:     151930
LLC LOAD         ACCESS:      23218 HIT:       9196 MISS:      14022
LLC RFO          ACCESS:      57017 HIT:      31762 MISS:      25255
LLC PREFETCH     ACCESS:     132143 HIT:      44995 MISS:      87148
LLC WRITE        ACCESS:      81370 HIT:      56656 MISS:      24714
LLC TRANSLATION  ACCESS:        889 HIT:         98 MISS:        791
LLC PREFETCH REQUESTED:          0 ISSUED:          0 USEFUL:          0 USELESS:          0
LLC AVERAGE MISS LATENCY: 176.9 cycles
cpu0_DTLB TOTAL        ACCESS:   13958640 HIT:   13911923 MISS:      46717
cpu0_DTLB LOAD         ACCESS:   13958640 HIT:   13911923 MISS:      46717
cpu0_DTLB RFO          ACCESS:          0 HIT:          0 MISS:          0
cpu0_DTLB PREFETCH     ACCESS:          0 HIT:          0 MISS:          0
cpu0_DTLB WRITE        ACCESS:          0 HIT:          0 MISS:          0
cpu0_DTLB TRANSLATION  ACCESS:          0 HIT:          0 MISS:          0
cpu0_DTLB PREFETCH REQUESTED:          0 ISSUED:          0 USEFUL:          0 USELESS:          0
cpu0_DTLB AVERAGE MISS LATENCY: 6.622 cycles
cpu0_ITLB TOTAL        ACCESS:     174207 HIT:     172457 MISS:       1750
cpu0_ITLB LOAD         ACCESS:     174207 HIT:     172457 MISS:       1750
cpu0_ITLB RFO          ACCESS:          0 HIT:          0 MISS:          0
cpu0_ITLB PREFETCH     ACCESS:          0 HIT:          0 MISS:          0
cpu0_ITLB WRITE        ACCESS:          0 HIT:          0 MISS:          0
cpu0_ITLB TRANSLATION  ACCESS:          0 HIT:          0 MISS:          0
cpu0_ITLB PREFETCH REQUESTED:          0 ISSUED:          0 USEFUL:          0 USELESS:          0
cpu0_ITLB AVERAGE MISS LATENCY: 39.13 cycles
cpu0_L1D TOTAL        ACCESS:   25039121 HIT:   22296082 MISS:    2743039
cpu0_L1D LOAD         ACCESS:   13370620 HIT:   11360456 MISS:    2010164
cpu0_L1D RFO          ACCESS:          0 HIT:          0 MISS:          0
cpu0_L1D PREFETCH     ACCESS:    3000172 HIT:    2620495 MISS:     379677
cpu0_L1D WRITE        ACCESS:    8665508 HIT:    8313818 MISS:     351690
cpu0_L1D TRANSLATION  ACCESS:       2821 HIT:       1313 MISS:       1508
cpu0_L1D PREFETCH REQUESTED:   12085912 ISSUED:    3000172 USEFUL:     111533 USELESS:       1696
cpu0_L1D AVERAGE MISS LATENCY: 8.42 cycles
cpu0_L1I TOTAL        ACCESS:     254003 HIT:     218585 MISS:      35418
cpu0_L1I LOAD         ACCESS:      83535 HIT:      73313 MISS:      10222
cpu0_L1I RFO          ACCESS:          0 HIT:          0 MISS:          0
cpu0_L1I PREFETCH     ACCESS:     170468 HIT:     145272 MISS:      25196
cpu0_L1I WRITE        ACCESS:          0 HIT:          0 MISS:          0
cpu0_L1I TRANSLATION  ACCESS:          0 HIT:          0 MISS:          0
cpu0_L1I PREFETCH REQUESTED:     232201 ISSUED:     170468 USEFUL:      13981 USELESS:       9403
cpu0_L1I AVERAGE MISS LATENCY: 56.61 cycles
cpu0_L2C TOTAL        ACCESS:    2708755 HIT:    2352136 MISS:     356619
cpu0_L2C LOAD         ACCESS:     746139 HIT:     714417 MISS:      31722
cpu0_L2C RFO          ACCESS:      65983 HIT:       8957 MISS:      57026
cpu0_L2C PREFETCH     ACCESS:    1482174 HIT:    1215198 MISS:     266976
cpu0_L2C WRITE        ACCESS:     412988 HIT:     412982 MISS:          6
cpu0_L2C TRANSLATION  ACCESS:       1471 HIT:        582 MISS:        889
cpu0_L2C PREFETCH REQUESTED:    1125960 ISSUED:    1102621 USEFUL:      72457 USELESS:      12919
cpu0_L2C AVERAGE MISS LATENCY: 85.9 cycles
cpu0_STLB TOTAL        ACCESS:      24558 HIT:      21858 MISS:       2700
cpu0_STLB LOAD         ACCESS:      24558 HIT:      21858 MISS:       2700
cpu0_STLB RFO          ACCESS:          0 HIT:          0 MISS:          0
cpu0_STLB PREFETCH     ACCESS:          0 HIT:          0 MISS:          0
cpu0_STLB WRITE        ACCESS:          0 HIT:          0 MISS:          0
cpu0_STLB TRANSLATION  ACCESS:          0 HIT:          0 MISS:          0
cpu0_STLB PREFETCH REQUESTED:          0 ISSUED:          0 USEFUL:          0 USELESS:          0
cpu0_STLB AVERAGE MISS LATENCY: 109.5 cycles

DRAM Statistics

Channel 0 RQ ROW_BUFFER_HIT:      33756
  ROW_BUFFER_MISS:      30271
 AVG DBUS CONGESTED CYCLE: 3.916
WQ ROW_BUFFER_HIT: Channel 0 
  ROW_BUFFER_MISS:       1723
  FULL:      13486

Channel 1 RQ ROW_BUFFER_HIT:      33739
  ROW_BUFFER_MISS:      29378
 AVG DBUS CONGESTED CYCLE: 3.905
WQ ROW_BUFFER_HIT: Channel 1 
  ROW_BUFFER_MISS:       1765
  FULL:      12969
BERTI TO_L1: 18471695 TO_L2: 6469224 TO_L2_BC_MSHR: 2026216
BERTI AVG_LAT: 36.7346 NUM_TRACK_LATENCY: 1103872 NUM_CANT_TRACK_LATENCY: 5
BERTI CROSS_PAGE 4310159 NO_CROSS_PAGE: 20630760
BERTI FOUND_BERTI: 8181745 NO_FOUND_BERTI: 10021901
BERTI AVERAGE_ISSUED: 4.51602
CPU 0 L1I Entangling prefetcher final stats
IP accesses: 6594 196500 1633 / 86986
IP misses: 448a 112280 249 / 13673
IP hits: 0 0 0 / 0
IP late: 3a23 e88c0 11 / 5394
IP wrong: 41fe 107f80 21 / 9363
miss rate: 0.157187
coverage: 0
coverage_late: 0.394501
accuracy: 0
accuracy_late: 0.365522
discarded: 0
evicts entangled j table: 0
evicts entangled k table: 1620
max bb size: 65
formats: 441 0 1364 705 302 673 0 
hist_lookups: 1087 1262 998 862 744 668 577 481 327 257 200 132 82 46 21 0 12 2831 
hist_lookups_evict: 0.113347 %
hist_lookups_shortlat: 26.7404 %
bb_found_hist: 0 18521 11565 4878 1514 668 528 86 64 25 33 25 13 1 8 2 17 19 0 1 2 0 0 18 0 0 1 0 0 0 0 0 0 0 0 0 0 0 0 0 0 0 0 0 0 0 0 0 0 2 0 0 0 0 0 0 0 0 0 0 0 0 0 0 
bb_found_summary: 72296 37991 1.90298
entangled_found_hist: 0 11448 7078 11316 1791 485 43 0 
entangled_found_summary: 69399 32161 2.15787
bb_ent_found_hist: 0 22622 11356 5939 3192 1687 1982 183 59 9 32 547 2 1 6 1 0 28 0 2 5 0 0 26 0 0 1 0 0 0 0 0 0 0 0 0 0 0 0 0 0 0 0 0 0 0 0 0 0 3 0 0 0 0 0 0 0 0 0 0 0 0 0 0 
bb_ent_found_summary: 105938 47683 2.22172
