WARNING: physical memory size is smaller than virtual memory size.

*** ChampSim Multicore Out-of-Order Simulator ***
Warmup Instructions: 30000000
Simulation Instructions: 100000000
Number of CPUs: 1
Page size: 4096

BTB:
Basic BTB sets: 1024 ways: 8
Indirect:
history lengths: 0 0 10 16 27 44 60 96 109 219 449 487 714 1313 2146 3881 
ITTAGE tables: 64768 bytes;Region table: 240 bytes;IUM: 384 bytes;Total Storage= 65392 bytes;
RAS:
RAS size: 64
[LLC] Demand IPV: 1 2 2 1 4 Prefetch IPV: 1 2 1 1 4
Berti Prefetcher
CPU 0 Entangling prefetcher
Off-chip DRAM Size: 8 GiB Channels: 2 Width: 64-bit Data Race: 6400 MT/s
Heartbeat CPU 0 instructions: 10000005 cycles: 1716670 heartbeat IPC: 5.825 cumulative IPC: 5.825 (Simulation time: 00 hr 00 min 26 sec)
Heartbeat CPU 0 instructions: 20000002 cycles: 3383983 heartbeat IPC: 5.998 cumulative IPC: 5.91 (Simulation time: 00 hr 00 min 52 sec)
Heartbeat CPU 0 instructions: 30000001 cycles: 5051046 heartbeat IPC: 5.999 cumulative IPC: 5.939 (Simulation time: 00 hr 01 min 21 sec)
Warmup finished CPU 0 instructions: 30000001 cycles: 5051047 cumulative IPC: 5.939 (Simulation time: 00 hr 01 min 21 sec)
Warmup complete CPU 0 instructions: 30000001 cycles: 5051047 cumulative IPC: 5.939 (Simulation time: 00 hr 01 min 21 sec)
Heartbeat CPU 0 instructions: 40000009 cycles: 6942233 heartbeat IPC: 5.288 cumulative IPC: 5.288 (Simulation time: 00 hr 01 min 57 sec)
Heartbeat CPU 0 instructions: 50000001 cycles: 8806979 heartbeat IPC: 5.363 cumulative IPC: 5.325 (Simulation time: 00 hr 02 min 39 sec)
Heartbeat CPU 0 instructions: 60000009 cycles: 10746099 heartbeat IPC: 5.157 cumulative IPC: 5.268 (Simulation time: 00 hr 03 min 22 sec)
Heartbeat CPU 0 instructions: 70000002 cycles: 12677038 heartbeat IPC: 5.179 cumulative IPC: 5.245 (Simulation time: 00 hr 04 min 06 sec)
Heartbeat CPU 0 instructions: 80000005 cycles: 14503061 heartbeat IPC: 5.476 cumulative IPC: 5.29 (Simulation time: 00 hr 04 min 50 sec)
Heartbeat CPU 0 instructions: 90000007 cycles: 16262448 heartbeat IPC: 5.684 cumulative IPC: 5.352 (Simulation time: 00 hr 05 min 34 sec)
Heartbeat CPU 0 instructions: 100000009 cycles: 18022506 heartbeat IPC: 5.682 cumulative IPC: 5.396 (Simulation time: 00 hr 06 min 18 sec)
*** Reached end of trace: (0, "../traces/secret_traces/compute_fp/compute_fp_0.champsimtrace.xz")
Heartbeat CPU 0 instructions: 110000004 cycles: 20229463 heartbeat IPC: 4.531 cumulative IPC: 5.271 (Simulation time: 00 hr 07 min 08 sec)
Heartbeat CPU 0 instructions: 120000004 cycles: 21955186 heartbeat IPC: 5.795 cumulative IPC: 5.324 (Simulation time: 00 hr 08 min 07 sec)
Heartbeat CPU 0 instructions: 130000006 cycles: 23678473 heartbeat IPC: 5.803 cumulative IPC: 5.368 (Simulation time: 00 hr 09 min 02 sec)
Simulation finished CPU 0 instructions: 100000005 cycles: 18627427 cumulative IPC: 5.368 (Simulation time: 00 hr 09 min 02 sec)
Simulation complete CPU 0 instructions: 100000005 cycles: 18627427 cumulative IPC: 5.368 (Simulation time: 00 hr 09 min 02 sec)

ChampSim completed all CPUs

=== Simulation ===
CPU 0 runs ../traces/secret_traces/compute_fp/compute_fp_0.champsimtrace.xz
Region of Interest Statistics

CPU 0 cumulative IPC: 5.368 instructions: 100000005 cycles: 18627427
CPU 0 Branch Prediction Accuracy: 99.43% MPKI: 0.9229 Average ROB Occupancy at Mispredict: 50.6
Branch type MPKI
BRANCH_DIRECT_JUMP: 0.25
BRANCH_INDIRECT: 0.177
BRANCH_CONDITIONAL: 0.407
BRANCH_DIRECT_CALL: 0.0221
BRANCH_INDIRECT_CALL: 0.0537
BRANCH_RETURN: 0.0125

LLC TOTAL        ACCESS:      87874 HIT:      77966 MISS:       9908
LLC LOAD         ACCESS:      15070 HIT:      11660 MISS:       3410
LLC RFO          ACCESS:      26157 HIT:      25859 MISS:        298
LLC PREFETCH     ACCESS:      16719 HIT:      11391 MISS:       5328
LLC WRITE        ACCESS:      29681 HIT:      28973 MISS:        708
LLC TRANSLATION  ACCESS:        247 HIT:         83 MISS:        164
LLC PREFETCH REQUESTED:          0 ISSUED:          0 USEFUL:          0 USELESS:          0
LLC AVERAGE MISS LATENCY: 134.4 cycles
cpu0_DTLB TOTAL        ACCESS:   16534647 HIT:   16322183 MISS:     212464
cpu0_DTLB LOAD         ACCESS:   16534647 HIT:   16322183 MISS:     212464
cpu0_DTLB RFO          ACCESS:          0 HIT:          0 MISS:          0
cpu0_DTLB PREFETCH     ACCESS:          0 HIT:          0 MISS:          0
cpu0_DTLB WRITE        ACCESS:          0 HIT:          0 MISS:          0
cpu0_DTLB TRANSLATION  ACCESS:          0 HIT:          0 MISS:          0
cpu0_DTLB PREFETCH REQUESTED:          0 ISSUED:          0 USEFUL:          0 USELESS:          0
cpu0_DTLB AVERAGE MISS LATENCY: 2.338 cycles
cpu0_ITLB TOTAL        ACCESS:    5479203 HIT:    5477447 MISS:       1756
cpu0_ITLB LOAD         ACCESS:    5479203 HIT:    5477447 MISS:       1756
cpu0_ITLB RFO          ACCESS:          0 HIT:          0 MISS:          0
cpu0_ITLB PREFETCH     ACCESS:          0 HIT:          0 MISS:          0
cpu0_ITLB WRITE        ACCESS:          0 HIT:          0 MISS:          0
cpu0_ITLB TRANSLATION  ACCESS:          0 HIT:          0 MISS:          0
cpu0_ITLB PREFETCH REQUESTED:          0 ISSUED:          0 USEFUL:          0 USELESS:          0
cpu0_ITLB AVERAGE MISS LATENCY: 8.858 cycles
cpu0_L1D TOTAL        ACCESS:   28888450 HIT:   27549406 MISS:    1339044
cpu0_L1D LOAD         ACCESS:   18851382 HIT:   17911418 MISS:     939964
cpu0_L1D RFO          ACCESS:          0 HIT:          0 MISS:          0
cpu0_L1D PREFETCH     ACCESS:      66163 HIT:      50334 MISS:      15829
cpu0_L1D WRITE        ACCESS:    9970499 HIT:    9587585 MISS:     382914
cpu0_L1D TRANSLATION  ACCESS:        406 HIT:         69 MISS:        337
cpu0_L1D PREFETCH REQUESTED:     211036 ISSUED:      66163 USEFUL:       1608 USELESS:        162
cpu0_L1D AVERAGE MISS LATENCY: 4.49 cycles
cpu0_L1I TOTAL        ACCESS:    8412438 HIT:    8017023 MISS:     395415
cpu0_L1I LOAD         ACCESS:    2779219 HIT:    2597003 MISS:     182216
cpu0_L1I RFO          ACCESS:          0 HIT:          0 MISS:          0
cpu0_L1I PREFETCH     ACCESS:    5633219 HIT:    5420020 MISS:     213199
cpu0_L1I WRITE        ACCESS:          0 HIT:          0 MISS:          0
cpu0_L1I TRANSLATION  ACCESS:          0 HIT:          0 MISS:          0
cpu0_L1I PREFETCH REQUESTED:   16570401 ISSUED:    5633221 USEFUL:     144682 USELESS:      53729
cpu0_L1I AVERAGE MISS LATENCY: 9.448 cycles
cpu0_L2C TOTAL        ACCESS:    1853028 HIT:    1784450 MISS:      68578
cpu0_L2C LOAD         ACCESS:     559876 HIT:     543923 MISS:      15953
cpu0_L2C RFO          ACCESS:     139658 HIT:     113496 MISS:      26162
cpu0_L2C PREFETCH     ACCESS:     966888 HIT:     940672 MISS:      26216
cpu0_L2C WRITE        ACCESS:     186270 HIT:     186270 MISS:          0
cpu0_L2C TRANSLATION  ACCESS:        336 HIT:         89 MISS:        247
cpu0_L2C PREFETCH REQUESTED:     768560 ISSUED:     758330 USEFUL:       3993 USELESS:       3921
cpu0_L2C AVERAGE MISS LATENCY: 36.43 cycles
cpu0_STLB TOTAL        ACCESS:     100744 HIT:     100400 MISS:        344
cpu0_STLB LOAD         ACCESS:     100744 HIT:     100400 MISS:        344
cpu0_STLB RFO          ACCESS:          0 HIT:          0 MISS:          0
cpu0_STLB PREFETCH     ACCESS:          0 HIT:          0 MISS:          0
cpu0_STLB WRITE        ACCESS:          0 HIT:          0 MISS:          0
cpu0_STLB TRANSLATION  ACCESS:          0 HIT:          0 MISS:          0
cpu0_STLB PREFETCH REQUESTED:          0 ISSUED:          0 USEFUL:          0 USELESS:          0
cpu0_STLB AVERAGE MISS LATENCY: 144.3 cycles

DRAM Statistics

Channel 0 RQ ROW_BUFFER_HIT:       1768
  ROW_BUFFER_MISS:       2997
 AVG DBUS CONGESTED CYCLE: 3.69
WQ ROW_BUFFER_HIT: Channel 0 
  ROW_BUFFER_MISS:         67
  FULL:        167

Channel 1 RQ ROW_BUFFER_HIT:       1662
  ROW_BUFFER_MISS:       2773
 AVG DBUS CONGESTED CYCLE: 3.631
WQ ROW_BUFFER_HIT: Channel 1 
  ROW_BUFFER_MISS:         49
  FULL:        107
BERTI TO_L1: 161151 TO_L2: 223090 TO_L2_BC_MSHR: 42901
BERTI AVG_LAT: 11.0353 NUM_TRACK_LATENCY: 595565 NUM_CANT_TRACK_LATENCY: 0
BERTI CROSS_PAGE 59568 NO_CROSS_PAGE: 324673
BERTI FOUND_BERTI: 1910711 NO_FOUND_BERTI: 23221703
BERTI AVERAGE_ISSUED: 3.35247
CPU 0 L1I Entangling prefetcher final stats
IP accesses: 110e 44380 58467 / 2780299
IP misses: 1002 40080 2991 / 183296
IP hits: 0 0 0 / 0
IP late: 1004 40100 1507 / 78458
IP wrong: b36 2cd80 1868 / 52944
miss rate: 0.0659268
coverage: 0
coverage_late: 0.42804
accuracy: 0
accuracy_late: 0.597084
discarded: 0
evicts entangled j table: 0
evicts entangled k table: 7651
max bb size: 49
formats: 476 0 5451 3381 1481 1849 0 
hist_lookups: 7347 8733 10411 8878 6588 7132 3701 2453 2694 1845 1048 719 394 226 77 0 0 13452 
hist_lookups_evict: 0 %
hist_lookups_shortlat: 17.7707 %
bb_found_hist: 0 645683 321878 263192 89313 84930 44217 27320 44707 3060 19836 3185 20 0 6 2 18 0 0 1716 3497 3614 0 0 0 0 0 0 0 0 0 0 0 0 0 0 0 0 0 0 0 0 0 0 0 0 0 0 0 2 0 0 0 0 0 0 0 0 0 0 0 0 0 0 
bb_found_summary: 4115228 1556196 2.64442
entangled_found_hist: 0 176673 266815 860135 111758 49179 25109 0 
entangled_found_summary: 4134289 1489669 2.77531
bb_ent_found_hist: 0 1314372 831881 586848 92704 96576 143863 102304 99314 30 43218 4225 85 0 5 0 0 0 0 315 223 6018 0 0 0 0 0 0 0 0 0 0 0 0 0 0 0 0 0 0 0 0 0 0 0 0 0 0 0 6 0 0 0 0 0 0 0 0 0 0 0 0 0 0 
bb_ent_found_summary: 8583324 3321987 2.5838
