WARNING: physical memory size is smaller than virtual memory size.

*** ChampSim Multicore Out-of-Order Simulator ***
Warmup Instructions: 30000000
Simulation Instructions: 100000000
Number of CPUs: 1
Page size: 4096

BTB:
Basic BTB sets: 1024 ways: 8
Indirect:
history lengths: 0 0 10 16 27 44 60 96 109 219 449 487 714 1313 2146 3881 
ITTAGE tables: 64768 bytes;Region table: 240 bytes;IUM: 384 bytes;Total Storage= 65392 bytes;
RAS:
RAS size: 64
[LLC] INSTR Demand IPV: 1 2 2 1 4 Prefetch IPV: 1 2 1 1 4
[LLC] DATA  Demand IPV: 1 1 1 2 4 Prefetch IPV: 1 1 2 2 4
Berti Prefetcher
CPU 0 Entangling prefetcher
Off-chip DRAM Size: 8 GiB Channels: 2 Width: 64-bit Data Race: 6400 MT/s
[DUEL] Epoch ended. INSTR misses = 67, DATA misses = 57. Winner = DATA
[DUEL] Epoch ended. INSTR misses = 47, DATA misses = 35. Winner = DATA
[DUEL] Epoch ended. INSTR misses = 26, DATA misses = 17. Winner = DATA
[DUEL] Epoch ended. INSTR misses = 48, DATA misses = 49. Winner = INSTR
[DUEL] Epoch ended. INSTR misses = 23, DATA misses = 16. Winner = DATA
[DUEL] Epoch ended. INSTR misses = 41, DATA misses = 34. Winner = DATA
[DUEL] Epoch ended. INSTR misses = 28, DATA misses = 23. Winner = DATA
[DUEL] Epoch ended. INSTR misses = 6, DATA misses = 8. Winner = INSTR
[DUEL] Epoch ended. INSTR misses = 80, DATA misses = 62. Winner = DATA
[DUEL] Epoch ended. INSTR misses = 61, DATA misses = 53. Winner = DATA
[DUEL] Epoch ended. INSTR misses = 37, DATA misses = 25. Winner = DATA
[DUEL] Epoch ended. INSTR misses = 41, DATA misses = 61. Winner = INSTR
[DUEL] Epoch ended. INSTR misses = 8, DATA misses = 11. Winner = INSTR
[DUEL] Epoch ended. INSTR misses = 23, DATA misses = 17. Winner = DATA
[DUEL] Epoch ended. INSTR misses = 66, DATA misses = 60. Winner = DATA
[DUEL] Epoch ended. INSTR misses = 8, DATA misses = 7. Winner = DATA
[DUEL] Epoch ended. INSTR misses = 57, DATA misses = 64. Winner = INSTR
[DUEL] Epoch ended. INSTR misses = 17, DATA misses = 17. Winner = INSTR
[DUEL] Epoch ended. INSTR misses = 24, DATA misses = 20. Winner = DATA
[DUEL] Epoch ended. INSTR misses = 21, DATA misses = 33. Winner = INSTR
[DUEL] Epoch ended. INSTR misses = 8, DATA misses = 2. Winner = DATA
[DUEL] Epoch ended. INSTR misses = 49, DATA misses = 51. Winner = INSTR
[DUEL] Epoch ended. INSTR misses = 58, DATA misses = 59. Winner = INSTR
[DUEL] Epoch ended. INSTR misses = 10, DATA misses = 6. Winner = DATA
[DUEL] Epoch ended. INSTR misses = 83, DATA misses = 90. Winner = INSTR
[DUEL] Epoch ended. INSTR misses = 55, DATA misses = 43. Winner = DATA
[DUEL] Epoch ended. INSTR misses = 15, DATA misses = 2. Winner = DATA
[DUEL] Epoch ended. INSTR misses = 51, DATA misses = 76. Winner = INSTR
[DUEL] Epoch ended. INSTR misses = 9, DATA misses = 14. Winner = INSTR
[DUEL] Epoch ended. INSTR misses = 14, DATA misses = 3. Winner = DATA
[DUEL] Epoch ended. INSTR misses = 20, DATA misses = 27. Winner = INSTR
[DUEL] Epoch ended. INSTR misses = 1, DATA misses = 0. Winner = DATA
[DUEL] Epoch ended. INSTR misses = 34, DATA misses = 31. Winner = DATA
[DUEL] Epoch ended. INSTR misses = 45, DATA misses = 57. Winner = INSTR
[DUEL] Epoch ended. INSTR misses = 13, DATA misses = 6. Winner = DATA
[DUEL] Epoch ended. INSTR misses = 55, DATA misses = 64. Winner = INSTR
[DUEL] Epoch ended. INSTR misses = 4, DATA misses = 3. Winner = DATA
[DUEL] Epoch ended. INSTR misses = 14, DATA misses = 14. Winner = INSTR
[DUEL] Epoch ended. INSTR misses = 77, DATA misses = 69. Winner = DATA
Heartbeat CPU 0 instructions: 10000002 cycles: 2115680 heartbeat IPC: 4.727 cumulative IPC: 4.727 (Simulation time: 00 hr 00 min 30 sec)
[DUEL] Epoch ended. INSTR misses = 6, DATA misses = 10. Winner = INSTR
[DUEL] Epoch ended. INSTR misses = 53, DATA misses = 63. Winner = INSTR
[DUEL] Epoch ended. INSTR misses = 22, DATA misses = 18. Winner = DATA
[DUEL] Epoch ended. INSTR misses = 10, DATA misses = 1. Winner = DATA
[DUEL] Epoch ended. INSTR misses = 15, DATA misses = 35. Winner = INSTR
[DUEL] Epoch ended. INSTR misses = 17, DATA misses = 19. Winner = INSTR
[DUEL] Epoch ended. INSTR misses = 46, DATA misses = 34. Winner = DATA
[DUEL] Epoch ended. INSTR misses = 25, DATA misses = 27. Winner = INSTR
[DUEL] Epoch ended. INSTR misses = 0, DATA misses = 0. Winner = INSTR
[DUEL] Epoch ended. INSTR misses = 40, DATA misses = 50. Winner = INSTR
[DUEL] Epoch ended. INSTR misses = 25, DATA misses = 35. Winner = INSTR
[DUEL] Epoch ended. INSTR misses = 9, DATA misses = 6. Winner = DATA
[DUEL] Epoch ended. INSTR misses = 59, DATA misses = 62. Winner = INSTR
[DUEL] Epoch ended. INSTR misses = 44, DATA misses = 42. Winner = DATA
[DUEL] Epoch ended. INSTR misses = 44, DATA misses = 53. Winner = INSTR
[DUEL] Epoch ended. INSTR misses = 44, DATA misses = 50. Winner = INSTR
[DUEL] Epoch ended. INSTR misses = 7, DATA misses = 7. Winner = INSTR
[DUEL] Epoch ended. INSTR misses = 62, DATA misses = 62. Winner = INSTR
[DUEL] Epoch ended. INSTR misses = 71, DATA misses = 65. Winner = DATA
[DUEL] Epoch ended. INSTR misses = 9, DATA misses = 3. Winner = DATA
[DUEL] Epoch ended. INSTR misses = 57, DATA misses = 73. Winner = INSTR
[DUEL] Epoch ended. INSTR misses = 8, DATA misses = 10. Winner = INSTR
[DUEL] Epoch ended. INSTR misses = 35, DATA misses = 23. Winner = DATA
[DUEL] Epoch ended. INSTR misses = 39, DATA misses = 46. Winner = INSTR
[DUEL] Epoch ended. INSTR misses = 7, DATA misses = 2. Winner = DATA
[DUEL] Epoch ended. INSTR misses = 15, DATA misses = 16. Winner = INSTR
[DUEL] Epoch ended. INSTR misses = 53, DATA misses = 57. Winner = INSTR
[DUEL] Epoch ended. INSTR misses = 5, DATA misses = 4. Winner = DATA
[DUEL] Epoch ended. INSTR misses = 27, DATA misses = 19. Winner = DATA
[DUEL] Epoch ended. INSTR misses = 32, DATA misses = 36. Winner = INSTR
[DUEL] Epoch ended. INSTR misses = 5, DATA misses = 10. Winner = INSTR
[DUEL] Epoch ended. INSTR misses = 58, DATA misses = 58. Winner = INSTR
[DUEL] Epoch ended. INSTR misses = 32, DATA misses = 36. Winner = INSTR
[DUEL] Epoch ended. INSTR misses = 46, DATA misses = 41. Winner = DATA
[DUEL] Epoch ended. INSTR misses = 7, DATA misses = 17. Winner = INSTR
[DUEL] Epoch ended. INSTR misses = 3, DATA misses = 0. Winner = DATA
[DUEL] Epoch ended. INSTR misses = 61, DATA misses = 70. Winner = INSTR
[DUEL] Epoch ended. INSTR misses = 30, DATA misses = 35. Winner = INSTR
Heartbeat CPU 0 instructions: 20000000 cycles: 4211891 heartbeat IPC: 4.771 cumulative IPC: 4.748 (Simulation time: 00 hr 01 min 00 sec)
[DUEL] Epoch ended. INSTR misses = 27, DATA misses = 17. Winner = DATA
[DUEL] Epoch ended. INSTR misses = 43, DATA misses = 48. Winner = INSTR
[DUEL] Epoch ended. INSTR misses = 6, DATA misses = 7. Winner = INSTR
[DUEL] Epoch ended. INSTR misses = 42, DATA misses = 37. Winner = DATA
[DUEL] Epoch ended. INSTR misses = 44, DATA misses = 51. Winner = INSTR
[DUEL] Epoch ended. INSTR misses = 14, DATA misses = 10. Winner = DATA
[DUEL] Epoch ended. INSTR misses = 43, DATA misses = 61. Winner = INSTR
[DUEL] Epoch ended. INSTR misses = 14, DATA misses = 19. Winner = INSTR
[DUEL] Epoch ended. INSTR misses = 42, DATA misses = 36. Winner = DATA
[DUEL] Epoch ended. INSTR misses = 61, DATA misses = 64. Winner = INSTR
[DUEL] Epoch ended. INSTR misses = 3, DATA misses = 5. Winner = INSTR
[DUEL] Epoch ended. INSTR misses = 51, DATA misses = 50. Winner = DATA
[DUEL] Epoch ended. INSTR misses = 9, DATA misses = 17. Winner = INSTR
[DUEL] Epoch ended. INSTR misses = 1, DATA misses = 0. Winner = DATA
[DUEL] Epoch ended. INSTR misses = 37, DATA misses = 35. Winner = DATA
[DUEL] Epoch ended. INSTR misses = 32, DATA misses = 35. Winner = INSTR
[DUEL] Epoch ended. INSTR misses = 14, DATA misses = 9. Winner = DATA
[DUEL] Epoch ended. INSTR misses = 61, DATA misses = 65. Winner = INSTR
[DUEL] Epoch ended. INSTR misses = 9, DATA misses = 9. Winner = INSTR
[DUEL] Epoch ended. INSTR misses = 18, DATA misses = 10. Winner = DATA
[DUEL] Epoch ended. INSTR misses = 30, DATA misses = 47. Winner = INSTR
[DUEL] Epoch ended. INSTR misses = 41, DATA misses = 49. Winner = INSTR
[DUEL] Epoch ended. INSTR misses = 41, DATA misses = 22. Winner = DATA
[DUEL] Epoch ended. INSTR misses = 31, DATA misses = 42. Winner = INSTR
[DUEL] Epoch ended. INSTR misses = 24, DATA misses = 7. Winner = DATA
[DUEL] Epoch ended. INSTR misses = 56, DATA misses = 58. Winner = INSTR
[DUEL] Epoch ended. INSTR misses = 24, DATA misses = 32. Winner = INSTR
[DUEL] Epoch ended. INSTR misses = 28, DATA misses = 44. Winner = INSTR
[DUEL] Epoch ended. INSTR misses = 12, DATA misses = 14. Winner = INSTR
[DUEL] Epoch ended. INSTR misses = 25, DATA misses = 41. Winner = INSTR
[DUEL] Epoch ended. INSTR misses = 48, DATA misses = 42. Winner = DATA
[DUEL] Epoch ended. INSTR misses = 52, DATA misses = 43. Winner = DATA
[DUEL] Epoch ended. INSTR misses = 44, DATA misses = 47. Winner = INSTR
[DUEL] Epoch ended. INSTR misses = 34, DATA misses = 42. Winner = INSTR
[DUEL] Epoch ended. INSTR misses = 22, DATA misses = 15. Winner = DATA
[DUEL] Epoch ended. INSTR misses = 48, DATA misses = 55. Winner = INSTR
[DUEL] Epoch ended. INSTR misses = 29, DATA misses = 22. Winner = DATA
[DUEL] Epoch ended. INSTR misses = 30, DATA misses = 34. Winner = INSTR
[DUEL] Epoch ended. INSTR misses = 52, DATA misses = 52. Winner = INSTR
[DUEL] Epoch ended. INSTR misses = 10, DATA misses = 9. Winner = DATA
Heartbeat CPU 0 instructions: 30000007 cycles: 6302957 heartbeat IPC: 4.782 cumulative IPC: 4.76 (Simulation time: 00 hr 01 min 30 sec)
Warmup finished CPU 0 instructions: 30000007 cycles: 6302958 cumulative IPC: 4.76 (Simulation time: 00 hr 01 min 30 sec)
Warmup complete CPU 0 instructions: 30000007 cycles: 6302958 cumulative IPC: 4.76 (Simulation time: 00 hr 01 min 30 sec)
[DUEL] Epoch ended. INSTR misses = 80, DATA misses = 81. Winner = INSTR
[DUEL] Epoch ended. INSTR misses = 42, DATA misses = 34. Winner = DATA
[DUEL] Epoch ended. INSTR misses = 23, DATA misses = 11. Winner = DATA
[DUEL] Epoch ended. INSTR misses = 73, DATA misses = 79. Winner = INSTR
[DUEL] Epoch ended. INSTR misses = 45, DATA misses = 38. Winner = DATA
[DUEL] Epoch ended. INSTR misses = 38, DATA misses = 29. Winner = DATA
[DUEL] Epoch ended. INSTR misses = 46, DATA misses = 52. Winner = INSTR
[DUEL] Epoch ended. INSTR misses = 6, DATA misses = 0. Winner = DATA
*** Reached end of trace: (0, "../traces/public_traces/srv/srv_37.champsimtrace.xz")
[DUEL] Epoch ended. INSTR misses = 50, DATA misses = 50. Winner = INSTR
[DUEL] Epoch ended. INSTR misses = 64, DATA misses = 38. Winner = DATA
[DUEL] Epoch ended. INSTR misses = 5, DATA misses = 6. Winner = INSTR
[DUEL] Epoch ended. INSTR misses = 34, DATA misses = 28. Winner = DATA
[DUEL] Epoch ended. INSTR misses = 47, DATA misses = 30. Winner = DATA
[DUEL] Epoch ended. INSTR misses = 9, DATA misses = 6. Winner = DATA
[DUEL] Epoch ended. INSTR misses = 32, DATA misses = 26. Winner = DATA
[DUEL] Epoch ended. INSTR misses = 37, DATA misses = 23. Winner = DATA
[DUEL] Epoch ended. INSTR misses = 34, DATA misses = 29. Winner = DATA
[DUEL] Epoch ended. INSTR misses = 93, DATA misses = 81. Winner = DATA
[DUEL] Epoch ended. INSTR misses = 18, DATA misses = 15. Winner = DATA
[DUEL] Epoch ended. INSTR misses = 42, DATA misses = 32. Winner = DATA
[DUEL] Epoch ended. INSTR misses = 30, DATA misses = 58. Winner = INSTR
[DUEL] Epoch ended. INSTR misses = 13, DATA misses = 7. Winner = DATA
[DUEL] Epoch ended. INSTR misses = 42, DATA misses = 32. Winner = DATA
[DUEL] Epoch ended. INSTR misses = 49, DATA misses = 44. Winner = DATA
[DUEL] Epoch ended. INSTR misses = 22, DATA misses = 24. Winner = INSTR
[DUEL] Epoch ended. INSTR misses = 56, DATA misses = 58. Winner = INSTR
[DUEL] Epoch ended. INSTR misses = 4, DATA misses = 3. Winner = DATA
[DUEL] Epoch ended. INSTR misses = 30, DATA misses = 17. Winner = DATA
[DUEL] Epoch ended. INSTR misses = 27, DATA misses = 33. Winner = INSTR
[DUEL] Epoch ended. INSTR misses = 4, DATA misses = 4. Winner = INSTR
[DUEL] Epoch ended. INSTR misses = 73, DATA misses = 72. Winner = DATA
[DUEL] Epoch ended. INSTR misses = 35, DATA misses = 41. Winner = INSTR
[DUEL] Epoch ended. INSTR misses = 72, DATA misses = 56. Winner = DATA
[DUEL] Epoch ended. INSTR misses = 38, DATA misses = 52. Winner = INSTR
[DUEL] Epoch ended. INSTR misses = 36, DATA misses = 22. Winner = DATA
[DUEL] Epoch ended. INSTR misses = 43, DATA misses = 46. Winner = INSTR
[DUEL] Epoch ended. INSTR misses = 33, DATA misses = 38. Winner = INSTR
[DUEL] Epoch ended. INSTR misses = 8, DATA misses = 5. Winner = DATA
[DUEL] Epoch ended. INSTR misses = 15, DATA misses = 9. Winner = DATA
Heartbeat CPU 0 instructions: 40000000 cycles: 12416878 heartbeat IPC: 1.636 cumulative IPC: 1.636 (Simulation time: 00 hr 02 min 28 sec)
[DUEL] Epoch ended. INSTR misses = 17, DATA misses = 20. Winner = INSTR
[DUEL] Epoch ended. INSTR misses = 30, DATA misses = 20. Winner = DATA
[DUEL] Epoch ended. INSTR misses = 54, DATA misses = 54. Winner = INSTR
[DUEL] Epoch ended. INSTR misses = 8, DATA misses = 18. Winner = INSTR
[DUEL] Epoch ended. INSTR misses = 36, DATA misses = 22. Winner = DATA
[DUEL] Epoch ended. INSTR misses = 40, DATA misses = 38. Winner = DATA
[DUEL] Epoch ended. INSTR misses = 2, DATA misses = 5. Winner = INSTR
[DUEL] Epoch ended. INSTR misses = 49, DATA misses = 43. Winner = DATA
[DUEL] Epoch ended. INSTR misses = 46, DATA misses = 35. Winner = DATA
[DUEL] Epoch ended. INSTR misses = 25, DATA misses = 20. Winner = DATA
[DUEL] Epoch ended. INSTR misses = 35, DATA misses = 51. Winner = INSTR
[DUEL] Epoch ended. INSTR misses = 26, DATA misses = 16. Winner = DATA
[DUEL] Epoch ended. INSTR misses = 23, DATA misses = 16. Winner = DATA
[DUEL] Epoch ended. INSTR misses = 21, DATA misses = 34. Winner = INSTR
[DUEL] Epoch ended. INSTR misses = 2, DATA misses = 2. Winner = INSTR
[DUEL] Epoch ended. INSTR misses = 54, DATA misses = 33. Winner = DATA
[DUEL] Epoch ended. INSTR misses = 29, DATA misses = 27. Winner = DATA
[DUEL] Epoch ended. INSTR misses = 15, DATA misses = 5. Winner = DATA
[DUEL] Epoch ended. INSTR misses = 32, DATA misses = 49. Winner = INSTR
[DUEL] Epoch ended. INSTR misses = 31, DATA misses = 33. Winner = INSTR
[DUEL] Epoch ended. INSTR misses = 58, DATA misses = 38. Winner = DATA
[DUEL] Epoch ended. INSTR misses = 66, DATA misses = 64. Winner = DATA
[DUEL] Epoch ended. INSTR misses = 6, DATA misses = 5. Winner = DATA
[DUEL] Epoch ended. INSTR misses = 62, DATA misses = 76. Winner = INSTR
[DUEL] Epoch ended. INSTR misses = 27, DATA misses = 24. Winner = DATA
[DUEL] Epoch ended. INSTR misses = 35, DATA misses = 16. Winner = DATA
[DUEL] Epoch ended. INSTR misses = 74, DATA misses = 84. Winner = INSTR
[DUEL] Epoch ended. INSTR misses = 37, DATA misses = 30. Winner = DATA
[DUEL] Epoch ended. INSTR misses = 41, DATA misses = 31. Winner = DATA
[DUEL] Epoch ended. INSTR misses = 34, DATA misses = 46. Winner = INSTR
[DUEL] Epoch ended. INSTR misses = 5, DATA misses = 11. Winner = INSTR
[DUEL] Epoch ended. INSTR misses = 36, DATA misses = 17. Winner = DATA
[DUEL] Epoch ended. INSTR misses = 45, DATA misses = 46. Winner = INSTR
[DUEL] Epoch ended. INSTR misses = 9, DATA misses = 5. Winner = DATA
[DUEL] Epoch ended. INSTR misses = 36, DATA misses = 28. Winner = DATA
[DUEL] Epoch ended. INSTR misses = 36, DATA misses = 41. Winner = INSTR
[DUEL] Epoch ended. INSTR misses = 29, DATA misses = 15. Winner = DATA
[DUEL] Epoch ended. INSTR misses = 40, DATA misses = 35. Winner = DATA
[DUEL] Epoch ended. INSTR misses = 5, DATA misses = 4. Winner = DATA
Heartbeat CPU 0 instructions: 50000010 cycles: 18393774 heartbeat IPC: 1.673 cumulative IPC: 1.654 (Simulation time: 00 hr 03 min 26 sec)
[DUEL] Epoch ended. INSTR misses = 29, DATA misses = 29. Winner = INSTR
[DUEL] Epoch ended. INSTR misses = 67, DATA misses = 65. Winner = DATA
[DUEL] Epoch ended. INSTR misses = 18, DATA misses = 6. Winner = DATA
[DUEL] Epoch ended. INSTR misses = 51, DATA misses = 40. Winner = DATA
[DUEL] Epoch ended. INSTR misses = 3, DATA misses = 15. Winner = INSTR
[DUEL] Epoch ended. INSTR misses = 12, DATA misses = 9. Winner = DATA
[DUEL] Epoch ended. INSTR misses = 83, DATA misses = 83. Winner = INSTR
[DUEL] Epoch ended. INSTR misses = 9, DATA misses = 11. Winner = INSTR
[DUEL] Epoch ended. INSTR misses = 45, DATA misses = 35. Winner = DATA
[DUEL] Epoch ended. INSTR misses = 31, DATA misses = 38. Winner = INSTR
[DUEL] Epoch ended. INSTR misses = 22, DATA misses = 12. Winner = DATA
[DUEL] Epoch ended. INSTR misses = 36, DATA misses = 47. Winner = INSTR
[DUEL] Epoch ended. INSTR misses = 25, DATA misses = 28. Winner = INSTR
[DUEL] Epoch ended. INSTR misses = 22, DATA misses = 11. Winner = DATA
[DUEL] Epoch ended. INSTR misses = 30, DATA misses = 68. Winner = INSTR
[DUEL] Epoch ended. INSTR misses = 14, DATA misses = 5. Winner = DATA
[DUEL] Epoch ended. INSTR misses = 63, DATA misses = 55. Winner = DATA
[DUEL] Epoch ended. INSTR misses = 45, DATA misses = 49. Winner = INSTR
[DUEL] Epoch ended. INSTR misses = 3, DATA misses = 4. Winner = INSTR
[DUEL] Epoch ended. INSTR misses = 58, DATA misses = 46. Winner = DATA
[DUEL] Epoch ended. INSTR misses = 11, DATA misses = 15. Winner = INSTR
[DUEL] Epoch ended. INSTR misses = 23, DATA misses = 17. Winner = DATA
[DUEL] Epoch ended. INSTR misses = 21, DATA misses = 25. Winner = INSTR
[DUEL] Epoch ended. INSTR misses = 39, DATA misses = 31. Winner = DATA
[DUEL] Epoch ended. INSTR misses = 40, DATA misses = 30. Winner = DATA
[DUEL] Epoch ended. INSTR misses = 33, DATA misses = 45. Winner = INSTR
[DUEL] Epoch ended. INSTR misses = 17, DATA misses = 0. Winner = DATA
[DUEL] Epoch ended. INSTR misses = 36, DATA misses = 35. Winner = DATA
[DUEL] Epoch ended. INSTR misses = 29, DATA misses = 42. Winner = INSTR
[DUEL] Epoch ended. INSTR misses = 22, DATA misses = 28. Winner = INSTR
[DUEL] Epoch ended. INSTR misses = 35, DATA misses = 22. Winner = DATA
[DUEL] Epoch ended. INSTR misses = 38, DATA misses = 36. Winner = DATA
[DUEL] Epoch ended. INSTR misses = 61, DATA misses = 53. Winner = DATA
[DUEL] Epoch ended. INSTR misses = 36, DATA misses = 28. Winner = DATA
[DUEL] Epoch ended. INSTR misses = 7, DATA misses = 5. Winner = DATA
[DUEL] Epoch ended. INSTR misses = 30, DATA misses = 40. Winner = INSTR
[DUEL] Epoch ended. INSTR misses = 10, DATA misses = 17. Winner = INSTR
[DUEL] Epoch ended. INSTR misses = 26, DATA misses = 51. Winner = INSTR
[DUEL] Epoch ended. INSTR misses = 48, DATA misses = 38. Winner = DATA
Heartbeat CPU 0 instructions: 60000002 cycles: 24418607 heartbeat IPC: 1.66 cumulative IPC: 1.656 (Simulation time: 00 hr 04 min 23 sec)
[DUEL] Epoch ended. INSTR misses = 53, DATA misses = 41. Winner = DATA
[DUEL] Epoch ended. INSTR misses = 50, DATA misses = 47. Winner = DATA
[DUEL] Epoch ended. INSTR misses = 52, DATA misses = 47. Winner = DATA
[DUEL] Epoch ended. INSTR misses = 43, DATA misses = 32. Winner = DATA
[DUEL] Epoch ended. INSTR misses = 44, DATA misses = 46. Winner = INSTR
[DUEL] Epoch ended. INSTR misses = 1, DATA misses = 2. Winner = INSTR
[DUEL] Epoch ended. INSTR misses = 54, DATA misses = 58. Winner = INSTR
[DUEL] Epoch ended. INSTR misses = 35, DATA misses = 24. Winner = DATA
[DUEL] Epoch ended. INSTR misses = 50, DATA misses = 42. Winner = DATA
[DUEL] Epoch ended. INSTR misses = 62, DATA misses = 65. Winner = INSTR
[DUEL] Epoch ended. INSTR misses = 14, DATA misses = 15. Winner = INSTR
[DUEL] Epoch ended. INSTR misses = 39, DATA misses = 32. Winner = DATA
[DUEL] Epoch ended. INSTR misses = 84, DATA misses = 83. Winner = DATA
[DUEL] Epoch ended. INSTR misses = 12, DATA misses = 11. Winner = DATA
[DUEL] Epoch ended. INSTR misses = 60, DATA misses = 52. Winner = DATA
[DUEL] Epoch ended. INSTR misses = 28, DATA misses = 28. Winner = INSTR
[DUEL] Epoch ended. INSTR misses = 13, DATA misses = 4. Winner = DATA
*** Reached end of trace: (0, "../traces/public_traces/srv/srv_37.champsimtrace.xz")
[DUEL] Epoch ended. INSTR misses = 52, DATA misses = 58. Winner = INSTR
[DUEL] Epoch ended. INSTR misses = 52, DATA misses = 33. Winner = DATA
[DUEL] Epoch ended. INSTR misses = 11, DATA misses = 8. Winner = DATA
[DUEL] Epoch ended. INSTR misses = 45, DATA misses = 34. Winner = DATA
[DUEL] Epoch ended. INSTR misses = 37, DATA misses = 23. Winner = DATA
[DUEL] Epoch ended. INSTR misses = 30, DATA misses = 19. Winner = DATA
[DUEL] Epoch ended. INSTR misses = 43, DATA misses = 32. Winner = DATA
[DUEL] Epoch ended. INSTR misses = 14, DATA misses = 15. Winner = INSTR
[DUEL] Epoch ended. INSTR misses = 55, DATA misses = 39. Winner = DATA
[DUEL] Epoch ended. INSTR misses = 91, DATA misses = 79. Winner = DATA
[DUEL] Epoch ended. INSTR misses = 14, DATA misses = 5. Winner = DATA
[DUEL] Epoch ended. INSTR misses = 46, DATA misses = 56. Winner = INSTR
[DUEL] Epoch ended. INSTR misses = 24, DATA misses = 33. Winner = INSTR
[DUEL] Epoch ended. INSTR misses = 31, DATA misses = 18. Winner = DATA
[DUEL] Epoch ended. INSTR misses = 51, DATA misses = 59. Winner = INSTR
[DUEL] Epoch ended. INSTR misses = 20, DATA misses = 0. Winner = DATA
[DUEL] Epoch ended. INSTR misses = 51, DATA misses = 47. Winner = DATA
[DUEL] Epoch ended. INSTR misses = 37, DATA misses = 37. Winner = INSTR
[DUEL] Epoch ended. INSTR misses = 5, DATA misses = 3. Winner = DATA
[DUEL] Epoch ended. INSTR misses = 29, DATA misses = 20. Winner = DATA
[DUEL] Epoch ended. INSTR misses = 28, DATA misses = 30. Winner = INSTR
[DUEL] Epoch ended. INSTR misses = 28, DATA misses = 25. Winner = DATA
Heartbeat CPU 0 instructions: 70000005 cycles: 30242680 heartbeat IPC: 1.717 cumulative IPC: 1.671 (Simulation time: 00 hr 05 min 20 sec)
[DUEL] Epoch ended. INSTR misses = 68, DATA misses = 77. Winner = INSTR
[DUEL] Epoch ended. INSTR misses = 11, DATA misses = 11. Winner = INSTR
[DUEL] Epoch ended. INSTR misses = 94, DATA misses = 90. Winner = DATA
[DUEL] Epoch ended. INSTR misses = 55, DATA misses = 43. Winner = DATA
[DUEL] Epoch ended. INSTR misses = 15, DATA misses = 3. Winner = DATA
[DUEL] Epoch ended. INSTR misses = 50, DATA misses = 71. Winner = INSTR
[DUEL] Epoch ended. INSTR misses = 7, DATA misses = 9. Winner = INSTR
[DUEL] Epoch ended. INSTR misses = 17, DATA misses = 9. Winner = DATA
[DUEL] Epoch ended. INSTR misses = 21, DATA misses = 26. Winner = INSTR
[DUEL] Epoch ended. INSTR misses = 1, DATA misses = 0. Winner = DATA
[DUEL] Epoch ended. INSTR misses = 35, DATA misses = 20. Winner = DATA
[DUEL] Epoch ended. INSTR misses = 47, DATA misses = 63. Winner = INSTR
[DUEL] Epoch ended. INSTR misses = 8, DATA misses = 7. Winner = DATA
[DUEL] Epoch ended. INSTR misses = 51, DATA misses = 44. Winner = DATA
[DUEL] Epoch ended. INSTR misses = 19, DATA misses = 17. Winner = DATA
[DUEL] Epoch ended. INSTR misses = 11, DATA misses = 12. Winner = INSTR
[DUEL] Epoch ended. INSTR misses = 71, DATA misses = 60. Winner = DATA
[DUEL] Epoch ended. INSTR misses = 16, DATA misses = 9. Winner = DATA
[DUEL] Epoch ended. INSTR misses = 41, DATA misses = 46. Winner = INSTR
[DUEL] Epoch ended. INSTR misses = 36, DATA misses = 36. Winner = INSTR
[DUEL] Epoch ended. INSTR misses = 6, DATA misses = 0. Winner = DATA
[DUEL] Epoch ended. INSTR misses = 20, DATA misses = 21. Winner = INSTR
[DUEL] Epoch ended. INSTR misses = 20, DATA misses = 31. Winner = INSTR
[DUEL] Epoch ended. INSTR misses = 51, DATA misses = 32. Winner = DATA
[DUEL] Epoch ended. INSTR misses = 1, DATA misses = 9. Winner = INSTR
[DUEL] Epoch ended. INSTR misses = 26, DATA misses = 21. Winner = DATA
[DUEL] Epoch ended. INSTR misses = 39, DATA misses = 30. Winner = DATA
[DUEL] Epoch ended. INSTR misses = 34, DATA misses = 46. Winner = INSTR
[DUEL] Epoch ended. INSTR misses = 2, DATA misses = 7. Winner = INSTR
[DUEL] Epoch ended. INSTR misses = 69, DATA misses = 61. Winner = DATA
[DUEL] Epoch ended. INSTR misses = 51, DATA misses = 41. Winner = DATA
[DUEL] Epoch ended. INSTR misses = 31, DATA misses = 29. Winner = DATA
[DUEL] Epoch ended. INSTR misses = 36, DATA misses = 52. Winner = INSTR
[DUEL] Epoch ended. INSTR misses = 34, DATA misses = 27. Winner = DATA
[DUEL] Epoch ended. INSTR misses = 48, DATA misses = 44. Winner = DATA
[DUEL] Epoch ended. INSTR misses = 89, DATA misses = 77. Winner = DATA
[DUEL] Epoch ended. INSTR misses = 3, DATA misses = 4. Winner = INSTR
[DUEL] Epoch ended. INSTR misses = 44, DATA misses = 50. Winner = INSTR
[DUEL] Epoch ended. INSTR misses = 30, DATA misses = 26. Winner = DATA
Heartbeat CPU 0 instructions: 80000001 cycles: 36205209 heartbeat IPC: 1.677 cumulative IPC: 1.672 (Simulation time: 00 hr 06 min 18 sec)
[DUEL] Epoch ended. INSTR misses = 15, DATA misses = 8. Winner = DATA
[DUEL] Epoch ended. INSTR misses = 40, DATA misses = 32. Winner = DATA
[DUEL] Epoch ended. INSTR misses = 27, DATA misses = 31. Winner = INSTR
[DUEL] Epoch ended. INSTR misses = 10, DATA misses = 5. Winner = DATA
[DUEL] Epoch ended. INSTR misses = 65, DATA misses = 65. Winner = INSTR
[DUEL] Epoch ended. INSTR misses = 1, DATA misses = 3. Winner = INSTR
[DUEL] Epoch ended. INSTR misses = 32, DATA misses = 16. Winner = DATA
[DUEL] Epoch ended. INSTR misses = 36, DATA misses = 36. Winner = INSTR
[DUEL] Epoch ended. INSTR misses = 4, DATA misses = 7. Winner = INSTR
[DUEL] Epoch ended. INSTR misses = 60, DATA misses = 59. Winner = DATA
[DUEL] Epoch ended. INSTR misses = 33, DATA misses = 33. Winner = INSTR
[DUEL] Epoch ended. INSTR misses = 54, DATA misses = 41. Winner = DATA
[DUEL] Epoch ended. INSTR misses = 5, DATA misses = 14. Winner = INSTR
[DUEL] Epoch ended. INSTR misses = 0, DATA misses = 2. Winner = INSTR
[DUEL] Epoch ended. INSTR misses = 58, DATA misses = 63. Winner = INSTR
[DUEL] Epoch ended. INSTR misses = 36, DATA misses = 33. Winner = DATA
[DUEL] Epoch ended. INSTR misses = 14, DATA misses = 6. Winner = DATA
[DUEL] Epoch ended. INSTR misses = 55, DATA misses = 61. Winner = INSTR
[DUEL] Epoch ended. INSTR misses = 13, DATA misses = 11. Winner = DATA
[DUEL] Epoch ended. INSTR misses = 42, DATA misses = 35. Winner = DATA
[DUEL] Epoch ended. INSTR misses = 36, DATA misses = 45. Winner = INSTR
[DUEL] Epoch ended. INSTR misses = 12, DATA misses = 15. Winner = INSTR
[DUEL] Epoch ended. INSTR misses = 32, DATA misses = 35. Winner = INSTR
[DUEL] Epoch ended. INSTR misses = 32, DATA misses = 42. Winner = INSTR
[DUEL] Epoch ended. INSTR misses = 8, DATA misses = 1. Winner = DATA
[DUEL] Epoch ended. INSTR misses = 84, DATA misses = 75. Winner = DATA
[DUEL] Epoch ended. INSTR misses = 23, DATA misses = 26. Winner = INSTR
[DUEL] Epoch ended. INSTR misses = 30, DATA misses = 17. Winner = DATA
[DUEL] Epoch ended. INSTR misses = 34, DATA misses = 34. Winner = INSTR
[DUEL] Epoch ended. INSTR misses = 4, DATA misses = 10. Winner = INSTR
[DUEL] Epoch ended. INSTR misses = 23, DATA misses = 18. Winner = DATA
[DUEL] Epoch ended. INSTR misses = 54, DATA misses = 47. Winner = DATA
[DUEL] Epoch ended. INSTR misses = 10, DATA misses = 7. Winner = DATA
[DUEL] Epoch ended. INSTR misses = 53, DATA misses = 47. Winner = DATA
[DUEL] Epoch ended. INSTR misses = 27, DATA misses = 27. Winner = INSTR
[DUEL] Epoch ended. INSTR misses = 17, DATA misses = 6. Winner = DATA
[DUEL] Epoch ended. INSTR misses = 31, DATA misses = 45. Winner = INSTR
[DUEL] Epoch ended. INSTR misses = 24, DATA misses = 25. Winner = INSTR
[DUEL] Epoch ended. INSTR misses = 55, DATA misses = 42. Winner = DATA
Heartbeat CPU 0 instructions: 90000010 cycles: 42145584 heartbeat IPC: 1.683 cumulative IPC: 1.674 (Simulation time: 00 hr 07 min 15 sec)
[DUEL] Epoch ended. INSTR misses = 13, DATA misses = 16. Winner = INSTR
[DUEL] Epoch ended. INSTR misses = 42, DATA misses = 29. Winner = DATA
[DUEL] Epoch ended. INSTR misses = 61, DATA misses = 51. Winner = DATA
[DUEL] Epoch ended. INSTR misses = 34, DATA misses = 28. Winner = DATA
[DUEL] Epoch ended. INSTR misses = 11, DATA misses = 21. Winner = INSTR
[DUEL] Epoch ended. INSTR misses = 18, DATA misses = 19. Winner = INSTR
[DUEL] Epoch ended. INSTR misses = 32, DATA misses = 44. Winner = INSTR
[DUEL] Epoch ended. INSTR misses = 32, DATA misses = 26. Winner = DATA
[DUEL] Epoch ended. INSTR misses = 58, DATA misses = 52. Winner = DATA
[DUEL] Epoch ended. INSTR misses = 16, DATA misses = 9. Winner = DATA
[DUEL] Epoch ended. INSTR misses = 63, DATA misses = 63. Winner = INSTR
[DUEL] Epoch ended. INSTR misses = 40, DATA misses = 34. Winner = DATA
[DUEL] Epoch ended. INSTR misses = 45, DATA misses = 30. Winner = DATA
[DUEL] Epoch ended. INSTR misses = 45, DATA misses = 43. Winner = DATA
[DUEL] Epoch ended. INSTR misses = 31, DATA misses = 22. Winner = DATA
[DUEL] Epoch ended. INSTR misses = 44, DATA misses = 55. Winner = INSTR
[DUEL] Epoch ended. INSTR misses = 21, DATA misses = 15. Winner = DATA
[DUEL] Epoch ended. INSTR misses = 82, DATA misses = 79. Winner = DATA
[DUEL] Epoch ended. INSTR misses = 41, DATA misses = 36. Winner = DATA
[DUEL] Epoch ended. INSTR misses = 16, DATA misses = 1. Winner = DATA
[DUEL] Epoch ended. INSTR misses = 84, DATA misses = 88. Winner = INSTR
[DUEL] Epoch ended. INSTR misses = 31, DATA misses = 29. Winner = DATA
[DUEL] Epoch ended. INSTR misses = 34, DATA misses = 15. Winner = DATA
[DUEL] Epoch ended. INSTR misses = 53, DATA misses = 71. Winner = INSTR
[DUEL] Epoch ended. INSTR misses = 14, DATA misses = 6. Winner = DATA
*** Reached end of trace: (0, "../traces/public_traces/srv/srv_37.champsimtrace.xz")
[DUEL] Epoch ended. INSTR misses = 58, DATA misses = 53. Winner = DATA
[DUEL] Epoch ended. INSTR misses = 51, DATA misses = 37. Winner = DATA
[DUEL] Epoch ended. INSTR misses = 18, DATA misses = 16. Winner = DATA
[DUEL] Epoch ended. INSTR misses = 19, DATA misses = 20. Winner = INSTR
[DUEL] Epoch ended. INSTR misses = 62, DATA misses = 37. Winner = DATA
[DUEL] Epoch ended. INSTR misses = 3, DATA misses = 3. Winner = INSTR
[DUEL] Epoch ended. INSTR misses = 41, DATA misses = 30. Winner = DATA
[DUEL] Epoch ended. INSTR misses = 38, DATA misses = 24. Winner = DATA
[DUEL] Epoch ended. INSTR misses = 10, DATA misses = 11. Winner = INSTR
[DUEL] Epoch ended. INSTR misses = 97, DATA misses = 86. Winner = DATA
[DUEL] Epoch ended. INSTR misses = 45, DATA misses = 32. Winner = DATA
[DUEL] Epoch ended. INSTR misses = 39, DATA misses = 25. Winner = DATA
[DUEL] Epoch ended. INSTR misses = 40, DATA misses = 64. Winner = INSTR
[DUEL] Epoch ended. INSTR misses = 3, DATA misses = 5. Winner = INSTR
Heartbeat CPU 0 instructions: 100000003 cycles: 48023215 heartbeat IPC: 1.701 cumulative IPC: 1.678 (Simulation time: 00 hr 08 min 12 sec)
[DUEL] Epoch ended. INSTR misses = 51, DATA misses = 33. Winner = DATA
[DUEL] Epoch ended. INSTR misses = 52, DATA misses = 42. Winner = DATA
[DUEL] Epoch ended. INSTR misses = 18, DATA misses = 15. Winner = DATA
[DUEL] Epoch ended. INSTR misses = 52, DATA misses = 54. Winner = INSTR
[DUEL] Epoch ended. INSTR misses = 16, DATA misses = 16. Winner = INSTR
[DUEL] Epoch ended. INSTR misses = 36, DATA misses = 15. Winner = DATA
[DUEL] Epoch ended. INSTR misses = 30, DATA misses = 35. Winner = INSTR
[DUEL] Epoch ended. INSTR misses = 0, DATA misses = 3. Winner = INSTR
[DUEL] Epoch ended. INSTR misses = 71, DATA misses = 71. Winner = INSTR
[DUEL] Epoch ended. INSTR misses = 40, DATA misses = 35. Winner = DATA
[DUEL] Epoch ended. INSTR misses = 32, DATA misses = 22. Winner = DATA
[DUEL] Epoch ended. INSTR misses = 82, DATA misses = 94. Winner = INSTR
[DUEL] Epoch ended. INSTR misses = 41, DATA misses = 23. Winner = DATA
[DUEL] Epoch ended. INSTR misses = 25, DATA misses = 7. Winner = DATA
[DUEL] Epoch ended. INSTR misses = 49, DATA misses = 70. Winner = INSTR
[DUEL] Epoch ended. INSTR misses = 9, DATA misses = 12. Winner = INSTR
[DUEL] Epoch ended. INSTR misses = 22, DATA misses = 2. Winner = DATA
[DUEL] Epoch ended. INSTR misses = 22, DATA misses = 27. Winner = INSTR
[DUEL] Epoch ended. INSTR misses = 32, DATA misses = 18. Winner = DATA
[DUEL] Epoch ended. INSTR misses = 16, DATA misses = 11. Winner = DATA
[DUEL] Epoch ended. INSTR misses = 46, DATA misses = 59. Winner = INSTR
[DUEL] Epoch ended. INSTR misses = 19, DATA misses = 19. Winner = INSTR
[DUEL] Epoch ended. INSTR misses = 57, DATA misses = 41. Winner = DATA
[DUEL] Epoch ended. INSTR misses = 6, DATA misses = 3. Winner = DATA
[DUEL] Epoch ended. INSTR misses = 39, DATA misses = 30. Winner = DATA
[DUEL] Epoch ended. INSTR misses = 60, DATA misses = 49. Winner = DATA
[DUEL] Epoch ended. INSTR misses = 20, DATA misses = 20. Winner = INSTR
[DUEL] Epoch ended. INSTR misses = 46, DATA misses = 54. Winner = INSTR
[DUEL] Epoch ended. INSTR misses = 26, DATA misses = 15. Winner = DATA
[DUEL] Epoch ended. INSTR misses = 18, DATA misses = 3. Winner = DATA
[DUEL] Epoch ended. INSTR misses = 27, DATA misses = 46. Winner = INSTR
[DUEL] Epoch ended. INSTR misses = 1, DATA misses = 3. Winner = INSTR
[DUEL] Epoch ended. INSTR misses = 54, DATA misses = 33. Winner = DATA
[DUEL] Epoch ended. INSTR misses = 26, DATA misses = 27. Winner = INSTR
[DUEL] Epoch ended. INSTR misses = 12, DATA misses = 3. Winner = DATA
[DUEL] Epoch ended. INSTR misses = 37, DATA misses = 46. Winner = INSTR
[DUEL] Epoch ended. INSTR misses = 31, DATA misses = 31. Winner = INSTR
[DUEL] Epoch ended. INSTR misses = 22, DATA misses = 21. Winner = DATA
[DUEL] Epoch ended. INSTR misses = 73, DATA misses = 68. Winner = DATA
Heartbeat CPU 0 instructions: 110000005 cycles: 54046993 heartbeat IPC: 1.66 cumulative IPC: 1.676 (Simulation time: 00 hr 09 min 10 sec)
[DUEL] Epoch ended. INSTR misses = 35, DATA misses = 16. Winner = DATA
[DUEL] Epoch ended. INSTR misses = 52, DATA misses = 62. Winner = INSTR
[DUEL] Epoch ended. INSTR misses = 47, DATA misses = 41. Winner = DATA
[DUEL] Epoch ended. INSTR misses = 15, DATA misses = 11. Winner = DATA
[DUEL] Epoch ended. INSTR misses = 74, DATA misses = 75. Winner = INSTR
[DUEL] Epoch ended. INSTR misses = 58, DATA misses = 44. Winner = DATA
[DUEL] Epoch ended. INSTR misses = 15, DATA misses = 7. Winner = DATA
[DUEL] Epoch ended. INSTR misses = 58, DATA misses = 63. Winner = INSTR
[DUEL] Epoch ended. INSTR misses = 8, DATA misses = 13. Winner = INSTR
[DUEL] Epoch ended. INSTR misses = 37, DATA misses = 19. Winner = DATA
[DUEL] Epoch ended. INSTR misses = 47, DATA misses = 47. Winner = INSTR
[DUEL] Epoch ended. INSTR misses = 1, DATA misses = 0. Winner = DATA
[DUEL] Epoch ended. INSTR misses = 22, DATA misses = 22. Winner = INSTR
[DUEL] Epoch ended. INSTR misses = 52, DATA misses = 48. Winner = DATA
[DUEL] Epoch ended. INSTR misses = 7, DATA misses = 2. Winner = DATA
[DUEL] Epoch ended. INSTR misses = 35, DATA misses = 29. Winner = DATA
[DUEL] Epoch ended. INSTR misses = 32, DATA misses = 24. Winner = DATA
[DUEL] Epoch ended. INSTR misses = 25, DATA misses = 29. Winner = INSTR
[DUEL] Epoch ended. INSTR misses = 69, DATA misses = 64. Winner = DATA
[DUEL] Epoch ended. INSTR misses = 4, DATA misses = 6. Winner = INSTR
[DUEL] Epoch ended. INSTR misses = 56, DATA misses = 41. Winner = DATA
[DUEL] Epoch ended. INSTR misses = 9, DATA misses = 16. Winner = INSTR
[DUEL] Epoch ended. INSTR misses = 11, DATA misses = 3. Winner = DATA
[DUEL] Epoch ended. INSTR misses = 75, DATA misses = 84. Winner = INSTR
[DUEL] Epoch ended. INSTR misses = 9, DATA misses = 13. Winner = INSTR
[DUEL] Epoch ended. INSTR misses = 29, DATA misses = 17. Winner = DATA
[DUEL] Epoch ended. INSTR misses = 56, DATA misses = 55. Winner = DATA
[DUEL] Epoch ended. INSTR misses = 0, DATA misses = 1. Winner = INSTR
[DUEL] Epoch ended. INSTR misses = 56, DATA misses = 62. Winner = INSTR
[DUEL] Epoch ended. INSTR misses = 29, DATA misses = 30. Winner = INSTR
[DUEL] Epoch ended. INSTR misses = 19, DATA misses = 10. Winner = DATA
[DUEL] Epoch ended. INSTR misses = 36, DATA misses = 59. Winner = INSTR
[DUEL] Epoch ended. INSTR misses = 16, DATA misses = 13. Winner = DATA
[DUEL] Epoch ended. INSTR misses = 51, DATA misses = 41. Winner = DATA
[DUEL] Epoch ended. INSTR misses = 60, DATA misses = 56. Winner = DATA
[DUEL] Epoch ended. INSTR misses = 2, DATA misses = 3. Winner = INSTR
[DUEL] Epoch ended. INSTR misses = 56, DATA misses = 43. Winner = DATA
[DUEL] Epoch ended. INSTR misses = 13, DATA misses = 15. Winner = INSTR
[DUEL] Epoch ended. INSTR misses = 5, DATA misses = 0. Winner = DATA
Heartbeat CPU 0 instructions: 120000011 cycles: 59956508 heartbeat IPC: 1.692 cumulative IPC: 1.677 (Simulation time: 00 hr 10 min 07 sec)
[DUEL] Epoch ended. INSTR misses = 40, DATA misses = 32. Winner = DATA
[DUEL] Epoch ended. INSTR misses = 35, DATA misses = 30. Winner = DATA
[DUEL] Epoch ended. INSTR misses = 36, DATA misses = 27. Winner = DATA
[DUEL] Epoch ended. INSTR misses = 40, DATA misses = 48. Winner = INSTR
[DUEL] Epoch ended. INSTR misses = 15, DATA misses = 0. Winner = DATA
[DUEL] Epoch ended. INSTR misses = 33, DATA misses = 27. Winner = DATA
[DUEL] Epoch ended. INSTR misses = 12, DATA misses = 30. Winner = INSTR
[DUEL] Epoch ended. INSTR misses = 37, DATA misses = 39. Winner = INSTR
[DUEL] Epoch ended. INSTR misses = 41, DATA misses = 27. Winner = DATA
[DUEL] Epoch ended. INSTR misses = 37, DATA misses = 37. Winner = INSTR
[DUEL] Epoch ended. INSTR misses = 41, DATA misses = 24. Winner = DATA
[DUEL] Epoch ended. INSTR misses = 60, DATA misses = 43. Winner = DATA
[DUEL] Epoch ended. INSTR misses = 7, DATA misses = 12. Winner = INSTR
[DUEL] Epoch ended. INSTR misses = 29, DATA misses = 36. Winner = INSTR
[DUEL] Epoch ended. INSTR misses = 12, DATA misses = 15. Winner = INSTR
[DUEL] Epoch ended. INSTR misses = 19, DATA misses = 35. Winner = INSTR
[DUEL] Epoch ended. INSTR misses = 49, DATA misses = 42. Winner = DATA
[DUEL] Epoch ended. INSTR misses = 55, DATA misses = 36. Winner = DATA
[DUEL] Epoch ended. INSTR misses = 43, DATA misses = 47. Winner = INSTR
[DUEL] Epoch ended. INSTR misses = 50, DATA misses = 43. Winner = DATA
[DUEL] Epoch ended. INSTR misses = 15, DATA misses = 9. Winner = DATA
[DUEL] Epoch ended. INSTR misses = 45, DATA misses = 50. Winner = INSTR
[DUEL] Epoch ended. INSTR misses = 29, DATA misses = 22. Winner = DATA
[DUEL] Epoch ended. INSTR misses = 52, DATA misses = 53. Winner = INSTR
[DUEL] Epoch ended. INSTR misses = 38, DATA misses = 29. Winner = DATA
[DUEL] Epoch ended. INSTR misses = 17, DATA misses = 10. Winner = DATA
[DUEL] Epoch ended. INSTR misses = 73, DATA misses = 81. Winner = INSTR
[DUEL] Epoch ended. INSTR misses = 38, DATA misses = 31. Winner = DATA
[DUEL] Epoch ended. INSTR misses = 43, DATA misses = 33. Winner = DATA
[DUEL] Epoch ended. INSTR misses = 56, DATA misses = 55. Winner = DATA
[DUEL] Epoch ended. INSTR misses = 41, DATA misses = 36. Winner = DATA
[DUEL] Epoch ended. INSTR misses = 58, DATA misses = 51. Winner = DATA
[DUEL] Epoch ended. INSTR misses = 27, DATA misses = 31. Winner = INSTR
[DUEL] Epoch ended. INSTR misses = 11, DATA misses = 1. Winner = DATA
*** Reached end of trace: (0, "../traces/public_traces/srv/srv_37.champsimtrace.xz")
[DUEL] Epoch ended. INSTR misses = 56, DATA misses = 65. Winner = INSTR
[DUEL] Epoch ended. INSTR misses = 52, DATA misses = 32. Winner = DATA
[DUEL] Epoch ended. INSTR misses = 9, DATA misses = 9. Winner = INSTR
[DUEL] Epoch ended. INSTR misses = 34, DATA misses = 29. Winner = DATA
[DUEL] Epoch ended. INSTR misses = 50, DATA misses = 30. Winner = DATA
Heartbeat CPU 0 instructions: 130000002 cycles: 65957928 heartbeat IPC: 1.666 cumulative IPC: 1.676 (Simulation time: 00 hr 11 min 05 sec)
Simulation finished CPU 0 instructions: 100000007 cycles: 59654972 cumulative IPC: 1.676 (Simulation time: 00 hr 11 min 05 sec)
Simulation complete CPU 0 instructions: 100000007 cycles: 59654972 cumulative IPC: 1.676 (Simulation time: 00 hr 11 min 05 sec)

ChampSim completed all CPUs

=== Simulation ===
CPU 0 runs ../traces/public_traces/srv/srv_37.champsimtrace.xz
Region of Interest Statistics

CPU 0 cumulative IPC: 1.676 instructions: 100000007 cycles: 59654972
CPU 0 Branch Prediction Accuracy: 99.87% MPKI: 0.2023 Average ROB Occupancy at Mispredict: 203.7
Branch type MPKI
BRANCH_DIRECT_JUMP: 0.00048
BRANCH_INDIRECT: 0.148
BRANCH_CONDITIONAL: 0.0494
BRANCH_DIRECT_CALL: 0.0015
BRANCH_INDIRECT_CALL: 0.00012
BRANCH_RETURN: 0.00245

LLC TOTAL        ACCESS:    4722619 HIT:    2054105 MISS:    2668514
LLC LOAD         ACCESS:     477897 HIT:     368276 MISS:     109621
LLC RFO          ACCESS:    1596134 HIT:     425999 MISS:    1170135
LLC PREFETCH     ACCESS:     811057 HIT:     337552 MISS:     473505
LLC WRITE        ACCESS:    1823946 HIT:     921533 MISS:     902413
LLC TRANSLATION  ACCESS:      13585 HIT:        745 MISS:      12840
LLC PREFETCH REQUESTED:          0 ISSUED:          0 USEFUL:          0 USELESS:          0
LLC AVERAGE MISS LATENCY: 204.3 cycles
cpu0_DTLB TOTAL        ACCESS:   18613140 HIT:   17571300 MISS:    1041840
cpu0_DTLB LOAD         ACCESS:   18613140 HIT:   17571300 MISS:    1041840
cpu0_DTLB RFO          ACCESS:          0 HIT:          0 MISS:          0
cpu0_DTLB PREFETCH     ACCESS:          0 HIT:          0 MISS:          0
cpu0_DTLB WRITE        ACCESS:          0 HIT:          0 MISS:          0
cpu0_DTLB TRANSLATION  ACCESS:          0 HIT:          0 MISS:          0
cpu0_DTLB PREFETCH REQUESTED:          0 ISSUED:          0 USEFUL:          0 USELESS:          0
cpu0_DTLB AVERAGE MISS LATENCY: 8.635 cycles
cpu0_ITLB TOTAL        ACCESS:   14476165 HIT:   14454163 MISS:      22002
cpu0_ITLB LOAD         ACCESS:   14476165 HIT:   14454163 MISS:      22002
cpu0_ITLB RFO          ACCESS:          0 HIT:          0 MISS:          0
cpu0_ITLB PREFETCH     ACCESS:          0 HIT:          0 MISS:          0
cpu0_ITLB WRITE        ACCESS:          0 HIT:          0 MISS:          0
cpu0_ITLB TRANSLATION  ACCESS:          0 HIT:          0 MISS:          0
cpu0_ITLB PREFETCH REQUESTED:          0 ISSUED:          0 USEFUL:          0 USELESS:          0
cpu0_ITLB AVERAGE MISS LATENCY: 26.1 cycles
cpu0_L1D TOTAL        ACCESS:   34110693 HIT:   20795155 MISS:   13315538
cpu0_L1D LOAD         ACCESS:   13336092 HIT:   10477942 MISS:    2858150
cpu0_L1D RFO          ACCESS:          0 HIT:          0 MISS:          0
cpu0_L1D PREFETCH     ACCESS:    3713404 HIT:    1320144 MISS:    2393260
cpu0_L1D WRITE        ACCESS:   17026415 HIT:    8984011 MISS:    8042404
cpu0_L1D TRANSLATION  ACCESS:      34782 HIT:      13058 MISS:      21724
cpu0_L1D PREFETCH REQUESTED:    9366259 ISSUED:    3713404 USEFUL:     370353 USELESS:      55861
cpu0_L1D AVERAGE MISS LATENCY: 39.91 cycles
cpu0_L1I TOTAL        ACCESS:   21065583 HIT:   14710668 MISS:    6354915
cpu0_L1I LOAD         ACCESS:   11137081 HIT:    6275946 MISS:    4861135
cpu0_L1I RFO          ACCESS:          0 HIT:          0 MISS:          0
cpu0_L1I PREFETCH     ACCESS:    9928502 HIT:    8434722 MISS:    1493780
cpu0_L1I WRITE        ACCESS:          0 HIT:          0 MISS:          0
cpu0_L1I TRANSLATION  ACCESS:          0 HIT:          0 MISS:          0
cpu0_L1I PREFETCH REQUESTED:   33219314 ISSUED:    9928535 USEFUL:    1201898 USELESS:     146030
cpu0_L1I AVERAGE MISS LATENCY: 9.428 cycles
cpu0_L2C TOTAL        ACCESS:   17178583 HIT:   12354086 MISS:    4824497
cpu0_L2C LOAD         ACCESS:    4548489 HIT:    4012327 MISS:     536162
cpu0_L2C RFO          ACCESS:    1835561 HIT:     239026 MISS:    1596535
cpu0_L2C PREFETCH     ACCESS:    8576023 HIT:    5897826 MISS:    2678197
cpu0_L2C WRITE        ACCESS:    2196947 HIT:    2196929 MISS:         18
cpu0_L2C TRANSLATION  ACCESS:      21563 HIT:       7978 MISS:      13585
cpu0_L2C PREFETCH REQUESTED:    7773198 ISSUED:    5353338 USEFUL:      96639 USELESS:     179937
cpu0_L2C AVERAGE MISS LATENCY: 123.5 cycles
cpu0_STLB TOTAL        ACCESS:     512787 HIT:     481854 MISS:      30933
cpu0_STLB LOAD         ACCESS:     512787 HIT:     481854 MISS:      30933
cpu0_STLB RFO          ACCESS:          0 HIT:          0 MISS:          0
cpu0_STLB PREFETCH     ACCESS:          0 HIT:          0 MISS:          0
cpu0_STLB WRITE        ACCESS:          0 HIT:          0 MISS:          0
cpu0_STLB TRANSLATION  ACCESS:          0 HIT:          0 MISS:          0
cpu0_STLB PREFETCH REQUESTED:          0 ISSUED:          0 USEFUL:          0 USELESS:          0
cpu0_STLB AVERAGE MISS LATENCY: 244.3 cycles

DRAM Statistics

Channel 0 RQ ROW_BUFFER_HIT:     398693
  ROW_BUFFER_MISS:     494069
 AVG DBUS CONGESTED CYCLE: 3.95
WQ ROW_BUFFER_HIT: Channel 0 
  ROW_BUFFER_MISS:      51250
  FULL:     555302

Channel 1 RQ ROW_BUFFER_HIT:     398026
  ROW_BUFFER_MISS:     475202
 AVG DBUS CONGESTED CYCLE: 3.948
WQ ROW_BUFFER_HIT: Channel 1 
  ROW_BUFFER_MISS:      53314
  FULL:     539811
BERTI TO_L1: 3727244 TO_L2: 8663965 TO_L2_BC_MSHR: 4046592
BERTI AVG_LAT: 73.9235 NUM_TRACK_LATENCY: 2140833 NUM_CANT_TRACK_LATENCY: 2
BERTI CROSS_PAGE 1602256 NO_CROSS_PAGE: 10788953
BERTI FOUND_BERTI: 3558512 NO_FOUND_BERTI: 15889516
BERTI AVERAGE_ISSUED: 4.83834
CPU 0 L1I Entangling prefetcher final stats
IP accesses: 5cd0 173400 136700 / 11257742
IP misses: 13dd 4f740 20401 / 4981796
IP hits: 0 0 0 / 0
IP late: 9d3d 274f40 8651 / 2091949
IP wrong: 585d 161740 4374 / 139777
miss rate: 0.442522
coverage: 0
coverage_late: 0.419919
accuracy: 0
accuracy_late: 0.937369
discarded: 0
evicts entangled j table: 0
evicts entangled k table: 356327
max bb size: 13
formats: 64220 0 248027 90196 34558 53857 0 
hist_lookups: 47161 132143 233800 301413 283837 254838 178085 140539 132942 125654 99000 65085 43484 23906 6634 0 513 805565 
hist_lookups_evict: 0.017846 %
hist_lookups_shortlat: 28.0236 %
bb_found_hist: 0 2493006 1172439 466969 231816 110937 64577 27923 10781 4911 0 520 0 4455 0 0 0 0 0 0 0 0 0 0 0 0 0 0 0 0 0 0 0 0 0 0 0 0 0 0 0 0 0 0 0 0 0 0 0 0 0 0 0 0 0 0 0 0 0 0 0 0 0 0 
bb_found_summary: 8497745 4588334 1.85204
entangled_found_hist: 0 1193362 741295 2309039 569489 74771 31530 0 
entangled_found_summary: 12444060 4919486 2.52955
bb_ent_found_hist: 0 3820149 2424031 1083176 581601 214127 203814 90934 53162 3430 0 2709 0 17150 0 0 0 0 0 0 0 0 0 0 0 0 0 0 0 0 0 0 0 0 0 0 0 0 0 0 0 0 0 0 0 0 0 0 0 0 0 0 0 0 0 0 0 0 0 0 0 0 0 0 
bb_ent_found_summary: 17883115 8494283 2.10532
