WARNING: physical memory size is smaller than virtual memory size.

*** ChampSim Multicore Out-of-Order Simulator ***
Warmup Instructions: 30000000
Simulation Instructions: 100000000
Number of CPUs: 1
Page size: 4096

BTB:
Basic BTB sets: 1024 ways: 8
Indirect:
history lengths: 0 0 10 16 27 44 60 96 109 219 449 487 714 1313 2146 3881 
ITTAGE tables: 64768 bytes;Region table: 240 bytes;IUM: 384 bytes;Total Storage= 65392 bytes;
RAS:
RAS size: 64
[LLC] INSTR Demand IPV: 1 2 2 1 4 Prefetch IPV: 1 2 1 1 4
[LLC] DATA  Demand IPV: 1 1 1 2 4 Prefetch IPV: 1 1 2 2 4
Berti Prefetcher
CPU 0 Entangling prefetcher
Off-chip DRAM Size: 8 GiB Channels: 2 Width: 64-bit Data Race: 6400 MT/s
[DUEL] Epoch ended. INSTR misses = 81, DATA misses = 78. Winner = DATA
[DUEL] Epoch ended. INSTR misses = 27, DATA misses = 25. Winner = DATA
[DUEL] Epoch ended. INSTR misses = 19, DATA misses = 5. Winner = DATA
[DUEL] Epoch ended. INSTR misses = 58, DATA misses = 57. Winner = DATA
[DUEL] Epoch ended. INSTR misses = 6, DATA misses = 8. Winner = INSTR
[DUEL] Epoch ended. INSTR misses = 56, DATA misses = 49. Winner = DATA
[DUEL] Epoch ended. INSTR misses = 24, DATA misses = 22. Winner = DATA
[DUEL] Epoch ended. INSTR misses = 11, DATA misses = 11. Winner = INSTR
[DUEL] Epoch ended. INSTR misses = 37, DATA misses = 14. Winner = DATA
[DUEL] Epoch ended. INSTR misses = 22, DATA misses = 29. Winner = INSTR
[DUEL] Epoch ended. INSTR misses = 16, DATA misses = 18. Winner = INSTR
[DUEL] Epoch ended. INSTR misses = 98, DATA misses = 92. Winner = DATA
[DUEL] Epoch ended. INSTR misses = 8, DATA misses = 9. Winner = INSTR
[DUEL] Epoch ended. INSTR misses = 64, DATA misses = 63. Winner = DATA
[DUEL] Epoch ended. INSTR misses = 61, DATA misses = 36. Winner = DATA
[DUEL] Epoch ended. INSTR misses = 8, DATA misses = 19. Winner = INSTR
[DUEL] Epoch ended. INSTR misses = 98, DATA misses = 100. Winner = INSTR
[DUEL] Epoch ended. INSTR misses = 6, DATA misses = 15. Winner = INSTR
[DUEL] Epoch ended. INSTR misses = 54, DATA misses = 42. Winner = DATA
[DUEL] Epoch ended. INSTR misses = 43, DATA misses = 27. Winner = DATA
[DUEL] Epoch ended. INSTR misses = 7, DATA misses = 3. Winner = DATA
[DUEL] Epoch ended. INSTR misses = 43, DATA misses = 49. Winner = INSTR
[DUEL] Epoch ended. INSTR misses = 50, DATA misses = 47. Winner = DATA
[DUEL] Epoch ended. INSTR misses = 7, DATA misses = 9. Winner = INSTR
[DUEL] Epoch ended. INSTR misses = 61, DATA misses = 54. Winner = DATA
[DUEL] Epoch ended. INSTR misses = 24, DATA misses = 23. Winner = DATA
[DUEL] Epoch ended. INSTR misses = 24, DATA misses = 26. Winner = INSTR
[DUEL] Epoch ended. INSTR misses = 58, DATA misses = 57. Winner = DATA
[DUEL] Epoch ended. INSTR misses = 7, DATA misses = 11. Winner = INSTR
[DUEL] Epoch ended. INSTR misses = 58, DATA misses = 50. Winner = DATA
[DUEL] Epoch ended. INSTR misses = 54, DATA misses = 46. Winner = DATA
[DUEL] Epoch ended. INSTR misses = 22, DATA misses = 4. Winner = DATA
[DUEL] Epoch ended. INSTR misses = 56, DATA misses = 57. Winner = INSTR
[DUEL] Epoch ended. INSTR misses = 35, DATA misses = 25. Winner = DATA
[DUEL] Epoch ended. INSTR misses = 22, DATA misses = 33. Winner = INSTR
[DUEL] Epoch ended. INSTR misses = 69, DATA misses = 59. Winner = DATA
[DUEL] Epoch ended. INSTR misses = 17, DATA misses = 17. Winner = INSTR
[DUEL] Epoch ended. INSTR misses = 31, DATA misses = 20. Winner = DATA
[DUEL] Epoch ended. INSTR misses = 60, DATA misses = 49. Winner = DATA
Heartbeat CPU 0 instructions: 10000000 cycles: 2110091 heartbeat IPC: 4.739 cumulative IPC: 4.739 (Simulation time: 00 hr 00 min 29 sec)
[DUEL] Epoch ended. INSTR misses = 17, DATA misses = 2. Winner = DATA
[DUEL] Epoch ended. INSTR misses = 57, DATA misses = 71. Winner = INSTR
[DUEL] Epoch ended. INSTR misses = 27, DATA misses = 30. Winner = INSTR
[DUEL] Epoch ended. INSTR misses = 13, DATA misses = 11. Winner = DATA
[DUEL] Epoch ended. INSTR misses = 108, DATA misses = 111. Winner = INSTR
[DUEL] Epoch ended. INSTR misses = 32, DATA misses = 24. Winner = DATA
[DUEL] Epoch ended. INSTR misses = 45, DATA misses = 44. Winner = DATA
[DUEL] Epoch ended. INSTR misses = 71, DATA misses = 69. Winner = DATA
[DUEL] Epoch ended. INSTR misses = 7, DATA misses = 5. Winner = DATA
[DUEL] Epoch ended. INSTR misses = 38, DATA misses = 37. Winner = DATA
[DUEL] Epoch ended. INSTR misses = 33, DATA misses = 35. Winner = INSTR
[DUEL] Epoch ended. INSTR misses = 29, DATA misses = 22. Winner = DATA
[DUEL] Epoch ended. INSTR misses = 67, DATA misses = 65. Winner = DATA
[DUEL] Epoch ended. INSTR misses = 17, DATA misses = 10. Winner = DATA
[DUEL] Epoch ended. INSTR misses = 31, DATA misses = 27. Winner = DATA
[DUEL] Epoch ended. INSTR misses = 99, DATA misses = 87. Winner = DATA
[DUEL] Epoch ended. INSTR misses = 12, DATA misses = 4. Winner = DATA
[DUEL] Epoch ended. INSTR misses = 38, DATA misses = 37. Winner = DATA
[DUEL] Epoch ended. INSTR misses = 44, DATA misses = 52. Winner = INSTR
[DUEL] Epoch ended. INSTR misses = 1, DATA misses = 0. Winner = DATA
[DUEL] Epoch ended. INSTR misses = 55, DATA misses = 56. Winner = INSTR
[DUEL] Epoch ended. INSTR misses = 3, DATA misses = 1. Winner = DATA
[DUEL] Epoch ended. INSTR misses = 4, DATA misses = 7. Winner = INSTR
[DUEL] Epoch ended. INSTR misses = 90, DATA misses = 84. Winner = DATA
[DUEL] Epoch ended. INSTR misses = 5, DATA misses = 1. Winner = DATA
[DUEL] Epoch ended. INSTR misses = 36, DATA misses = 37. Winner = INSTR
[DUEL] Epoch ended. INSTR misses = 41, DATA misses = 39. Winner = DATA
[DUEL] Epoch ended. INSTR misses = 7, DATA misses = 2. Winner = DATA
[DUEL] Epoch ended. INSTR misses = 87, DATA misses = 86. Winner = DATA
[DUEL] Epoch ended. INSTR misses = 21, DATA misses = 25. Winner = INSTR
[DUEL] Epoch ended. INSTR misses = 49, DATA misses = 28. Winner = DATA
[DUEL] Epoch ended. INSTR misses = 54, DATA misses = 45. Winner = DATA
[DUEL] Epoch ended. INSTR misses = 9, DATA misses = 1. Winner = DATA
[DUEL] Epoch ended. INSTR misses = 38, DATA misses = 40. Winner = INSTR
[DUEL] Epoch ended. INSTR misses = 46, DATA misses = 46. Winner = INSTR
[DUEL] Epoch ended. INSTR misses = 12, DATA misses = 4. Winner = DATA
[DUEL] Epoch ended. INSTR misses = 41, DATA misses = 48. Winner = INSTR
[DUEL] Epoch ended. INSTR misses = 52, DATA misses = 45. Winner = DATA
[DUEL] Epoch ended. INSTR misses = 26, DATA misses = 25. Winner = DATA
Heartbeat CPU 0 instructions: 20000000 cycles: 4206519 heartbeat IPC: 4.77 cumulative IPC: 4.755 (Simulation time: 00 hr 00 min 59 sec)
[DUEL] Epoch ended. INSTR misses = 84, DATA misses = 86. Winner = INSTR
[DUEL] Epoch ended. INSTR misses = 11, DATA misses = 12. Winner = INSTR
[DUEL] Epoch ended. INSTR misses = 62, DATA misses = 47. Winner = DATA
[DUEL] Epoch ended. INSTR misses = 43, DATA misses = 42. Winner = DATA
[DUEL] Epoch ended. INSTR misses = 6, DATA misses = 2. Winner = DATA
[DUEL] Epoch ended. INSTR misses = 35, DATA misses = 35. Winner = INSTR
[DUEL] Epoch ended. INSTR misses = 54, DATA misses = 60. Winner = INSTR
[DUEL] Epoch ended. INSTR misses = 8, DATA misses = 9. Winner = INSTR
[DUEL] Epoch ended. INSTR misses = 85, DATA misses = 76. Winner = DATA
[DUEL] Epoch ended. INSTR misses = 1, DATA misses = 4. Winner = INSTR
[DUEL] Epoch ended. INSTR misses = 57, DATA misses = 54. Winner = DATA
[DUEL] Epoch ended. INSTR misses = 62, DATA misses = 46. Winner = DATA
[DUEL] Epoch ended. INSTR misses = 10, DATA misses = 6. Winner = DATA
[DUEL] Epoch ended. INSTR misses = 104, DATA misses = 98. Winner = DATA
[DUEL] Epoch ended. INSTR misses = 48, DATA misses = 51. Winner = INSTR
[DUEL] Epoch ended. INSTR misses = 8, DATA misses = 3. Winner = DATA
[DUEL] Epoch ended. INSTR misses = 47, DATA misses = 44. Winner = DATA
[DUEL] Epoch ended. INSTR misses = 40, DATA misses = 26. Winner = DATA
[DUEL] Epoch ended. INSTR misses = 6, DATA misses = 2. Winner = DATA
[DUEL] Epoch ended. INSTR misses = 95, DATA misses = 90. Winner = DATA
[DUEL] Epoch ended. INSTR misses = 18, DATA misses = 23. Winner = INSTR
[DUEL] Epoch ended. INSTR misses = 6, DATA misses = 2. Winner = DATA
[DUEL] Epoch ended. INSTR misses = 31, DATA misses = 31. Winner = INSTR
[DUEL] Epoch ended. INSTR misses = 51, DATA misses = 50. Winner = DATA
[DUEL] Epoch ended. INSTR misses = 50, DATA misses = 51. Winner = INSTR
[DUEL] Epoch ended. INSTR misses = 43, DATA misses = 39. Winner = DATA
[DUEL] Epoch ended. INSTR misses = 8, DATA misses = 1. Winner = DATA
[DUEL] Epoch ended. INSTR misses = 53, DATA misses = 56. Winner = INSTR
[DUEL] Epoch ended. INSTR misses = 33, DATA misses = 35. Winner = INSTR
[DUEL] Epoch ended. INSTR misses = 7, DATA misses = 5. Winner = DATA
[DUEL] Epoch ended. INSTR misses = 60, DATA misses = 44. Winner = DATA
[DUEL] Epoch ended. INSTR misses = 65, DATA misses = 67. Winner = INSTR
[DUEL] Epoch ended. INSTR misses = 29, DATA misses = 17. Winner = DATA
[DUEL] Epoch ended. INSTR misses = 50, DATA misses = 48. Winner = DATA
[DUEL] Epoch ended. INSTR misses = 18, DATA misses = 14. Winner = DATA
[DUEL] Epoch ended. INSTR misses = 74, DATA misses = 68. Winner = DATA
[DUEL] Epoch ended. INSTR misses = 35, DATA misses = 37. Winner = INSTR
[DUEL] Epoch ended. INSTR misses = 5, DATA misses = 1. Winner = DATA
[DUEL] Epoch ended. INSTR misses = 58, DATA misses = 62. Winner = INSTR
Heartbeat CPU 0 instructions: 30000002 cycles: 6308796 heartbeat IPC: 4.757 cumulative IPC: 4.755 (Simulation time: 00 hr 01 min 29 sec)
Warmup finished CPU 0 instructions: 30000002 cycles: 6308797 cumulative IPC: 4.755 (Simulation time: 00 hr 01 min 29 sec)
Warmup complete CPU 0 instructions: 30000002 cycles: 6308797 cumulative IPC: 4.755 (Simulation time: 00 hr 01 min 29 sec)
[DUEL] Epoch ended. INSTR misses = 36, DATA misses = 16. Winner = DATA
[DUEL] Epoch ended. INSTR misses = 21, DATA misses = 22. Winner = INSTR
[DUEL] Epoch ended. INSTR misses = 57, DATA misses = 47. Winner = DATA
[DUEL] Epoch ended. INSTR misses = 0, DATA misses = 4. Winner = INSTR
[DUEL] Epoch ended. INSTR misses = 15, DATA misses = 15. Winner = INSTR
[DUEL] Epoch ended. INSTR misses = 42, DATA misses = 35. Winner = DATA
[DUEL] Epoch ended. INSTR misses = 0, DATA misses = 3. Winner = INSTR
[DUEL] Epoch ended. INSTR misses = 48, DATA misses = 41. Winner = DATA
*** Reached end of trace: (0, "../traces/public_traces/srv/srv_38.champsimtrace.xz")
[DUEL] Epoch ended. INSTR misses = 90, DATA misses = 72. Winner = DATA
[DUEL] Epoch ended. INSTR misses = 69, DATA misses = 66. Winner = DATA
[DUEL] Epoch ended. INSTR misses = 2, DATA misses = 2. Winner = INSTR
[DUEL] Epoch ended. INSTR misses = 45, DATA misses = 22. Winner = DATA
[DUEL] Epoch ended. INSTR misses = 4, DATA misses = 7. Winner = INSTR
[DUEL] Epoch ended. INSTR misses = 18, DATA misses = 17. Winner = DATA
[DUEL] Epoch ended. INSTR misses = 50, DATA misses = 49. Winner = DATA
[DUEL] Epoch ended. INSTR misses = 3, DATA misses = 1. Winner = DATA
[DUEL] Epoch ended. INSTR misses = 7, DATA misses = 6. Winner = DATA
[DUEL] Epoch ended. INSTR misses = 49, DATA misses = 39. Winner = DATA
[DUEL] Epoch ended. INSTR misses = 0, DATA misses = 0. Winner = INSTR
[DUEL] Epoch ended. INSTR misses = 32, DATA misses = 30. Winner = DATA
[DUEL] Epoch ended. INSTR misses = 75, DATA misses = 55. Winner = DATA
[DUEL] Epoch ended. INSTR misses = 8, DATA misses = 7. Winner = DATA
[DUEL] Epoch ended. INSTR misses = 79, DATA misses = 76. Winner = DATA
[DUEL] Epoch ended. INSTR misses = 34, DATA misses = 21. Winner = DATA
[DUEL] Epoch ended. INSTR misses = 60, DATA misses = 59. Winner = DATA
[DUEL] Epoch ended. INSTR misses = 53, DATA misses = 46. Winner = DATA
[DUEL] Epoch ended. INSTR misses = 7, DATA misses = 5. Winner = DATA
[DUEL] Epoch ended. INSTR misses = 48, DATA misses = 41. Winner = DATA
[DUEL] Epoch ended. INSTR misses = 47, DATA misses = 25. Winner = DATA
[DUEL] Epoch ended. INSTR misses = 26, DATA misses = 21. Winner = DATA
[DUEL] Epoch ended. INSTR misses = 40, DATA misses = 42. Winner = INSTR
[DUEL] Epoch ended. INSTR misses = 25, DATA misses = 29. Winner = INSTR
[DUEL] Epoch ended. INSTR misses = 7, DATA misses = 6. Winner = DATA
[DUEL] Epoch ended. INSTR misses = 77, DATA misses = 74. Winner = DATA
[DUEL] Epoch ended. INSTR misses = 4, DATA misses = 4. Winner = INSTR
[DUEL] Epoch ended. INSTR misses = 35, DATA misses = 28. Winner = DATA
[DUEL] Epoch ended. INSTR misses = 51, DATA misses = 54. Winner = INSTR
[DUEL] Epoch ended. INSTR misses = 0, DATA misses = 2. Winner = INSTR
[DUEL] Epoch ended. INSTR misses = 83, DATA misses = 76. Winner = DATA
Heartbeat CPU 0 instructions: 40000005 cycles: 12389112 heartbeat IPC: 1.645 cumulative IPC: 1.645 (Simulation time: 00 hr 02 min 26 sec)
[DUEL] Epoch ended. INSTR misses = 29, DATA misses = 18. Winner = DATA
[DUEL] Epoch ended. INSTR misses = 42, DATA misses = 26. Winner = DATA
[DUEL] Epoch ended. INSTR misses = 52, DATA misses = 53. Winner = INSTR
[DUEL] Epoch ended. INSTR misses = 18, DATA misses = 12. Winner = DATA
[DUEL] Epoch ended. INSTR misses = 24, DATA misses = 24. Winner = INSTR
[DUEL] Epoch ended. INSTR misses = 71, DATA misses = 58. Winner = DATA
[DUEL] Epoch ended. INSTR misses = 10, DATA misses = 16. Winner = INSTR
[DUEL] Epoch ended. INSTR misses = 66, DATA misses = 49. Winner = DATA
[DUEL] Epoch ended. INSTR misses = 12, DATA misses = 14. Winner = INSTR
[DUEL] Epoch ended. INSTR misses = 49, DATA misses = 41. Winner = DATA
[DUEL] Epoch ended. INSTR misses = 56, DATA misses = 55. Winner = DATA
[DUEL] Epoch ended. INSTR misses = 5, DATA misses = 12. Winner = INSTR
[DUEL] Epoch ended. INSTR misses = 48, DATA misses = 59. Winner = INSTR
[DUEL] Epoch ended. INSTR misses = 91, DATA misses = 84. Winner = DATA
[DUEL] Epoch ended. INSTR misses = 5, DATA misses = 5. Winner = INSTR
[DUEL] Epoch ended. INSTR misses = 68, DATA misses = 65. Winner = DATA
[DUEL] Epoch ended. INSTR misses = 50, DATA misses = 45. Winner = DATA
[DUEL] Epoch ended. INSTR misses = 11, DATA misses = 12. Winner = INSTR
[DUEL] Epoch ended. INSTR misses = 59, DATA misses = 57. Winner = DATA
[DUEL] Epoch ended. INSTR misses = 8, DATA misses = 5. Winner = DATA
[DUEL] Epoch ended. INSTR misses = 46, DATA misses = 48. Winner = INSTR
[DUEL] Epoch ended. INSTR misses = 59, DATA misses = 42. Winner = DATA
[DUEL] Epoch ended. INSTR misses = 14, DATA misses = 5. Winner = DATA
[DUEL] Epoch ended. INSTR misses = 83, DATA misses = 73. Winner = DATA
[DUEL] Epoch ended. INSTR misses = 52, DATA misses = 42. Winner = DATA
[DUEL] Epoch ended. INSTR misses = 42, DATA misses = 32. Winner = DATA
[DUEL] Epoch ended. INSTR misses = 54, DATA misses = 51. Winner = DATA
[DUEL] Epoch ended. INSTR misses = 4, DATA misses = 4. Winner = INSTR
[DUEL] Epoch ended. INSTR misses = 25, DATA misses = 16. Winner = DATA
[DUEL] Epoch ended. INSTR misses = 42, DATA misses = 40. Winner = DATA
[DUEL] Epoch ended. INSTR misses = 4, DATA misses = 0. Winner = DATA
[DUEL] Epoch ended. INSTR misses = 6, DATA misses = 10. Winner = INSTR
[DUEL] Epoch ended. INSTR misses = 91, DATA misses = 80. Winner = DATA
[DUEL] Epoch ended. INSTR misses = 25, DATA misses = 18. Winner = DATA
[DUEL] Epoch ended. INSTR misses = 26, DATA misses = 21. Winner = DATA
[DUEL] Epoch ended. INSTR misses = 36, DATA misses = 37. Winner = INSTR
[DUEL] Epoch ended. INSTR misses = 49, DATA misses = 41. Winner = DATA
[DUEL] Epoch ended. INSTR misses = 63, DATA misses = 67. Winner = INSTR
[DUEL] Epoch ended. INSTR misses = 4, DATA misses = 5. Winner = INSTR
Heartbeat CPU 0 instructions: 50000006 cycles: 18336035 heartbeat IPC: 1.682 cumulative IPC: 1.663 (Simulation time: 00 hr 03 min 24 sec)
[DUEL] Epoch ended. INSTR misses = 69, DATA misses = 38. Winner = DATA
[DUEL] Epoch ended. INSTR misses = 54, DATA misses = 34. Winner = DATA
[DUEL] Epoch ended. INSTR misses = 16, DATA misses = 19. Winner = INSTR
[DUEL] Epoch ended. INSTR misses = 50, DATA misses = 46. Winner = DATA
[DUEL] Epoch ended. INSTR misses = 23, DATA misses = 19. Winner = DATA
[DUEL] Epoch ended. INSTR misses = 22, DATA misses = 14. Winner = DATA
[DUEL] Epoch ended. INSTR misses = 87, DATA misses = 76. Winner = DATA
[DUEL] Epoch ended. INSTR misses = 10, DATA misses = 5. Winner = DATA
[DUEL] Epoch ended. INSTR misses = 52, DATA misses = 53. Winner = INSTR
[DUEL] Epoch ended. INSTR misses = 65, DATA misses = 62. Winner = DATA
[DUEL] Epoch ended. INSTR misses = 12, DATA misses = 11. Winner = DATA
[DUEL] Epoch ended. INSTR misses = 78, DATA misses = 49. Winner = DATA
[DUEL] Epoch ended. INSTR misses = 42, DATA misses = 38. Winner = DATA
[DUEL] Epoch ended. INSTR misses = 6, DATA misses = 2. Winner = DATA
[DUEL] Epoch ended. INSTR misses = 78, DATA misses = 86. Winner = INSTR
[DUEL] Epoch ended. INSTR misses = 11, DATA misses = 11. Winner = INSTR
[DUEL] Epoch ended. INSTR misses = 38, DATA misses = 30. Winner = DATA
[DUEL] Epoch ended. INSTR misses = 57, DATA misses = 51. Winner = DATA
[DUEL] Epoch ended. INSTR misses = 9, DATA misses = 14. Winner = INSTR
[DUEL] Epoch ended. INSTR misses = 73, DATA misses = 67. Winner = DATA
[DUEL] Epoch ended. INSTR misses = 44, DATA misses = 21. Winner = DATA
[DUEL] Epoch ended. INSTR misses = 36, DATA misses = 30. Winner = DATA
[DUEL] Epoch ended. INSTR misses = 102, DATA misses = 96. Winner = DATA
[DUEL] Epoch ended. INSTR misses = 30, DATA misses = 26. Winner = DATA
[DUEL] Epoch ended. INSTR misses = 32, DATA misses = 20. Winner = DATA
[DUEL] Epoch ended. INSTR misses = 39, DATA misses = 30. Winner = DATA
[DUEL] Epoch ended. INSTR misses = 31, DATA misses = 20. Winner = DATA
[DUEL] Epoch ended. INSTR misses = 34, DATA misses = 36. Winner = INSTR
[DUEL] Epoch ended. INSTR misses = 76, DATA misses = 61. Winner = DATA
[DUEL] Epoch ended. INSTR misses = 18, DATA misses = 16. Winner = DATA
[DUEL] Epoch ended. INSTR misses = 13, DATA misses = 11. Winner = DATA
[DUEL] Epoch ended. INSTR misses = 73, DATA misses = 69. Winner = DATA
[DUEL] Epoch ended. INSTR misses = 6, DATA misses = 2. Winner = DATA
[DUEL] Epoch ended. INSTR misses = 63, DATA misses = 64. Winner = INSTR
[DUEL] Epoch ended. INSTR misses = 48, DATA misses = 27. Winner = DATA
[DUEL] Epoch ended. INSTR misses = 3, DATA misses = 7. Winner = INSTR
[DUEL] Epoch ended. INSTR misses = 52, DATA misses = 51. Winner = DATA
[DUEL] Epoch ended. INSTR misses = 32, DATA misses = 30. Winner = DATA
[DUEL] Epoch ended. INSTR misses = 41, DATA misses = 33. Winner = DATA
Heartbeat CPU 0 instructions: 60000000 cycles: 24340648 heartbeat IPC: 1.665 cumulative IPC: 1.664 (Simulation time: 00 hr 04 min 21 sec)
[DUEL] Epoch ended. INSTR misses = 78, DATA misses = 68. Winner = DATA
[DUEL] Epoch ended. INSTR misses = 19, DATA misses = 15. Winner = DATA
[DUEL] Epoch ended. INSTR misses = 46, DATA misses = 35. Winner = DATA
[DUEL] Epoch ended. INSTR misses = 49, DATA misses = 37. Winner = DATA
[DUEL] Epoch ended. INSTR misses = 10, DATA misses = 1. Winner = DATA
[DUEL] Epoch ended. INSTR misses = 86, DATA misses = 80. Winner = DATA
[DUEL] Epoch ended. INSTR misses = 22, DATA misses = 25. Winner = INSTR
[DUEL] Epoch ended. INSTR misses = 22, DATA misses = 22. Winner = INSTR
[DUEL] Epoch ended. INSTR misses = 71, DATA misses = 47. Winner = DATA
[DUEL] Epoch ended. INSTR misses = 5, DATA misses = 11. Winner = INSTR
[DUEL] Epoch ended. INSTR misses = 44, DATA misses = 35. Winner = DATA
[DUEL] Epoch ended. INSTR misses = 36, DATA misses = 33. Winner = DATA
[DUEL] Epoch ended. INSTR misses = 6, DATA misses = 9. Winner = INSTR
[DUEL] Epoch ended. INSTR misses = 27, DATA misses = 24. Winner = DATA
[DUEL] Epoch ended. INSTR misses = 26, DATA misses = 18. Winner = DATA
[DUEL] Epoch ended. INSTR misses = 5, DATA misses = 1. Winner = DATA
[DUEL] Epoch ended. INSTR misses = 99, DATA misses = 90. Winner = DATA
*** Reached end of trace: (0, "../traces/public_traces/srv/srv_38.champsimtrace.xz")
[DUEL] Epoch ended. INSTR misses = 68, DATA misses = 45. Winner = DATA
[DUEL] Epoch ended. INSTR misses = 41, DATA misses = 42. Winner = INSTR
[DUEL] Epoch ended. INSTR misses = 6, DATA misses = 3. Winner = DATA
[DUEL] Epoch ended. INSTR misses = 49, DATA misses = 28. Winner = DATA
[DUEL] Epoch ended. INSTR misses = 1, DATA misses = 0. Winner = DATA
[DUEL] Epoch ended. INSTR misses = 41, DATA misses = 31. Winner = DATA
[DUEL] Epoch ended. INSTR misses = 32, DATA misses = 34. Winner = INSTR
[DUEL] Epoch ended. INSTR misses = 5, DATA misses = 4. Winner = DATA
[DUEL] Epoch ended. INSTR misses = 31, DATA misses = 9. Winner = DATA
[DUEL] Epoch ended. INSTR misses = 26, DATA misses = 31. Winner = INSTR
[DUEL] Epoch ended. INSTR misses = 4, DATA misses = 0. Winner = DATA
[DUEL] Epoch ended. INSTR misses = 73, DATA misses = 48. Winner = DATA
[DUEL] Epoch ended. INSTR misses = 37, DATA misses = 38. Winner = INSTR
[DUEL] Epoch ended. INSTR misses = 45, DATA misses = 48. Winner = INSTR
[DUEL] Epoch ended. INSTR misses = 66, DATA misses = 52. Winner = DATA
[DUEL] Epoch ended. INSTR misses = 15, DATA misses = 9. Winner = DATA
[DUEL] Epoch ended. INSTR misses = 82, DATA misses = 70. Winner = DATA
[DUEL] Epoch ended. INSTR misses = 27, DATA misses = 27. Winner = INSTR
[DUEL] Epoch ended. INSTR misses = 25, DATA misses = 21. Winner = DATA
[DUEL] Epoch ended. INSTR misses = 47, DATA misses = 27. Winner = DATA
[DUEL] Epoch ended. INSTR misses = 27, DATA misses = 22. Winner = DATA
[DUEL] Epoch ended. INSTR misses = 45, DATA misses = 36. Winner = DATA
Heartbeat CPU 0 instructions: 70000008 cycles: 30262619 heartbeat IPC: 1.689 cumulative IPC: 1.67 (Simulation time: 00 hr 05 min 18 sec)
[DUEL] Epoch ended. INSTR misses = 51, DATA misses = 52. Winner = INSTR
[DUEL] Epoch ended. INSTR misses = 3, DATA misses = 4. Winner = INSTR
[DUEL] Epoch ended. INSTR misses = 44, DATA misses = 39. Winner = DATA
[DUEL] Epoch ended. INSTR misses = 44, DATA misses = 37. Winner = DATA
[DUEL] Epoch ended. INSTR misses = 9, DATA misses = 4. Winner = DATA
[DUEL] Epoch ended. INSTR misses = 45, DATA misses = 44. Winner = DATA
[DUEL] Epoch ended. INSTR misses = 31, DATA misses = 41. Winner = INSTR
[DUEL] Epoch ended. INSTR misses = 4, DATA misses = 0. Winner = DATA
[DUEL] Epoch ended. INSTR misses = 101, DATA misses = 92. Winner = DATA
[DUEL] Epoch ended. INSTR misses = 21, DATA misses = 2. Winner = DATA
[DUEL] Epoch ended. INSTR misses = 40, DATA misses = 27. Winner = DATA
[DUEL] Epoch ended. INSTR misses = 64, DATA misses = 53. Winner = DATA
[DUEL] Epoch ended. INSTR misses = 6, DATA misses = 11. Winner = INSTR
[DUEL] Epoch ended. INSTR misses = 47, DATA misses = 41. Winner = DATA
[DUEL] Epoch ended. INSTR misses = 52, DATA misses = 50. Winner = DATA
[DUEL] Epoch ended. INSTR misses = 14, DATA misses = 13. Winner = DATA
[DUEL] Epoch ended. INSTR misses = 73, DATA misses = 50. Winner = DATA
[DUEL] Epoch ended. INSTR misses = 2, DATA misses = 5. Winner = INSTR
[DUEL] Epoch ended. INSTR misses = 67, DATA misses = 71. Winner = INSTR
[DUEL] Epoch ended. INSTR misses = 38, DATA misses = 26. Winner = DATA
[DUEL] Epoch ended. INSTR misses = 10, DATA misses = 11. Winner = INSTR
[DUEL] Epoch ended. INSTR misses = 80, DATA misses = 86. Winner = INSTR
[DUEL] Epoch ended. INSTR misses = 65, DATA misses = 56. Winner = DATA
[DUEL] Epoch ended. INSTR misses = 23, DATA misses = 22. Winner = DATA
[DUEL] Epoch ended. INSTR misses = 88, DATA misses = 89. Winner = INSTR
[DUEL] Epoch ended. INSTR misses = 16, DATA misses = 5. Winner = DATA
[DUEL] Epoch ended. INSTR misses = 33, DATA misses = 31. Winner = DATA
[DUEL] Epoch ended. INSTR misses = 35, DATA misses = 40. Winner = INSTR
[DUEL] Epoch ended. INSTR misses = 5, DATA misses = 4. Winner = DATA
[DUEL] Epoch ended. INSTR misses = 64, DATA misses = 47. Winner = DATA
[DUEL] Epoch ended. INSTR misses = 46, DATA misses = 41. Winner = DATA
[DUEL] Epoch ended. INSTR misses = 27, DATA misses = 26. Winner = DATA
[DUEL] Epoch ended. INSTR misses = 85, DATA misses = 67. Winner = DATA
[DUEL] Epoch ended. INSTR misses = 24, DATA misses = 24. Winner = INSTR
[DUEL] Epoch ended. INSTR misses = 45, DATA misses = 34. Winner = DATA
[DUEL] Epoch ended. INSTR misses = 52, DATA misses = 53. Winner = INSTR
[DUEL] Epoch ended. INSTR misses = 2, DATA misses = 0. Winner = DATA
[DUEL] Epoch ended. INSTR misses = 31, DATA misses = 28. Winner = DATA
[DUEL] Epoch ended. INSTR misses = 28, DATA misses = 28. Winner = INSTR
Heartbeat CPU 0 instructions: 80000005 cycles: 36010567 heartbeat IPC: 1.74 cumulative IPC: 1.683 (Simulation time: 00 hr 06 min 15 sec)
[DUEL] Epoch ended. INSTR misses = 5, DATA misses = 3. Winner = DATA
[DUEL] Epoch ended. INSTR misses = 86, DATA misses = 81. Winner = DATA
[DUEL] Epoch ended. INSTR misses = 9, DATA misses = 6. Winner = DATA
[DUEL] Epoch ended. INSTR misses = 31, DATA misses = 27. Winner = DATA
[DUEL] Epoch ended. INSTR misses = 53, DATA misses = 48. Winner = DATA
[DUEL] Epoch ended. INSTR misses = 5, DATA misses = 3. Winner = DATA
[DUEL] Epoch ended. INSTR misses = 65, DATA misses = 62. Winner = DATA
[DUEL] Epoch ended. INSTR misses = 42, DATA misses = 48. Winner = INSTR
[DUEL] Epoch ended. INSTR misses = 7, DATA misses = 1. Winner = DATA
[DUEL] Epoch ended. INSTR misses = 83, DATA misses = 55. Winner = DATA
[DUEL] Epoch ended. INSTR misses = 25, DATA misses = 16. Winner = DATA
[DUEL] Epoch ended. INSTR misses = 23, DATA misses = 20. Winner = DATA
[DUEL] Epoch ended. INSTR misses = 59, DATA misses = 62. Winner = INSTR
[DUEL] Epoch ended. INSTR misses = 10, DATA misses = 0. Winner = DATA
[DUEL] Epoch ended. INSTR misses = 43, DATA misses = 46. Winner = INSTR
[DUEL] Epoch ended. INSTR misses = 63, DATA misses = 49. Winner = DATA
[DUEL] Epoch ended. INSTR misses = 20, DATA misses = 20. Winner = INSTR
[DUEL] Epoch ended. INSTR misses = 55, DATA misses = 58. Winner = INSTR
[DUEL] Epoch ended. INSTR misses = 44, DATA misses = 40. Winner = DATA
[DUEL] Epoch ended. INSTR misses = 51, DATA misses = 48. Winner = DATA
[DUEL] Epoch ended. INSTR misses = 62, DATA misses = 47. Winner = DATA
[DUEL] Epoch ended. INSTR misses = 7, DATA misses = 1. Winner = DATA
[DUEL] Epoch ended. INSTR misses = 31, DATA misses = 33. Winner = INSTR
[DUEL] Epoch ended. INSTR misses = 54, DATA misses = 59. Winner = INSTR
[DUEL] Epoch ended. INSTR misses = 10, DATA misses = 8. Winner = DATA
[DUEL] Epoch ended. INSTR misses = 77, DATA misses = 78. Winner = INSTR
[DUEL] Epoch ended. INSTR misses = 13, DATA misses = 5. Winner = DATA
[DUEL] Epoch ended. INSTR misses = 33, DATA misses = 35. Winner = INSTR
[DUEL] Epoch ended. INSTR misses = 69, DATA misses = 64. Winner = DATA
[DUEL] Epoch ended. INSTR misses = 16, DATA misses = 4. Winner = DATA
[DUEL] Epoch ended. INSTR misses = 104, DATA misses = 88. Winner = DATA
[DUEL] Epoch ended. INSTR misses = 58, DATA misses = 56. Winner = DATA
[DUEL] Epoch ended. INSTR misses = 4, DATA misses = 5. Winner = INSTR
[DUEL] Epoch ended. INSTR misses = 30, DATA misses = 25. Winner = DATA
[DUEL] Epoch ended. INSTR misses = 55, DATA misses = 41. Winner = DATA
[DUEL] Epoch ended. INSTR misses = 9, DATA misses = 6. Winner = DATA
[DUEL] Epoch ended. INSTR misses = 87, DATA misses = 76. Winner = DATA
[DUEL] Epoch ended. INSTR misses = 28, DATA misses = 34. Winner = INSTR
[DUEL] Epoch ended. INSTR misses = 9, DATA misses = 1. Winner = DATA
Heartbeat CPU 0 instructions: 90000002 cycles: 41663656 heartbeat IPC: 1.769 cumulative IPC: 1.697 (Simulation time: 00 hr 07 min 10 sec)
[DUEL] Epoch ended. INSTR misses = 28, DATA misses = 31. Winner = INSTR
[DUEL] Epoch ended. INSTR misses = 53, DATA misses = 48. Winner = DATA
[DUEL] Epoch ended. INSTR misses = 10, DATA misses = 5. Winner = DATA
[DUEL] Epoch ended. INSTR misses = 79, DATA misses = 79. Winner = INSTR
[DUEL] Epoch ended. INSTR misses = 21, DATA misses = 10. Winner = DATA
[DUEL] Epoch ended. INSTR misses = 27, DATA misses = 22. Winner = DATA
[DUEL] Epoch ended. INSTR misses = 59, DATA misses = 64. Winner = INSTR
[DUEL] Epoch ended. INSTR misses = 3, DATA misses = 1. Winner = DATA
[DUEL] Epoch ended. INSTR misses = 64, DATA misses = 48. Winner = DATA
[DUEL] Epoch ended. INSTR misses = 68, DATA misses = 67. Winner = DATA
[DUEL] Epoch ended. INSTR misses = 11, DATA misses = 1. Winner = DATA
[DUEL] Epoch ended. INSTR misses = 48, DATA misses = 38. Winner = DATA
[DUEL] Epoch ended. INSTR misses = 40, DATA misses = 33. Winner = DATA
[DUEL] Epoch ended. INSTR misses = 37, DATA misses = 23. Winner = DATA
[DUEL] Epoch ended. INSTR misses = 58, DATA misses = 62. Winner = INSTR
[DUEL] Epoch ended. INSTR misses = 18, DATA misses = 16. Winner = DATA
[DUEL] Epoch ended. INSTR misses = 51, DATA misses = 47. Winner = DATA
[DUEL] Epoch ended. INSTR misses = 53, DATA misses = 27. Winner = DATA
[DUEL] Epoch ended. INSTR misses = 4, DATA misses = 5. Winner = INSTR
[DUEL] Epoch ended. INSTR misses = 52, DATA misses = 48. Winner = DATA
[DUEL] Epoch ended. INSTR misses = 26, DATA misses = 21. Winner = DATA
[DUEL] Epoch ended. INSTR misses = 7, DATA misses = 9. Winner = INSTR
[DUEL] Epoch ended. INSTR misses = 25, DATA misses = 23. Winner = DATA
[DUEL] Epoch ended. INSTR misses = 24, DATA misses = 18. Winner = DATA
[DUEL] Epoch ended. INSTR misses = 29, DATA misses = 17. Winner = DATA
*** Reached end of trace: (0, "../traces/public_traces/srv/srv_38.champsimtrace.xz")
[DUEL] Epoch ended. INSTR misses = 97, DATA misses = 89. Winner = DATA
[DUEL] Epoch ended. INSTR misses = 57, DATA misses = 43. Winner = DATA
[DUEL] Epoch ended. INSTR misses = 32, DATA misses = 26. Winner = DATA
[DUEL] Epoch ended. INSTR misses = 38, DATA misses = 15. Winner = DATA
[DUEL] Epoch ended. INSTR misses = 17, DATA misses = 15. Winner = DATA
[DUEL] Epoch ended. INSTR misses = 2, DATA misses = 0. Winner = DATA
[DUEL] Epoch ended. INSTR misses = 60, DATA misses = 53. Winner = DATA
[DUEL] Epoch ended. INSTR misses = 14, DATA misses = 12. Winner = DATA
[DUEL] Epoch ended. INSTR misses = 7, DATA misses = 4. Winner = DATA
[DUEL] Epoch ended. INSTR misses = 34, DATA misses = 15. Winner = DATA
[DUEL] Epoch ended. INSTR misses = 18, DATA misses = 24. Winner = INSTR
[DUEL] Epoch ended. INSTR misses = 17, DATA misses = 10. Winner = DATA
[DUEL] Epoch ended. INSTR misses = 102, DATA misses = 71. Winner = DATA
[DUEL] Epoch ended. INSTR misses = 5, DATA misses = 8. Winner = INSTR
Heartbeat CPU 0 instructions: 100000002 cycles: 47560532 heartbeat IPC: 1.696 cumulative IPC: 1.697 (Simulation time: 00 hr 08 min 07 sec)
[DUEL] Epoch ended. INSTR misses = 65, DATA misses = 60. Winner = DATA
[DUEL] Epoch ended. INSTR misses = 52, DATA misses = 36. Winner = DATA
[DUEL] Epoch ended. INSTR misses = 10, DATA misses = 6. Winner = DATA
[DUEL] Epoch ended. INSTR misses = 95, DATA misses = 94. Winner = DATA
[DUEL] Epoch ended. INSTR misses = 8, DATA misses = 9. Winner = INSTR
[DUEL] Epoch ended. INSTR misses = 48, DATA misses = 35. Winner = DATA
[DUEL] Epoch ended. INSTR misses = 47, DATA misses = 28. Winner = DATA
[DUEL] Epoch ended. INSTR misses = 6, DATA misses = 6. Winner = INSTR
[DUEL] Epoch ended. INSTR misses = 45, DATA misses = 41. Winner = DATA
[DUEL] Epoch ended. INSTR misses = 50, DATA misses = 45. Winner = DATA
[DUEL] Epoch ended. INSTR misses = 7, DATA misses = 6. Winner = DATA
[DUEL] Epoch ended. INSTR misses = 60, DATA misses = 56. Winner = DATA
[DUEL] Epoch ended. INSTR misses = 24, DATA misses = 18. Winner = DATA
[DUEL] Epoch ended. INSTR misses = 26, DATA misses = 26. Winner = INSTR
[DUEL] Epoch ended. INSTR misses = 56, DATA misses = 51. Winner = DATA
[DUEL] Epoch ended. INSTR misses = 6, DATA misses = 11. Winner = INSTR
[DUEL] Epoch ended. INSTR misses = 60, DATA misses = 47. Winner = DATA
[DUEL] Epoch ended. INSTR misses = 50, DATA misses = 46. Winner = DATA
[DUEL] Epoch ended. INSTR misses = 24, DATA misses = 4. Winner = DATA
[DUEL] Epoch ended. INSTR misses = 59, DATA misses = 52. Winner = DATA
[DUEL] Epoch ended. INSTR misses = 34, DATA misses = 24. Winner = DATA
[DUEL] Epoch ended. INSTR misses = 24, DATA misses = 32. Winner = INSTR
[DUEL] Epoch ended. INSTR misses = 61, DATA misses = 53. Winner = DATA
[DUEL] Epoch ended. INSTR misses = 18, DATA misses = 16. Winner = DATA
[DUEL] Epoch ended. INSTR misses = 32, DATA misses = 21. Winner = DATA
[DUEL] Epoch ended. INSTR misses = 51, DATA misses = 45. Winner = DATA
[DUEL] Epoch ended. INSTR misses = 15, DATA misses = 3. Winner = DATA
[DUEL] Epoch ended. INSTR misses = 49, DATA misses = 70. Winner = INSTR
[DUEL] Epoch ended. INSTR misses = 33, DATA misses = 30. Winner = DATA
[DUEL] Epoch ended. INSTR misses = 15, DATA misses = 13. Winner = DATA
[DUEL] Epoch ended. INSTR misses = 106, DATA misses = 104. Winner = DATA
[DUEL] Epoch ended. INSTR misses = 31, DATA misses = 25. Winner = DATA
[DUEL] Epoch ended. INSTR misses = 60, DATA misses = 62. Winner = INSTR
[DUEL] Epoch ended. INSTR misses = 55, DATA misses = 50. Winner = DATA
[DUEL] Epoch ended. INSTR misses = 9, DATA misses = 3. Winner = DATA
[DUEL] Epoch ended. INSTR misses = 39, DATA misses = 34. Winner = DATA
[DUEL] Epoch ended. INSTR misses = 30, DATA misses = 37. Winner = INSTR
[DUEL] Epoch ended. INSTR misses = 29, DATA misses = 24. Winner = DATA
[DUEL] Epoch ended. INSTR misses = 63, DATA misses = 58. Winner = DATA
Heartbeat CPU 0 instructions: 110000003 cycles: 53495155 heartbeat IPC: 1.685 cumulative IPC: 1.695 (Simulation time: 00 hr 09 min 04 sec)
[DUEL] Epoch ended. INSTR misses = 13, DATA misses = 12. Winner = DATA
[DUEL] Epoch ended. INSTR misses = 33, DATA misses = 25. Winner = DATA
[DUEL] Epoch ended. INSTR misses = 105, DATA misses = 87. Winner = DATA
[DUEL] Epoch ended. INSTR misses = 11, DATA misses = 3. Winner = DATA
[DUEL] Epoch ended. INSTR misses = 38, DATA misses = 33. Winner = DATA
[DUEL] Epoch ended. INSTR misses = 42, DATA misses = 51. Winner = INSTR
[DUEL] Epoch ended. INSTR misses = 7, DATA misses = 0. Winner = DATA
[DUEL] Epoch ended. INSTR misses = 56, DATA misses = 53. Winner = DATA
[DUEL] Epoch ended. INSTR misses = 3, DATA misses = 2. Winner = DATA
[DUEL] Epoch ended. INSTR misses = 6, DATA misses = 6. Winner = INSTR
[DUEL] Epoch ended. INSTR misses = 93, DATA misses = 84. Winner = DATA
[DUEL] Epoch ended. INSTR misses = 6, DATA misses = 2. Winner = DATA
[DUEL] Epoch ended. INSTR misses = 41, DATA misses = 35. Winner = DATA
[DUEL] Epoch ended. INSTR misses = 43, DATA misses = 38. Winner = DATA
[DUEL] Epoch ended. INSTR misses = 5, DATA misses = 4. Winner = DATA
[DUEL] Epoch ended. INSTR misses = 90, DATA misses = 85. Winner = DATA
[DUEL] Epoch ended. INSTR misses = 25, DATA misses = 22. Winner = DATA
[DUEL] Epoch ended. INSTR misses = 59, DATA misses = 29. Winner = DATA
[DUEL] Epoch ended. INSTR misses = 55, DATA misses = 44. Winner = DATA
[DUEL] Epoch ended. INSTR misses = 5, DATA misses = 1. Winner = DATA
[DUEL] Epoch ended. INSTR misses = 39, DATA misses = 37. Winner = DATA
[DUEL] Epoch ended. INSTR misses = 47, DATA misses = 45. Winner = DATA
[DUEL] Epoch ended. INSTR misses = 15, DATA misses = 6. Winner = DATA
[DUEL] Epoch ended. INSTR misses = 43, DATA misses = 45. Winner = INSTR
[DUEL] Epoch ended. INSTR misses = 54, DATA misses = 43. Winner = DATA
[DUEL] Epoch ended. INSTR misses = 28, DATA misses = 27. Winner = DATA
[DUEL] Epoch ended. INSTR misses = 85, DATA misses = 83. Winner = DATA
[DUEL] Epoch ended. INSTR misses = 13, DATA misses = 13. Winner = INSTR
[DUEL] Epoch ended. INSTR misses = 71, DATA misses = 50. Winner = DATA
[DUEL] Epoch ended. INSTR misses = 42, DATA misses = 39. Winner = DATA
[DUEL] Epoch ended. INSTR misses = 6, DATA misses = 2. Winner = DATA
[DUEL] Epoch ended. INSTR misses = 33, DATA misses = 34. Winner = INSTR
[DUEL] Epoch ended. INSTR misses = 52, DATA misses = 58. Winner = INSTR
[DUEL] Epoch ended. INSTR misses = 32, DATA misses = 29. Winner = DATA
[DUEL] Epoch ended. INSTR misses = 64, DATA misses = 53. Winner = DATA
[DUEL] Epoch ended. INSTR misses = 1, DATA misses = 4. Winner = INSTR
[DUEL] Epoch ended. INSTR misses = 77, DATA misses = 75. Winner = DATA
[DUEL] Epoch ended. INSTR misses = 49, DATA misses = 31. Winner = DATA
[DUEL] Epoch ended. INSTR misses = 8, DATA misses = 8. Winner = INSTR
Heartbeat CPU 0 instructions: 120000006 cycles: 59182278 heartbeat IPC: 1.758 cumulative IPC: 1.702 (Simulation time: 00 hr 10 min 01 sec)
[DUEL] Epoch ended. INSTR misses = 109, DATA misses = 94. Winner = DATA
[DUEL] Epoch ended. INSTR misses = 52, DATA misses = 49. Winner = DATA
[DUEL] Epoch ended. INSTR misses = 8, DATA misses = 2. Winner = DATA
[DUEL] Epoch ended. INSTR misses = 46, DATA misses = 44. Winner = DATA
[DUEL] Epoch ended. INSTR misses = 40, DATA misses = 24. Winner = DATA
[DUEL] Epoch ended. INSTR misses = 7, DATA misses = 3. Winner = DATA
[DUEL] Epoch ended. INSTR misses = 104, DATA misses = 92. Winner = DATA
[DUEL] Epoch ended. INSTR misses = 18, DATA misses = 18. Winner = INSTR
[DUEL] Epoch ended. INSTR misses = 8, DATA misses = 2. Winner = DATA
[DUEL] Epoch ended. INSTR misses = 30, DATA misses = 31. Winner = INSTR
[DUEL] Epoch ended. INSTR misses = 55, DATA misses = 48. Winner = DATA
[DUEL] Epoch ended. INSTR misses = 51, DATA misses = 50. Winner = DATA
[DUEL] Epoch ended. INSTR misses = 53, DATA misses = 40. Winner = DATA
[DUEL] Epoch ended. INSTR misses = 6, DATA misses = 2. Winner = DATA
[DUEL] Epoch ended. INSTR misses = 51, DATA misses = 52. Winner = INSTR
[DUEL] Epoch ended. INSTR misses = 35, DATA misses = 34. Winner = DATA
[DUEL] Epoch ended. INSTR misses = 30, DATA misses = 25. Winner = DATA
[DUEL] Epoch ended. INSTR misses = 37, DATA misses = 23. Winner = DATA
[DUEL] Epoch ended. INSTR misses = 62, DATA misses = 66. Winner = INSTR
[DUEL] Epoch ended. INSTR misses = 26, DATA misses = 15. Winner = DATA
[DUEL] Epoch ended. INSTR misses = 53, DATA misses = 43. Winner = DATA
[DUEL] Epoch ended. INSTR misses = 19, DATA misses = 14. Winner = DATA
[DUEL] Epoch ended. INSTR misses = 97, DATA misses = 72. Winner = DATA
[DUEL] Epoch ended. INSTR misses = 31, DATA misses = 29. Winner = DATA
[DUEL] Epoch ended. INSTR misses = 7, DATA misses = 1. Winner = DATA
[DUEL] Epoch ended. INSTR misses = 59, DATA misses = 61. Winner = INSTR
[DUEL] Epoch ended. INSTR misses = 35, DATA misses = 15. Winner = DATA
[DUEL] Epoch ended. INSTR misses = 22, DATA misses = 20. Winner = DATA
[DUEL] Epoch ended. INSTR misses = 60, DATA misses = 46. Winner = DATA
[DUEL] Epoch ended. INSTR misses = 1, DATA misses = 4. Winner = INSTR
[DUEL] Epoch ended. INSTR misses = 14, DATA misses = 14. Winner = INSTR
[DUEL] Epoch ended. INSTR misses = 42, DATA misses = 35. Winner = DATA
[DUEL] Epoch ended. INSTR misses = 0, DATA misses = 3. Winner = INSTR
[DUEL] Epoch ended. INSTR misses = 52, DATA misses = 40. Winner = DATA
*** Reached end of trace: (0, "../traces/public_traces/srv/srv_38.champsimtrace.xz")
[DUEL] Epoch ended. INSTR misses = 93, DATA misses = 71. Winner = DATA
[DUEL] Epoch ended. INSTR misses = 74, DATA misses = 64. Winner = DATA
[DUEL] Epoch ended. INSTR misses = 5, DATA misses = 1. Winner = DATA
[DUEL] Epoch ended. INSTR misses = 50, DATA misses = 24. Winner = DATA
[DUEL] Epoch ended. INSTR misses = 6, DATA misses = 5. Winner = DATA
Heartbeat CPU 0 instructions: 130000011 cycles: 65009448 heartbeat IPC: 1.716 cumulative IPC: 1.704 (Simulation time: 00 hr 10 min 57 sec)
Simulation finished CPU 0 instructions: 100000009 cycles: 58700652 cumulative IPC: 1.704 (Simulation time: 00 hr 10 min 57 sec)
Simulation complete CPU 0 instructions: 100000009 cycles: 58700652 cumulative IPC: 1.704 (Simulation time: 00 hr 10 min 57 sec)

ChampSim completed all CPUs

=== Simulation ===
CPU 0 runs ../traces/public_traces/srv/srv_38.champsimtrace.xz
Region of Interest Statistics

CPU 0 cumulative IPC: 1.704 instructions: 100000009 cycles: 58700652
CPU 0 Branch Prediction Accuracy: 99.88% MPKI: 0.1908 Average ROB Occupancy at Mispredict: 215.4
Branch type MPKI
BRANCH_DIRECT_JUMP: 6e-05
BRANCH_INDIRECT: 0.144
BRANCH_CONDITIONAL: 0.0458
BRANCH_DIRECT_CALL: 3e-05
BRANCH_INDIRECT_CALL: 0
BRANCH_RETURN: 0.00084

LLC TOTAL        ACCESS:    4688614 HIT:    1960403 MISS:    2728211
LLC LOAD         ACCESS:     479621 HIT:     364235 MISS:     115386
LLC RFO          ACCESS:    1575931 HIT:     413492 MISS:    1162439
LLC PREFETCH     ACCESS:     821449 HIT:     350477 MISS:     470972
LLC WRITE        ACCESS:    1803953 HIT:     831987 MISS:     971966
LLC TRANSLATION  ACCESS:       7660 HIT:        212 MISS:       7448
LLC PREFETCH REQUESTED:          0 ISSUED:          0 USEFUL:          0 USELESS:          0
LLC AVERAGE MISS LATENCY: 199.2 cycles
cpu0_DTLB TOTAL        ACCESS:   18635487 HIT:   17618520 MISS:    1016967
cpu0_DTLB LOAD         ACCESS:   18635487 HIT:   17618520 MISS:    1016967
cpu0_DTLB RFO          ACCESS:          0 HIT:          0 MISS:          0
cpu0_DTLB PREFETCH     ACCESS:          0 HIT:          0 MISS:          0
cpu0_DTLB WRITE        ACCESS:          0 HIT:          0 MISS:          0
cpu0_DTLB TRANSLATION  ACCESS:          0 HIT:          0 MISS:          0
cpu0_DTLB PREFETCH REQUESTED:          0 ISSUED:          0 USEFUL:          0 USELESS:          0
cpu0_DTLB AVERAGE MISS LATENCY: 7.117 cycles
cpu0_ITLB TOTAL        ACCESS:   14622216 HIT:   14602073 MISS:      20143
cpu0_ITLB LOAD         ACCESS:   14622216 HIT:   14602073 MISS:      20143
cpu0_ITLB RFO          ACCESS:          0 HIT:          0 MISS:          0
cpu0_ITLB PREFETCH     ACCESS:          0 HIT:          0 MISS:          0
cpu0_ITLB WRITE        ACCESS:          0 HIT:          0 MISS:          0
cpu0_ITLB TRANSLATION  ACCESS:          0 HIT:          0 MISS:          0
cpu0_ITLB PREFETCH REQUESTED:          0 ISSUED:          0 USEFUL:          0 USELESS:          0
cpu0_ITLB AVERAGE MISS LATENCY: 16.85 cycles
cpu0_L1D TOTAL        ACCESS:   34111138 HIT:   20831029 MISS:   13280109
cpu0_L1D LOAD         ACCESS:   13367077 HIT:   10510125 MISS:    2856952
cpu0_L1D RFO          ACCESS:          0 HIT:          0 MISS:          0
cpu0_L1D PREFETCH     ACCESS:    3705661 HIT:    1344143 MISS:    2361518
cpu0_L1D WRITE        ACCESS:   17010734 HIT:    8963727 MISS:    8047007
cpu0_L1D TRANSLATION  ACCESS:      27666 HIT:      13034 MISS:      14632
cpu0_L1D PREFETCH REQUESTED:    9435233 ISSUED:    3705661 USEFUL:     369533 USELESS:      56100
cpu0_L1D AVERAGE MISS LATENCY: 39.91 cycles
cpu0_L1I TOTAL        ACCESS:   21251888 HIT:   14956112 MISS:    6295776
cpu0_L1I LOAD         ACCESS:   11114880 HIT:    6311673 MISS:    4803207
cpu0_L1I RFO          ACCESS:          0 HIT:          0 MISS:          0
cpu0_L1I PREFETCH     ACCESS:   10137008 HIT:    8644439 MISS:    1492569
cpu0_L1I WRITE        ACCESS:          0 HIT:          0 MISS:          0
cpu0_L1I TRANSLATION  ACCESS:          0 HIT:          0 MISS:          0
cpu0_L1I PREFETCH REQUESTED:   32686958 ISSUED:   10137008 USEFUL:    1199962 USELESS:     138762
cpu0_L1I AVERAGE MISS LATENCY: 9.302 cycles
cpu0_L2C TOTAL        ACCESS:   17130420 HIT:   12322422 MISS:    4807998
cpu0_L2C LOAD         ACCESS:    4497684 HIT:    3959899 MISS:     537785
cpu0_L2C RFO          ACCESS:    1838136 HIT:     261815 MISS:    1576321
cpu0_L2C PREFETCH     ACCESS:    8583402 HIT:    5897171 MISS:    2686231
cpu0_L2C WRITE        ACCESS:    2196600 HIT:    2196599 MISS:          1
cpu0_L2C TRANSLATION  ACCESS:      14598 HIT:       6938 MISS:       7660
cpu0_L2C PREFETCH REQUESTED:    7701241 ISSUED:    5383218 USEFUL:      97508 USELESS:     182925
cpu0_L2C AVERAGE MISS LATENCY: 123.6 cycles
cpu0_STLB TOTAL        ACCESS:     496112 HIT:     469219 MISS:      26893
cpu0_STLB LOAD         ACCESS:     496112 HIT:     469219 MISS:      26893
cpu0_STLB RFO          ACCESS:          0 HIT:          0 MISS:          0
cpu0_STLB PREFETCH     ACCESS:          0 HIT:          0 MISS:          0
cpu0_STLB WRITE        ACCESS:          0 HIT:          0 MISS:          0
cpu0_STLB TRANSLATION  ACCESS:          0 HIT:          0 MISS:          0
cpu0_STLB PREFETCH REQUESTED:          0 ISSUED:          0 USEFUL:          0 USELESS:          0
cpu0_STLB AVERAGE MISS LATENCY: 205.3 cycles

DRAM Statistics

Channel 0 RQ ROW_BUFFER_HIT:     390959
  ROW_BUFFER_MISS:     496382
 AVG DBUS CONGESTED CYCLE: 3.949
WQ ROW_BUFFER_HIT: Channel 0 
  ROW_BUFFER_MISS:      62682
  FULL:     539625

Channel 1 RQ ROW_BUFFER_HIT:     394517
  ROW_BUFFER_MISS:     474323
 AVG DBUS CONGESTED CYCLE: 3.945
WQ ROW_BUFFER_HIT: Channel 1 
  ROW_BUFFER_MISS:      67837
  FULL:     521088
BERTI TO_L1: 3726735 TO_L2: 8707428 TO_L2_BC_MSHR: 4147470
BERTI AVG_LAT: 74.1304 NUM_TRACK_LATENCY: 2134044 NUM_CANT_TRACK_LATENCY: 0
BERTI CROSS_PAGE 1596139 NO_CROSS_PAGE: 10838024
BERTI FOUND_BERTI: 3590810 NO_FOUND_BERTI: 15894620
BERTI AVERAGE_ISSUED: 4.88953
CPU 0 L1I Entangling prefetcher final stats
IP accesses: 5cd0 173400 136700 / 11225007
IP misses: 13dd 4f740 20438 / 4913334
IP hits: 0 0 0 / 0
IP late: 9d3d 274f40 8593 / 2071705
IP wrong: 55ff 157fc0 7498 / 133539
miss rate: 0.437714
coverage: 0
coverage_late: 0.42165
accuracy: 0
accuracy_late: 0.939445
discarded: 0
evicts entangled j table: 0
evicts entangled k table: 358783
max bb size: 13
formats: 63161 0 255392 89429 32169 52502 0 
hist_lookups: 46779 128394 234945 301276 290432 242755 180677 144204 130904 124331 100083 64675 40401 23123 6550 0 558 811679 
hist_lookups_evict: 0.0194306 %
hist_lookups_shortlat: 28.2642 %
bb_found_hist: 0 2397467 1176626 476821 227831 115873 61069 24428 5255 3030 0 468 0 4436 0 0 0 0 0 0 0 0 0 0 0 0 0 0 0 0 0 0 0 0 0 0 0 0 0 0 0 0 0 0 0 0 0 0 0 0 0 0 0 0 0 0 0 0 0 0 0 0 0 0 
bb_found_summary: 8341407 4493304 1.85641
entangled_found_hist: 0 1316813 764259 2273702 569960 67896 32543 0 
entangled_found_summary: 12481015 5025173 2.4837
bb_ent_found_hist: 0 3832875 2375540 1096936 479532 216640 244167 56076 21987 2491 0 2310 0 17819 0 0 0 0 0 0 0 0 0 0 0 0 0 0 0 0 0 0 0 0 0 0 0 0 0 0 0 0 0 0 0 0 0 0 0 0 0 0 0 0 0 0 0 0 0 0 0 0 0 0 
bb_ent_found_summary: 17188997 8346373 2.05946
