WARNING: physical memory size is smaller than virtual memory size.

*** ChampSim Multicore Out-of-Order Simulator ***
Warmup Instructions: 30000000
Simulation Instructions: 100000000
Number of CPUs: 1
Page size: 4096

BTB:
Basic BTB sets: 1024 ways: 8
Indirect:
history lengths: 0 0 10 16 27 44 60 96 109 219 449 487 714 1313 2146 3881 
ITTAGE tables: 64768 bytes;Region table: 240 bytes;IUM: 384 bytes;Total Storage= 65392 bytes;
RAS:
RAS size: 64
[LLC] INSTR Demand IPV: 1 2 2 1 4 Prefetch IPV: 1 2 1 1 4
[LLC] DATA  Demand IPV: 1 1 1 2 4 Prefetch IPV: 1 1 2 2 4
Berti Prefetcher
CPU 0 Entangling prefetcher
Off-chip DRAM Size: 8 GiB Channels: 2 Width: 64-bit Data Race: 6400 MT/s
[DUEL] Epoch ended. INSTR misses = 55, DATA misses = 63. Winner = INSTR
[DUEL] Epoch ended. INSTR misses = 16, DATA misses = 17. Winner = INSTR
[DUEL] Epoch ended. INSTR misses = 0, DATA misses = 0. Winner = INSTR
[DUEL] Epoch ended. INSTR misses = 0, DATA misses = 0. Winner = INSTR
[DUEL] Epoch ended. INSTR misses = 0, DATA misses = 0. Winner = INSTR
[DUEL] Epoch ended. INSTR misses = 0, DATA misses = 0. Winner = INSTR
[DUEL] Epoch ended. INSTR misses = 16, DATA misses = 16. Winner = INSTR
[DUEL] Epoch ended. INSTR misses = 0, DATA misses = 0. Winner = INSTR
[DUEL] Epoch ended. INSTR misses = 0, DATA misses = 0. Winner = INSTR
[DUEL] Epoch ended. INSTR misses = 7, DATA misses = 14. Winner = INSTR
[DUEL] Epoch ended. INSTR misses = 16, DATA misses = 16. Winner = INSTR
[DUEL] Epoch ended. INSTR misses = 19, DATA misses = 18. Winner = DATA
Heartbeat CPU 0 instructions: 10000003 cycles: 1714841 heartbeat IPC: 5.831 cumulative IPC: 5.831 (Simulation time: 00 hr 00 min 20 sec)
[DUEL] Epoch ended. INSTR misses = 0, DATA misses = 9. Winner = INSTR
[DUEL] Epoch ended. INSTR misses = 21, DATA misses = 23. Winner = INSTR
[DUEL] Epoch ended. INSTR misses = 116, DATA misses = 95. Winner = DATA
[DUEL] Epoch ended. INSTR misses = 52, DATA misses = 55. Winner = INSTR
Heartbeat CPU 0 instructions: 20000001 cycles: 3431194 heartbeat IPC: 5.826 cumulative IPC: 5.829 (Simulation time: 00 hr 00 min 39 sec)
[DUEL] Epoch ended. INSTR misses = 0, DATA misses = 0. Winner = INSTR
Heartbeat CPU 0 instructions: 30000005 cycles: 5097943 heartbeat IPC: 6 cumulative IPC: 5.885 (Simulation time: 00 hr 00 min 58 sec)
Warmup finished CPU 0 instructions: 30000005 cycles: 5097944 cumulative IPC: 5.885 (Simulation time: 00 hr 00 min 58 sec)
Warmup complete CPU 0 instructions: 30000005 cycles: 5097944 cumulative IPC: 5.885 (Simulation time: 00 hr 00 min 58 sec)
[DUEL] Epoch ended. INSTR misses = 0, DATA misses = 0. Winner = INSTR
[DUEL] Epoch ended. INSTR misses = 0, DATA misses = 0. Winner = INSTR
Heartbeat CPU 0 instructions: 40000001 cycles: 6765760 heartbeat IPC: 5.996 cumulative IPC: 5.996 (Simulation time: 00 hr 01 min 19 sec)
[DUEL] Epoch ended. INSTR misses = 0, DATA misses = 1. Winner = INSTR
Heartbeat CPU 0 instructions: 50000006 cycles: 8433652 heartbeat IPC: 5.996 cumulative IPC: 5.996 (Simulation time: 00 hr 01 min 40 sec)
[DUEL] Epoch ended. INSTR misses = 0, DATA misses = 1. Winner = INSTR
Heartbeat CPU 0 instructions: 60000001 cycles: 10108354 heartbeat IPC: 5.971 cumulative IPC: 5.988 (Simulation time: 00 hr 02 min 01 sec)
[DUEL] Epoch ended. INSTR misses = 5, DATA misses = 0. Winner = DATA
*** Reached end of trace: (0, "../traces/secret_traces/crypto/crypto53.champsimtrace.xz")
[DUEL] Epoch ended. INSTR misses = 24, DATA misses = 24. Winner = INSTR
[DUEL] Epoch ended. INSTR misses = 17, DATA misses = 24. Winner = INSTR
[DUEL] Epoch ended. INSTR misses = 0, DATA misses = 0. Winner = INSTR
[DUEL] Epoch ended. INSTR misses = 0, DATA misses = 0. Winner = INSTR
[DUEL] Epoch ended. INSTR misses = 0, DATA misses = 0. Winner = INSTR
[DUEL] Epoch ended. INSTR misses = 0, DATA misses = 0. Winner = INSTR
[DUEL] Epoch ended. INSTR misses = 0, DATA misses = 0. Winner = INSTR
[DUEL] Epoch ended. INSTR misses = 0, DATA misses = 0. Winner = INSTR
[DUEL] Epoch ended. INSTR misses = 0, DATA misses = 0. Winner = INSTR
[DUEL] Epoch ended. INSTR misses = 0, DATA misses = 1. Winner = INSTR
[DUEL] Epoch ended. INSTR misses = 5, DATA misses = 11. Winner = INSTR
[DUEL] Epoch ended. INSTR misses = 15, DATA misses = 15. Winner = INSTR
[DUEL] Epoch ended. INSTR misses = 10, DATA misses = 2. Winner = DATA
Heartbeat CPU 0 instructions: 70000002 cycles: 12499923 heartbeat IPC: 4.181 cumulative IPC: 5.404 (Simulation time: 00 hr 02 min 27 sec)
[DUEL] Epoch ended. INSTR misses = 0, DATA misses = 6. Winner = INSTR
[DUEL] Epoch ended. INSTR misses = 3, DATA misses = 3. Winner = INSTR
Heartbeat CPU 0 instructions: 80000010 cycles: 14566531 heartbeat IPC: 4.839 cumulative IPC: 5.281 (Simulation time: 00 hr 02 min 51 sec)
[DUEL] Epoch ended. INSTR misses = 65, DATA misses = 55. Winner = DATA
Heartbeat CPU 0 instructions: 90000002 cycles: 16418363 heartbeat IPC: 5.4 cumulative IPC: 5.3 (Simulation time: 00 hr 03 min 13 sec)
[DUEL] Epoch ended. INSTR misses = 19, DATA misses = 29. Winner = INSTR
Heartbeat CPU 0 instructions: 100000007 cycles: 18098924 heartbeat IPC: 5.95 cumulative IPC: 5.384 (Simulation time: 00 hr 03 min 34 sec)
[DUEL] Epoch ended. INSTR misses = 0, DATA misses = 2. Winner = INSTR
Heartbeat CPU 0 instructions: 110000001 cycles: 19766406 heartbeat IPC: 5.997 cumulative IPC: 5.454 (Simulation time: 00 hr 03 min 55 sec)
[DUEL] Epoch ended. INSTR misses = 0, DATA misses = 0. Winner = INSTR
Heartbeat CPU 0 instructions: 120000004 cycles: 21434470 heartbeat IPC: 5.995 cumulative IPC: 5.509 (Simulation time: 00 hr 04 min 16 sec)
[DUEL] Epoch ended. INSTR misses = 0, DATA misses = 0. Winner = INSTR
[DUEL] Epoch ended. INSTR misses = 4, DATA misses = 0. Winner = DATA
*** Reached end of trace: (0, "../traces/secret_traces/crypto/crypto53.champsimtrace.xz")
[DUEL] Epoch ended. INSTR misses = 11, DATA misses = 11. Winner = INSTR
[DUEL] Epoch ended. INSTR misses = 17, DATA misses = 20. Winner = INSTR
[DUEL] Epoch ended. INSTR misses = 0, DATA misses = 0. Winner = INSTR
[DUEL] Epoch ended. INSTR misses = 0, DATA misses = 0. Winner = INSTR
[DUEL] Epoch ended. INSTR misses = 0, DATA misses = 0. Winner = INSTR
[DUEL] Epoch ended. INSTR misses = 0, DATA misses = 0. Winner = INSTR
[DUEL] Epoch ended. INSTR misses = 0, DATA misses = 0. Winner = INSTR
[DUEL] Epoch ended. INSTR misses = 0, DATA misses = 0. Winner = INSTR
[DUEL] Epoch ended. INSTR misses = 0, DATA misses = 0. Winner = INSTR
[DUEL] Epoch ended. INSTR misses = 0, DATA misses = 1. Winner = INSTR
[DUEL] Epoch ended. INSTR misses = 5, DATA misses = 9. Winner = INSTR
[DUEL] Epoch ended. INSTR misses = 15, DATA misses = 15. Winner = INSTR
Heartbeat CPU 0 instructions: 130000004 cycles: 23634140 heartbeat IPC: 4.546 cumulative IPC: 5.395 (Simulation time: 00 hr 04 min 41 sec)
Simulation finished CPU 0 instructions: 100000009 cycles: 18536198 cumulative IPC: 5.395 (Simulation time: 00 hr 04 min 41 sec)
Simulation complete CPU 0 instructions: 100000009 cycles: 18536198 cumulative IPC: 5.395 (Simulation time: 00 hr 04 min 41 sec)

ChampSim completed all CPUs

=== Simulation ===
CPU 0 runs ../traces/secret_traces/crypto/crypto53.champsimtrace.xz
Region of Interest Statistics

CPU 0 cumulative IPC: 5.395 instructions: 100000009 cycles: 18536198
CPU 0 Branch Prediction Accuracy: 98.04% MPKI: 0.4256 Average ROB Occupancy at Mispredict: 29.61
Branch type MPKI
BRANCH_DIRECT_JUMP: 0.0221
BRANCH_INDIRECT: 0.211
BRANCH_CONDITIONAL: 0.0917
BRANCH_DIRECT_CALL: 0.0606
BRANCH_INDIRECT_CALL: 0.00698
BRANCH_RETURN: 0.0331

LLC TOTAL        ACCESS:     151067 HIT:     102665 MISS:      48402
LLC LOAD         ACCESS:      14919 HIT:       7886 MISS:       7033
LLC RFO          ACCESS:      44788 HIT:      30178 MISS:      14610
LLC PREFETCH     ACCESS:      38837 HIT:      21036 MISS:      17801
LLC WRITE        ACCESS:      51592 HIT:      43383 MISS:       8209
LLC TRANSLATION  ACCESS:        931 HIT:        182 MISS:        749
LLC PREFETCH REQUESTED:          0 ISSUED:          0 USEFUL:          0 USELESS:          0
LLC AVERAGE MISS LATENCY: 176.4 cycles
cpu0_DTLB TOTAL        ACCESS:    8647295 HIT:    8632707 MISS:      14588
cpu0_DTLB LOAD         ACCESS:    8647295 HIT:    8632707 MISS:      14588
cpu0_DTLB RFO          ACCESS:          0 HIT:          0 MISS:          0
cpu0_DTLB PREFETCH     ACCESS:          0 HIT:          0 MISS:          0
cpu0_DTLB WRITE        ACCESS:          0 HIT:          0 MISS:          0
cpu0_DTLB TRANSLATION  ACCESS:          0 HIT:          0 MISS:          0
cpu0_DTLB PREFETCH REQUESTED:          0 ISSUED:          0 USEFUL:          0 USELESS:          0
cpu0_DTLB AVERAGE MISS LATENCY: 11.26 cycles
cpu0_ITLB TOTAL        ACCESS:    3137336 HIT:    3131148 MISS:       6188
cpu0_ITLB LOAD         ACCESS:    3137336 HIT:    3131148 MISS:       6188
cpu0_ITLB RFO          ACCESS:          0 HIT:          0 MISS:          0
cpu0_ITLB PREFETCH     ACCESS:          0 HIT:          0 MISS:          0
cpu0_ITLB WRITE        ACCESS:          0 HIT:          0 MISS:          0
cpu0_ITLB TRANSLATION  ACCESS:          0 HIT:          0 MISS:          0
cpu0_ITLB PREFETCH REQUESTED:          0 ISSUED:          0 USEFUL:          0 USELESS:          0
cpu0_ITLB AVERAGE MISS LATENCY: 20.67 cycles
cpu0_L1D TOTAL        ACCESS:   10285999 HIT:   10069390 MISS:     216609
cpu0_L1D LOAD         ACCESS:    5831482 HIT:    5776037 MISS:      55445
cpu0_L1D RFO          ACCESS:          0 HIT:          0 MISS:          0
cpu0_L1D PREFETCH     ACCESS:     266351 HIT:     220831 MISS:      45520
cpu0_L1D WRITE        ACCESS:    4186375 HIT:    4071916 MISS:     114459
cpu0_L1D TRANSLATION  ACCESS:       1791 HIT:        606 MISS:       1185
cpu0_L1D PREFETCH REQUESTED:    1597429 ISSUED:     266351 USEFUL:       4509 USELESS:        549
cpu0_L1D AVERAGE MISS LATENCY: 34.73 cycles
cpu0_L1I TOTAL        ACCESS:    4831226 HIT:    4758663 MISS:      72563
cpu0_L1I LOAD         ACCESS:    1427770 HIT:    1408679 MISS:      19091
cpu0_L1I RFO          ACCESS:          0 HIT:          0 MISS:          0
cpu0_L1I PREFETCH     ACCESS:    3403456 HIT:    3349984 MISS:      53472
cpu0_L1I WRITE        ACCESS:          0 HIT:          0 MISS:          0
cpu0_L1I TRANSLATION  ACCESS:          0 HIT:          0 MISS:          0
cpu0_L1I PREFETCH REQUESTED:    8721999 ISSUED:    3403491 USEFUL:      28834 USELESS:      21694
cpu0_L1I AVERAGE MISS LATENCY: 28.52 cycles
cpu0_L2C TOTAL        ACCESS:     384003 HIT:     256058 MISS:     127945
cpu0_L2C LOAD         ACCESS:      49311 HIT:      30992 MISS:      18319
cpu0_L2C RFO          ACCESS:      49527 HIT:       4716 MISS:      44811
cpu0_L2C PREFETCH     ACCESS:     226971 HIT:     163087 MISS:      63884
cpu0_L2C WRITE        ACCESS:      57030 HIT:      57030 MISS:          0
cpu0_L2C TRANSLATION  ACCESS:       1164 HIT:        233 MISS:        931
cpu0_L2C PREFETCH REQUESTED:     140398 ISSUED:     135884 USEFUL:      11134 USELESS:       8645
cpu0_L2C AVERAGE MISS LATENCY: 80.28 cycles
cpu0_STLB TOTAL        ACCESS:       9584 HIT:       7940 MISS:       1644
cpu0_STLB LOAD         ACCESS:       9584 HIT:       7940 MISS:       1644
cpu0_STLB RFO          ACCESS:          0 HIT:          0 MISS:          0
cpu0_STLB PREFETCH     ACCESS:          0 HIT:          0 MISS:          0
cpu0_STLB WRITE        ACCESS:          0 HIT:          0 MISS:          0
cpu0_STLB TRANSLATION  ACCESS:          0 HIT:          0 MISS:          0
cpu0_STLB PREFETCH REQUESTED:          0 ISSUED:          0 USEFUL:          0 USELESS:          0
cpu0_STLB AVERAGE MISS LATENCY: 151.9 cycles

DRAM Statistics

Channel 0 RQ ROW_BUFFER_HIT:       9546
  ROW_BUFFER_MISS:      10904
 AVG DBUS CONGESTED CYCLE: 3.913
WQ ROW_BUFFER_HIT: Channel 0 
  ROW_BUFFER_MISS:        983
  FULL:       7574

Channel 1 RQ ROW_BUFFER_HIT:       9054
  ROW_BUFFER_MISS:      10673
 AVG DBUS CONGESTED CYCLE: 3.899
WQ ROW_BUFFER_HIT: Channel 1 
  ROW_BUFFER_MISS:       1077
  FULL:       7017
BERTI TO_L1: 827253 TO_L2: 1256631 TO_L2_BC_MSHR: 716799
BERTI AVG_LAT: 55.7712 NUM_TRACK_LATENCY: 72701 NUM_CANT_TRACK_LATENCY: 0
BERTI CROSS_PAGE 397054 NO_CROSS_PAGE: 1686830
BERTI FOUND_BERTI: 926965 NO_FOUND_BERTI: 7290258
BERTI AVERAGE_ISSUED: 4.32227
CPU 0 L1I Entangling prefetcher final stats
IP accesses: 1f31 7cc40 166180 / 1427956
IP misses: 25bf 96fc0 72 / 19277
IP hits: 0 0 0 / 0
IP late: f9ad 3e6b40 29 / 9268
IP wrong: f801 3e0040 46 / 21606
miss rate: 0.0134998
coverage: 0
coverage_late: 0.480781
accuracy: 0
accuracy_late: 0.300188
discarded: 0
evicts entangled j table: 0
evicts entangled k table: 2941
max bb size: 56
formats: 693 0 2687 1383 541 1277 0 
hist_lookups: 2595 2610 1851 1743 1472 1233 922 688 493 409 299 201 125 68 31 0 0 3463 
hist_lookups_evict: 0 %
hist_lookups_shortlat: 19.0244 %
bb_found_hist: 0 192160 53440 62444 15169 1665 724 521 189 25713 11838 11929 33 20 12 11859 13 0 11848 0 0 22 0 6 11846 0 1 0 9416 3607 8050 2 0 0 2 0 0 0 0 0 0 0 0 0 0 0 0 0 0 0 11 0 11840 2 0 0 17 0 0 0 0 0 0 0 
bb_found_summary: 2950172 444399 6.63857
entangled_found_hist: 0 157699 55391 163644 4521 973 230 0 
entangled_found_summary: 783742 382458 2.04923
bb_ent_found_hist: 0 339425 47525 89432 5442 4308 1628 910 627 22364 8 7999 30 24 12 102 2 0 26777 0 0 35520 0 9140 0 0 0 0 0 2 5 2 0 0 3 0 0 0 0 0 0 0 0 0 0 0 0 0 0 0 11838 0 2 3 0 0 34459 0 0 0 0 0 0 0 
bb_ent_found_summary: 5019345 637589 7.87239
