WARNING: physical memory size is smaller than virtual memory size.

*** ChampSim Multicore Out-of-Order Simulator ***
Warmup Instructions: 30000000
Simulation Instructions: 100000000
Number of CPUs: 1
Page size: 4096

BTB:
Basic BTB sets: 1024 ways: 8
Indirect:
history lengths: 0 0 10 16 27 44 60 96 109 219 449 487 714 1313 2146 3881 
ITTAGE tables: 64768 bytes;Region table: 240 bytes;IUM: 384 bytes;Total Storage= 65392 bytes;
RAS:
RAS size: 64
[LLC] INSTR Demand IPV: 1 2 2 1 4 Prefetch IPV: 1 2 1 1 4
[LLC] DATA  Demand IPV: 1 1 1 2 4 Prefetch IPV: 1 1 2 2 4
Berti Prefetcher
CPU 0 Entangling prefetcher
Off-chip DRAM Size: 8 GiB Channels: 2 Width: 64-bit Data Race: 6400 MT/s
[DUEL] Epoch ended. INSTR misses = 55, DATA misses = 63. Winner = INSTR
[DUEL] Epoch ended. INSTR misses = 16, DATA misses = 18. Winner = INSTR
[DUEL] Epoch ended. INSTR misses = 0, DATA misses = 0. Winner = INSTR
[DUEL] Epoch ended. INSTR misses = 0, DATA misses = 0. Winner = INSTR
[DUEL] Epoch ended. INSTR misses = 0, DATA misses = 0. Winner = INSTR
[DUEL] Epoch ended. INSTR misses = 0, DATA misses = 0. Winner = INSTR
[DUEL] Epoch ended. INSTR misses = 16, DATA misses = 16. Winner = INSTR
[DUEL] Epoch ended. INSTR misses = 0, DATA misses = 0. Winner = INSTR
[DUEL] Epoch ended. INSTR misses = 0, DATA misses = 0. Winner = INSTR
[DUEL] Epoch ended. INSTR misses = 5, DATA misses = 4. Winner = DATA
[DUEL] Epoch ended. INSTR misses = 16, DATA misses = 16. Winner = INSTR
[DUEL] Epoch ended. INSTR misses = 3, DATA misses = 2. Winner = DATA
Heartbeat CPU 0 instructions: 10000000 cycles: 1714872 heartbeat IPC: 5.831 cumulative IPC: 5.831 (Simulation time: 00 hr 00 min 20 sec)
[DUEL] Epoch ended. INSTR misses = 12, DATA misses = 25. Winner = INSTR
[DUEL] Epoch ended. INSTR misses = 21, DATA misses = 20. Winner = DATA
[DUEL] Epoch ended. INSTR misses = 110, DATA misses = 109. Winner = DATA
[DUEL] Epoch ended. INSTR misses = 34, DATA misses = 50. Winner = INSTR
*** Reached end of trace: (0, "../traces/secret_traces/crypto/crypto72.champsimtrace.xz")
[DUEL] Epoch ended. INSTR misses = 25, DATA misses = 12. Winner = DATA
Heartbeat CPU 0 instructions: 20000001 cycles: 3446597 heartbeat IPC: 5.775 cumulative IPC: 5.803 (Simulation time: 00 hr 00 min 41 sec)
[DUEL] Epoch ended. INSTR misses = 18, DATA misses = 16. Winner = DATA
[DUEL] Epoch ended. INSTR misses = 0, DATA misses = 0. Winner = INSTR
[DUEL] Epoch ended. INSTR misses = 0, DATA misses = 0. Winner = INSTR
[DUEL] Epoch ended. INSTR misses = 0, DATA misses = 0. Winner = INSTR
[DUEL] Epoch ended. INSTR misses = 0, DATA misses = 0. Winner = INSTR
[DUEL] Epoch ended. INSTR misses = 0, DATA misses = 0. Winner = INSTR
[DUEL] Epoch ended. INSTR misses = 1, DATA misses = 0. Winner = DATA
[DUEL] Epoch ended. INSTR misses = 0, DATA misses = 0. Winner = INSTR
[DUEL] Epoch ended. INSTR misses = 0, DATA misses = 1. Winner = INSTR
[DUEL] Epoch ended. INSTR misses = 5, DATA misses = 0. Winner = DATA
[DUEL] Epoch ended. INSTR misses = 11, DATA misses = 12. Winner = INSTR
[DUEL] Epoch ended. INSTR misses = 8, DATA misses = 2. Winner = DATA
Heartbeat CPU 0 instructions: 30000010 cycles: 5150758 heartbeat IPC: 5.868 cumulative IPC: 5.824 (Simulation time: 00 hr 01 min 01 sec)
Warmup finished CPU 0 instructions: 30000010 cycles: 5150759 cumulative IPC: 5.824 (Simulation time: 00 hr 01 min 01 sec)
Warmup complete CPU 0 instructions: 30000010 cycles: 5150759 cumulative IPC: 5.824 (Simulation time: 00 hr 01 min 01 sec)
[DUEL] Epoch ended. INSTR misses = 8, DATA misses = 15. Winner = INSTR
[DUEL] Epoch ended. INSTR misses = 6, DATA misses = 3. Winner = DATA
[DUEL] Epoch ended. INSTR misses = 68, DATA misses = 72. Winner = INSTR
[DUEL] Epoch ended. INSTR misses = 12, DATA misses = 21. Winner = INSTR
*** Reached end of trace: (0, "../traces/secret_traces/crypto/crypto72.champsimtrace.xz")
[DUEL] Epoch ended. INSTR misses = 22, DATA misses = 11. Winner = DATA
[DUEL] Epoch ended. INSTR misses = 12, DATA misses = 13. Winner = INSTR
Heartbeat CPU 0 instructions: 40000004 cycles: 7710256 heartbeat IPC: 3.907 cumulative IPC: 3.907 (Simulation time: 00 hr 01 min 30 sec)
[DUEL] Epoch ended. INSTR misses = 0, DATA misses = 0. Winner = INSTR
[DUEL] Epoch ended. INSTR misses = 0, DATA misses = 0. Winner = INSTR
[DUEL] Epoch ended. INSTR misses = 0, DATA misses = 0. Winner = INSTR
[DUEL] Epoch ended. INSTR misses = 0, DATA misses = 0. Winner = INSTR
[DUEL] Epoch ended. INSTR misses = 0, DATA misses = 0. Winner = INSTR
[DUEL] Epoch ended. INSTR misses = 1, DATA misses = 0. Winner = DATA
[DUEL] Epoch ended. INSTR misses = 0, DATA misses = 0. Winner = INSTR
[DUEL] Epoch ended. INSTR misses = 0, DATA misses = 0. Winner = INSTR
[DUEL] Epoch ended. INSTR misses = 5, DATA misses = 0. Winner = DATA
[DUEL] Epoch ended. INSTR misses = 11, DATA misses = 12. Winner = INSTR
[DUEL] Epoch ended. INSTR misses = 3, DATA misses = 0. Winner = DATA
Heartbeat CPU 0 instructions: 50000005 cycles: 9659232 heartbeat IPC: 5.131 cumulative IPC: 4.436 (Simulation time: 00 hr 01 min 56 sec)
[DUEL] Epoch ended. INSTR misses = 7, DATA misses = 14. Winner = INSTR
[DUEL] Epoch ended. INSTR misses = 5, DATA misses = 3. Winner = DATA
[DUEL] Epoch ended. INSTR misses = 62, DATA misses = 65. Winner = INSTR
[DUEL] Epoch ended. INSTR misses = 8, DATA misses = 19. Winner = INSTR
*** Reached end of trace: (0, "../traces/secret_traces/crypto/crypto72.champsimtrace.xz")
[DUEL] Epoch ended. INSTR misses = 19, DATA misses = 9. Winner = DATA
[DUEL] Epoch ended. INSTR misses = 12, DATA misses = 13. Winner = INSTR
[DUEL] Epoch ended. INSTR misses = 0, DATA misses = 0. Winner = INSTR
Heartbeat CPU 0 instructions: 60000006 cycles: 12096277 heartbeat IPC: 4.103 cumulative IPC: 4.319 (Simulation time: 00 hr 02 min 24 sec)
[DUEL] Epoch ended. INSTR misses = 0, DATA misses = 0. Winner = INSTR
[DUEL] Epoch ended. INSTR misses = 0, DATA misses = 0. Winner = INSTR
[DUEL] Epoch ended. INSTR misses = 0, DATA misses = 0. Winner = INSTR
[DUEL] Epoch ended. INSTR misses = 0, DATA misses = 0. Winner = INSTR
[DUEL] Epoch ended. INSTR misses = 1, DATA misses = 0. Winner = DATA
[DUEL] Epoch ended. INSTR misses = 0, DATA misses = 0. Winner = INSTR
[DUEL] Epoch ended. INSTR misses = 2, DATA misses = 0. Winner = DATA
[DUEL] Epoch ended. INSTR misses = 3, DATA misses = 0. Winner = DATA
[DUEL] Epoch ended. INSTR misses = 11, DATA misses = 12. Winner = INSTR
[DUEL] Epoch ended. INSTR misses = 5, DATA misses = 0. Winner = DATA
Heartbeat CPU 0 instructions: 70000003 cycles: 14002007 heartbeat IPC: 5.247 cumulative IPC: 4.519 (Simulation time: 00 hr 02 min 50 sec)
[DUEL] Epoch ended. INSTR misses = 9, DATA misses = 14. Winner = INSTR
[DUEL] Epoch ended. INSTR misses = 5, DATA misses = 3. Winner = DATA
[DUEL] Epoch ended. INSTR misses = 55, DATA misses = 62. Winner = INSTR
[DUEL] Epoch ended. INSTR misses = 5, DATA misses = 14. Winner = INSTR
*** Reached end of trace: (0, "../traces/secret_traces/crypto/crypto72.champsimtrace.xz")
[DUEL] Epoch ended. INSTR misses = 17, DATA misses = 3. Winner = DATA
[DUEL] Epoch ended. INSTR misses = 12, DATA misses = 14. Winner = INSTR
[DUEL] Epoch ended. INSTR misses = 0, DATA misses = 0. Winner = INSTR
[DUEL] Epoch ended. INSTR misses = 0, DATA misses = 0. Winner = INSTR
Heartbeat CPU 0 instructions: 80000000 cycles: 16379552 heartbeat IPC: 4.206 cumulative IPC: 4.453 (Simulation time: 00 hr 03 min 19 sec)
[DUEL] Epoch ended. INSTR misses = 0, DATA misses = 0. Winner = INSTR
[DUEL] Epoch ended. INSTR misses = 0, DATA misses = 0. Winner = INSTR
[DUEL] Epoch ended. INSTR misses = 0, DATA misses = 0. Winner = INSTR
[DUEL] Epoch ended. INSTR misses = 0, DATA misses = 0. Winner = INSTR
[DUEL] Epoch ended. INSTR misses = 0, DATA misses = 0. Winner = INSTR
[DUEL] Epoch ended. INSTR misses = 2, DATA misses = 0. Winner = DATA
[DUEL] Epoch ended. INSTR misses = 3, DATA misses = 0. Winner = DATA
[DUEL] Epoch ended. INSTR misses = 11, DATA misses = 12. Winner = INSTR
[DUEL] Epoch ended. INSTR misses = 1, DATA misses = 0. Winner = DATA
Heartbeat CPU 0 instructions: 90000000 cycles: 18270050 heartbeat IPC: 5.29 cumulative IPC: 4.573 (Simulation time: 00 hr 03 min 44 sec)
[DUEL] Epoch ended. INSTR misses = 7, DATA misses = 14. Winner = INSTR
[DUEL] Epoch ended. INSTR misses = 6, DATA misses = 3. Winner = DATA
[DUEL] Epoch ended. INSTR misses = 54, DATA misses = 62. Winner = INSTR
[DUEL] Epoch ended. INSTR misses = 5, DATA misses = 13. Winner = INSTR
*** Reached end of trace: (0, "../traces/secret_traces/crypto/crypto72.champsimtrace.xz")
[DUEL] Epoch ended. INSTR misses = 11, DATA misses = 5. Winner = DATA
[DUEL] Epoch ended. INSTR misses = 11, DATA misses = 14. Winner = INSTR
[DUEL] Epoch ended. INSTR misses = 0, DATA misses = 0. Winner = INSTR
[DUEL] Epoch ended. INSTR misses = 0, DATA misses = 0. Winner = INSTR
[DUEL] Epoch ended. INSTR misses = 0, DATA misses = 0. Winner = INSTR
Heartbeat CPU 0 instructions: 100000000 cycles: 20626616 heartbeat IPC: 4.243 cumulative IPC: 4.523 (Simulation time: 00 hr 04 min 12 sec)
[DUEL] Epoch ended. INSTR misses = 0, DATA misses = 0. Winner = INSTR
[DUEL] Epoch ended. INSTR misses = 0, DATA misses = 0. Winner = INSTR
[DUEL] Epoch ended. INSTR misses = 0, DATA misses = 0. Winner = INSTR
[DUEL] Epoch ended. INSTR misses = 0, DATA misses = 0. Winner = INSTR
[DUEL] Epoch ended. INSTR misses = 0, DATA misses = 0. Winner = INSTR
[DUEL] Epoch ended. INSTR misses = 3, DATA misses = 0. Winner = DATA
[DUEL] Epoch ended. INSTR misses = 11, DATA misses = 12. Winner = INSTR
[DUEL] Epoch ended. INSTR misses = 8, DATA misses = 0. Winner = DATA
Heartbeat CPU 0 instructions: 110000002 cycles: 22502691 heartbeat IPC: 5.33 cumulative IPC: 4.61 (Simulation time: 00 hr 04 min 38 sec)
[DUEL] Epoch ended. INSTR misses = 7, DATA misses = 14. Winner = INSTR
[DUEL] Epoch ended. INSTR misses = 6, DATA misses = 3. Winner = DATA
[DUEL] Epoch ended. INSTR misses = 50, DATA misses = 62. Winner = INSTR
[DUEL] Epoch ended. INSTR misses = 5, DATA misses = 12. Winner = INSTR
*** Reached end of trace: (0, "../traces/secret_traces/crypto/crypto72.champsimtrace.xz")
[DUEL] Epoch ended. INSTR misses = 15, DATA misses = 6. Winner = DATA
[DUEL] Epoch ended. INSTR misses = 11, DATA misses = 14. Winner = INSTR
[DUEL] Epoch ended. INSTR misses = 0, DATA misses = 0. Winner = INSTR
[DUEL] Epoch ended. INSTR misses = 0, DATA misses = 0. Winner = INSTR
[DUEL] Epoch ended. INSTR misses = 0, DATA misses = 0. Winner = INSTR
[DUEL] Epoch ended. INSTR misses = 0, DATA misses = 0. Winner = INSTR
Heartbeat CPU 0 instructions: 120000005 cycles: 24860402 heartbeat IPC: 4.241 cumulative IPC: 4.566 (Simulation time: 00 hr 05 min 06 sec)
[DUEL] Epoch ended. INSTR misses = 0, DATA misses = 0. Winner = INSTR
[DUEL] Epoch ended. INSTR misses = 0, DATA misses = 0. Winner = INSTR
[DUEL] Epoch ended. INSTR misses = 0, DATA misses = 0. Winner = INSTR
[DUEL] Epoch ended. INSTR misses = 0, DATA misses = 0. Winner = INSTR
[DUEL] Epoch ended. INSTR misses = 5, DATA misses = 0. Winner = DATA
[DUEL] Epoch ended. INSTR misses = 11, DATA misses = 12. Winner = INSTR
[DUEL] Epoch ended. INSTR misses = 8, DATA misses = 0. Winner = DATA
Heartbeat CPU 0 instructions: 130000004 cycles: 26718489 heartbeat IPC: 5.382 cumulative IPC: 4.637 (Simulation time: 00 hr 05 min 32 sec)
Simulation finished CPU 0 instructions: 100000006 cycles: 21567732 cumulative IPC: 4.637 (Simulation time: 00 hr 05 min 32 sec)
Simulation complete CPU 0 instructions: 100000006 cycles: 21567732 cumulative IPC: 4.637 (Simulation time: 00 hr 05 min 32 sec)

ChampSim completed all CPUs

=== Simulation ===
CPU 0 runs ../traces/secret_traces/crypto/crypto72.champsimtrace.xz
Region of Interest Statistics

CPU 0 cumulative IPC: 4.637 instructions: 100000006 cycles: 21567732
CPU 0 Branch Prediction Accuracy: 98.15% MPKI: 1.122 Average ROB Occupancy at Mispredict: 32.16
Branch type MPKI
BRANCH_DIRECT_JUMP: 0.0695
BRANCH_INDIRECT: 0.601
BRANCH_CONDITIONAL: 0.133
BRANCH_DIRECT_CALL: 0.191
BRANCH_INDIRECT_CALL: 0.0229
BRANCH_RETURN: 0.105

LLC TOTAL        ACCESS:     568989 HIT:     422420 MISS:     146569
LLC LOAD         ACCESS:      56534 HIT:      30883 MISS:      25651
LLC RFO          ACCESS:     178107 HIT:     142988 MISS:      35119
LLC PREFETCH     ACCESS:     136579 HIT:      75005 MISS:      61574
LLC WRITE        ACCESS:     194743 HIT:     172663 MISS:      22080
LLC TRANSLATION  ACCESS:       3026 HIT:        881 MISS:       2145
LLC PREFETCH REQUESTED:          0 ISSUED:          0 USEFUL:          0 USELESS:          0
LLC AVERAGE MISS LATENCY: 168.5 cycles
cpu0_DTLB TOTAL        ACCESS:   13336862 HIT:   13282360 MISS:      54502
cpu0_DTLB LOAD         ACCESS:   13336862 HIT:   13282360 MISS:      54502
cpu0_DTLB RFO          ACCESS:          0 HIT:          0 MISS:          0
cpu0_DTLB PREFETCH     ACCESS:          0 HIT:          0 MISS:          0
cpu0_DTLB WRITE        ACCESS:          0 HIT:          0 MISS:          0
cpu0_DTLB TRANSLATION  ACCESS:          0 HIT:          0 MISS:          0
cpu0_DTLB PREFETCH REQUESTED:          0 ISSUED:          0 USEFUL:          0 USELESS:          0
cpu0_DTLB AVERAGE MISS LATENCY: 9.458 cycles
cpu0_ITLB TOTAL        ACCESS:     943232 HIT:     924988 MISS:      18244
cpu0_ITLB LOAD         ACCESS:     943232 HIT:     924988 MISS:      18244
cpu0_ITLB RFO          ACCESS:          0 HIT:          0 MISS:          0
cpu0_ITLB PREFETCH     ACCESS:          0 HIT:          0 MISS:          0
cpu0_ITLB WRITE        ACCESS:          0 HIT:          0 MISS:          0
cpu0_ITLB TRANSLATION  ACCESS:          0 HIT:          0 MISS:          0
cpu0_ITLB PREFETCH REQUESTED:          0 ISSUED:          0 USEFUL:          0 USELESS:          0
cpu0_ITLB AVERAGE MISS LATENCY: 16.95 cycles
cpu0_L1D TOTAL        ACCESS:   17051636 HIT:   16230787 MISS:     820849
cpu0_L1D LOAD         ACCESS:   12246571 HIT:   12034855 MISS:     211716
cpu0_L1D RFO          ACCESS:          0 HIT:          0 MISS:          0
cpu0_L1D PREFETCH     ACCESS:     810224 HIT:     669170 MISS:     141054
cpu0_L1D WRITE        ACCESS:    3988542 HIT:    3524421 MISS:     464121
cpu0_L1D TRANSLATION  ACCESS:       6299 HIT:       2341 MISS:       3958
cpu0_L1D PREFETCH REQUESTED:    5110601 ISSUED:     810224 USEFUL:      17063 USELESS:       1711
cpu0_L1D AVERAGE MISS LATENCY: 27.82 cycles
cpu0_L1I TOTAL        ACCESS:    1372464 HIT:    1151768 MISS:     220696
cpu0_L1I LOAD         ACCESS:     447941 HIT:     398500 MISS:      49441
cpu0_L1I RFO          ACCESS:          0 HIT:          0 MISS:          0
cpu0_L1I PREFETCH     ACCESS:     924523 HIT:     753268 MISS:     171255
cpu0_L1I WRITE        ACCESS:          0 HIT:          0 MISS:          0
cpu0_L1I TRANSLATION  ACCESS:          0 HIT:          0 MISS:          0
cpu0_L1I PREFETCH REQUESTED:    1503297 ISSUED:     924523 USEFUL:      97507 USELESS:      66897
cpu0_L1I AVERAGE MISS LATENCY: 31.11 cycles
cpu0_L2C TOTAL        ACCESS:    1289024 HIT:     809329 MISS:     479695
cpu0_L2C LOAD         ACCESS:     167725 HIT:      97654 MISS:      70071
cpu0_L2C RFO          ACCESS:     192096 HIT:      13927 MISS:     178169
cpu0_L2C PREFETCH     ACCESS:     706015 HIT:     477588 MISS:     228427
cpu0_L2C WRITE        ACCESS:     219373 HIT:     219371 MISS:          2
cpu0_L2C TRANSLATION  ACCESS:       3815 HIT:        789 MISS:       3026
cpu0_L2C PREFETCH REQUESTED:     448247 ISSUED:     425746 USEFUL:      34427 USELESS:      32140
cpu0_L2C AVERAGE MISS LATENCY: 64.95 cycles
cpu0_STLB TOTAL        ACCESS:      32244 HIT:      26448 MISS:       5796
cpu0_STLB LOAD         ACCESS:      32244 HIT:      26448 MISS:       5796
cpu0_STLB RFO          ACCESS:          0 HIT:          0 MISS:          0
cpu0_STLB PREFETCH     ACCESS:          0 HIT:          0 MISS:          0
cpu0_STLB WRITE        ACCESS:          0 HIT:          0 MISS:          0
cpu0_STLB TRANSLATION  ACCESS:          0 HIT:          0 MISS:          0
cpu0_STLB PREFETCH REQUESTED:          0 ISSUED:          0 USEFUL:          0 USELESS:          0
cpu0_STLB AVERAGE MISS LATENCY: 118.8 cycles

DRAM Statistics

Channel 0 RQ ROW_BUFFER_HIT:      29997
  ROW_BUFFER_MISS:      33515
 AVG DBUS CONGESTED CYCLE: 3.898
WQ ROW_BUFFER_HIT: Channel 0 
  ROW_BUFFER_MISS:       2466
  FULL:      18106

Channel 1 RQ ROW_BUFFER_HIT:      28746
  ROW_BUFFER_MISS:      32168
 AVG DBUS CONGESTED CYCLE: 3.883
WQ ROW_BUFFER_HIT: Channel 1 
  ROW_BUFFER_MISS:       2520
  FULL:      16404
BERTI TO_L1: 1780446 TO_L2: 4250834 TO_L2_BC_MSHR: 2420766
BERTI AVG_LAT: 68.2572 NUM_TRACK_LATENCY: 197821 NUM_CANT_TRACK_LATENCY: 3
BERTI CROSS_PAGE 1180002 NO_CROSS_PAGE: 4851278
BERTI FOUND_BERTI: 1753400 NO_FOUND_BERTI: 14780835
BERTI AVERAGE_ISSUED: 3.66719
CPU 0 L1I Entangling prefetcher final stats
IP accesses: 6f71 1bdc40 2261 / 449446
IP misses: 25bf 96fc0 203 / 50946
IP hits: 0 0 0 / 0
IP late: 6e9e 1ba780 101 / 24499
IP wrong: 251e 94780 180 / 66609
miss rate: 0.113353
coverage: 0
coverage_late: 0.480882
accuracy: 0
accuracy_late: 0.268901
discarded: 0
evicts entangled j table: 0
evicts entangled k table: 8602
max bb size: 53
formats: 2189 0 6636 3405 1304 2380 0 
hist_lookups: 5253 6096 4834 4515 4139 3468 2577 1933 1508 1277 1033 680 424 214 114 0 3 8042 
hist_lookups_evict: 0.00650619 %
hist_lookups_shortlat: 17.441 %
bb_found_hist: 0 116400 49587 23984 10723 5454 2588 1950 650 132 10 140 150 124 35 50 5 10 0 0 0 10 0 0 0 0 0 0 0 0 0 5 0 0 5 0 0 0 0 0 0 0 0 0 0 0 0 0 0 0 0 0 0 5 0 0 0 0 0 0 0 0 0 0 
bb_found_summary: 400596 212017 1.88946
entangled_found_hist: 0 60650 45709 85008 16672 3626 732 0 
entangled_found_summary: 496302 212397 2.33668
bb_ent_found_hist: 0 165647 74819 50331 20287 12090 5239 4151 2512 164 0 209 119 67 20 134 327 5 0 0 0 25 0 0 0 0 0 0 0 0 0 5 0 0 10 0 0 0 0 0 0 0 0 0 0 0 0 0 0 0 0 0 0 9 0 0 0 0 0 0 0 0 0 0 
bb_ent_found_summary: 703641 336170 2.09312
