WARNING: physical memory size is smaller than virtual memory size.

*** ChampSim Multicore Out-of-Order Simulator ***
Warmup Instructions: 30000000
Simulation Instructions: 100000000
Number of CPUs: 1
Page size: 4096

BTB:
Basic BTB sets: 1024 ways: 8
Indirect:
history lengths: 0 0 10 16 27 44 60 96 109 219 449 487 714 1313 2146 3881 
ITTAGE tables: 64768 bytes;Region table: 240 bytes;IUM: 384 bytes;Total Storage= 65392 bytes;
RAS:
RAS size: 64
[LLC] INSTR Demand IPV: 1 2 2 1 4 Prefetch IPV: 1 2 1 1 4
[LLC] DATA  Demand IPV: 1 1 1 2 4 Prefetch IPV: 1 1 2 2 4
Berti Prefetcher
CPU 0 Entangling prefetcher
Off-chip DRAM Size: 8 GiB Channels: 2 Width: 64-bit Data Race: 6400 MT/s
[DUEL] Epoch ended. INSTR misses = 55, DATA misses = 63. Winner = INSTR
[DUEL] Epoch ended. INSTR misses = 16, DATA misses = 18. Winner = INSTR
[DUEL] Epoch ended. INSTR misses = 0, DATA misses = 0. Winner = INSTR
[DUEL] Epoch ended. INSTR misses = 0, DATA misses = 0. Winner = INSTR
[DUEL] Epoch ended. INSTR misses = 0, DATA misses = 0. Winner = INSTR
[DUEL] Epoch ended. INSTR misses = 0, DATA misses = 0. Winner = INSTR
[DUEL] Epoch ended. INSTR misses = 16, DATA misses = 16. Winner = INSTR
[DUEL] Epoch ended. INSTR misses = 0, DATA misses = 0. Winner = INSTR
[DUEL] Epoch ended. INSTR misses = 0, DATA misses = 0. Winner = INSTR
[DUEL] Epoch ended. INSTR misses = 0, DATA misses = 4. Winner = INSTR
[DUEL] Epoch ended. INSTR misses = 0, DATA misses = 0. Winner = INSTR
[DUEL] Epoch ended. INSTR misses = 0, DATA misses = 0. Winner = INSTR
[DUEL] Epoch ended. INSTR misses = 3, DATA misses = 2. Winner = DATA
Heartbeat CPU 0 instructions: 10000008 cycles: 1870293 heartbeat IPC: 5.347 cumulative IPC: 5.347 (Simulation time: 00 hr 00 min 24 sec)
[DUEL] Epoch ended. INSTR misses = 1, DATA misses = 10. Winner = INSTR
[DUEL] Epoch ended. INSTR misses = 21, DATA misses = 20. Winner = DATA
[DUEL] Epoch ended. INSTR misses = 88, DATA misses = 92. Winner = INSTR
Heartbeat CPU 0 instructions: 20000003 cycles: 3799564 heartbeat IPC: 5.183 cumulative IPC: 5.264 (Simulation time: 00 hr 00 min 49 sec)
[DUEL] Epoch ended. INSTR misses = 19, DATA misses = 25. Winner = INSTR
Heartbeat CPU 0 instructions: 30000004 cycles: 5696631 heartbeat IPC: 5.271 cumulative IPC: 5.266 (Simulation time: 00 hr 01 min 14 sec)
Warmup finished CPU 0 instructions: 30000004 cycles: 5696632 cumulative IPC: 5.266 (Simulation time: 00 hr 01 min 14 sec)
Warmup complete CPU 0 instructions: 30000004 cycles: 5696632 cumulative IPC: 5.266 (Simulation time: 00 hr 01 min 14 sec)
[DUEL] Epoch ended. INSTR misses = 0, DATA misses = 1. Winner = INSTR
Heartbeat CPU 0 instructions: 40000011 cycles: 7595326 heartbeat IPC: 5.267 cumulative IPC: 5.267 (Simulation time: 00 hr 01 min 42 sec)
[DUEL] Epoch ended. INSTR misses = 0, DATA misses = 0. Winner = INSTR
*** Reached end of trace: (0, "../traces/secret_traces/crypto/crypto92.champsimtrace.xz")
[DUEL] Epoch ended. INSTR misses = 5, DATA misses = 10. Winner = INSTR
[DUEL] Epoch ended. INSTR misses = 9, DATA misses = 14. Winner = INSTR
[DUEL] Epoch ended. INSTR misses = 0, DATA misses = 0. Winner = INSTR
[DUEL] Epoch ended. INSTR misses = 0, DATA misses = 0. Winner = INSTR
[DUEL] Epoch ended. INSTR misses = 0, DATA misses = 0. Winner = INSTR
[DUEL] Epoch ended. INSTR misses = 0, DATA misses = 0. Winner = INSTR
[DUEL] Epoch ended. INSTR misses = 0, DATA misses = 0. Winner = INSTR
[DUEL] Epoch ended. INSTR misses = 0, DATA misses = 0. Winner = INSTR
[DUEL] Epoch ended. INSTR misses = 0, DATA misses = 0. Winner = INSTR
[DUEL] Epoch ended. INSTR misses = 0, DATA misses = 1. Winner = INSTR
Heartbeat CPU 0 instructions: 50000010 cycles: 9996050 heartbeat IPC: 4.165 cumulative IPC: 4.652 (Simulation time: 00 hr 02 min 12 sec)
[DUEL] Epoch ended. INSTR misses = 0, DATA misses = 0. Winner = INSTR
[DUEL] Epoch ended. INSTR misses = 1, DATA misses = 0. Winner = DATA
[DUEL] Epoch ended. INSTR misses = 1, DATA misses = 1. Winner = INSTR
[DUEL] Epoch ended. INSTR misses = 0, DATA misses = 0. Winner = INSTR
Heartbeat CPU 0 instructions: 60000000 cycles: 12057883 heartbeat IPC: 4.85 cumulative IPC: 4.716 (Simulation time: 00 hr 02 min 41 sec)
[DUEL] Epoch ended. INSTR misses = 1, DATA misses = 1. Winner = INSTR
[DUEL] Epoch ended. INSTR misses = 1, DATA misses = 9. Winner = INSTR
[DUEL] Epoch ended. INSTR misses = 22, DATA misses = 39. Winner = INSTR
Heartbeat CPU 0 instructions: 70000000 cycles: 14473035 heartbeat IPC: 4.141 cumulative IPC: 4.558 (Simulation time: 00 hr 03 min 12 sec)
[DUEL] Epoch ended. INSTR misses = 14, DATA misses = 21. Winner = INSTR
Heartbeat CPU 0 instructions: 80000004 cycles: 16383790 heartbeat IPC: 5.234 cumulative IPC: 4.679 (Simulation time: 00 hr 03 min 40 sec)
[DUEL] Epoch ended. INSTR misses = 2, DATA misses = 1. Winner = DATA
Heartbeat CPU 0 instructions: 90000005 cycles: 18281551 heartbeat IPC: 5.269 cumulative IPC: 4.768 (Simulation time: 00 hr 04 min 08 sec)
[DUEL] Epoch ended. INSTR misses = 0, DATA misses = 0. Winner = INSTR
*** Reached end of trace: (0, "../traces/secret_traces/crypto/crypto92.champsimtrace.xz")
[DUEL] Epoch ended. INSTR misses = 3, DATA misses = 6. Winner = INSTR
[DUEL] Epoch ended. INSTR misses = 8, DATA misses = 12. Winner = INSTR
[DUEL] Epoch ended. INSTR misses = 0, DATA misses = 0. Winner = INSTR
[DUEL] Epoch ended. INSTR misses = 0, DATA misses = 0. Winner = INSTR
[DUEL] Epoch ended. INSTR misses = 0, DATA misses = 0. Winner = INSTR
[DUEL] Epoch ended. INSTR misses = 0, DATA misses = 0. Winner = INSTR
[DUEL] Epoch ended. INSTR misses = 0, DATA misses = 0. Winner = INSTR
[DUEL] Epoch ended. INSTR misses = 0, DATA misses = 0. Winner = INSTR
[DUEL] Epoch ended. INSTR misses = 0, DATA misses = 0. Winner = INSTR
[DUEL] Epoch ended. INSTR misses = 0, DATA misses = 1. Winner = INSTR
[DUEL] Epoch ended. INSTR misses = 0, DATA misses = 0. Winner = INSTR
[DUEL] Epoch ended. INSTR misses = 1, DATA misses = 1. Winner = INSTR
[DUEL] Epoch ended. INSTR misses = 0, DATA misses = 0. Winner = INSTR
Heartbeat CPU 0 instructions: 100000007 cycles: 20616887 heartbeat IPC: 4.282 cumulative IPC: 4.692 (Simulation time: 00 hr 04 min 38 sec)
[DUEL] Epoch ended. INSTR misses = 0, DATA misses = 0. Winner = INSTR
Heartbeat CPU 0 instructions: 110000010 cycles: 22561444 heartbeat IPC: 5.143 cumulative IPC: 4.744 (Simulation time: 00 hr 05 min 06 sec)
[DUEL] Epoch ended. INSTR misses = 1, DATA misses = 4. Winner = INSTR
[DUEL] Epoch ended. INSTR misses = 3, DATA misses = 4. Winner = INSTR
[DUEL] Epoch ended. INSTR misses = 19, DATA misses = 34. Winner = INSTR
Heartbeat CPU 0 instructions: 120000001 cycles: 24882783 heartbeat IPC: 4.308 cumulative IPC: 4.691 (Simulation time: 00 hr 05 min 37 sec)
[DUEL] Epoch ended. INSTR misses = 12, DATA misses = 20. Winner = INSTR
Heartbeat CPU 0 instructions: 130000004 cycles: 26792821 heartbeat IPC: 5.235 cumulative IPC: 4.74 (Simulation time: 00 hr 06 min 05 sec)
Simulation finished CPU 0 instructions: 100000000 cycles: 21096190 cumulative IPC: 4.74 (Simulation time: 00 hr 06 min 05 sec)
Simulation complete CPU 0 instructions: 100000000 cycles: 21096190 cumulative IPC: 4.74 (Simulation time: 00 hr 06 min 05 sec)

ChampSim completed all CPUs

=== Simulation ===
CPU 0 runs ../traces/secret_traces/crypto/crypto92.champsimtrace.xz
Region of Interest Statistics

CPU 0 cumulative IPC: 4.74 instructions: 100000000 cycles: 21096190
CPU 0 Branch Prediction Accuracy: 99.73% MPKI: 0.5649 Average ROB Occupancy at Mispredict: 30.8
Branch type MPKI
BRANCH_DIRECT_JUMP: 0.0297
BRANCH_INDIRECT: 0.279
BRANCH_CONDITIONAL: 0.11
BRANCH_DIRECT_CALL: 0.0875
BRANCH_INDIRECT_CALL: 0.011
BRANCH_RETURN: 0.0478

LLC TOTAL        ACCESS:     233641 HIT:     167655 MISS:      65986
LLC LOAD         ACCESS:      25380 HIT:      13295 MISS:      12085
LLC RFO          ACCESS:      71930 HIT:      56633 MISS:      15297
LLC PREFETCH     ACCESS:      55795 HIT:      29097 MISS:      26698
LLC WRITE        ACCESS:      79164 HIT:      68312 MISS:      10852
LLC TRANSLATION  ACCESS:       1372 HIT:        318 MISS:       1054
LLC PREFETCH REQUESTED:          0 ISSUED:          0 USEFUL:          0 USELESS:          0
LLC AVERAGE MISS LATENCY: 145.5 cycles
cpu0_DTLB TOTAL        ACCESS:   13744606 HIT:   13722268 MISS:      22338
cpu0_DTLB LOAD         ACCESS:   13744606 HIT:   13722268 MISS:      22338
cpu0_DTLB RFO          ACCESS:          0 HIT:          0 MISS:          0
cpu0_DTLB PREFETCH     ACCESS:          0 HIT:          0 MISS:          0
cpu0_DTLB WRITE        ACCESS:          0 HIT:          0 MISS:          0
cpu0_DTLB TRANSLATION  ACCESS:          0 HIT:          0 MISS:          0
cpu0_DTLB PREFETCH REQUESTED:          0 ISSUED:          0 USEFUL:          0 USELESS:          0
cpu0_DTLB AVERAGE MISS LATENCY: 10.59 cycles
cpu0_ITLB TOTAL        ACCESS:   13190518 HIT:   13182409 MISS:       8109
cpu0_ITLB LOAD         ACCESS:   13190518 HIT:   13182409 MISS:       8109
cpu0_ITLB RFO          ACCESS:          0 HIT:          0 MISS:          0
cpu0_ITLB PREFETCH     ACCESS:          0 HIT:          0 MISS:          0
cpu0_ITLB WRITE        ACCESS:          0 HIT:          0 MISS:          0
cpu0_ITLB TRANSLATION  ACCESS:          0 HIT:          0 MISS:          0
cpu0_ITLB PREFETCH REQUESTED:          0 ISSUED:          0 USEFUL:          0 USELESS:          0
cpu0_ITLB AVERAGE MISS LATENCY: 19.8 cycles
cpu0_L1D TOTAL        ACCESS:   21589074 HIT:   21261531 MISS:     327543
cpu0_L1D LOAD         ACCESS:    8664673 HIT:    8579435 MISS:      85238
cpu0_L1D RFO          ACCESS:          0 HIT:          0 MISS:          0
cpu0_L1D PREFETCH     ACCESS:     280107 HIT:     227388 MISS:      52719
cpu0_L1D WRITE        ACCESS:   12641518 HIT:   12453721 MISS:     187797
cpu0_L1D TRANSLATION  ACCESS:       2776 HIT:        987 MISS:       1789
cpu0_L1D PREFETCH REQUESTED:    1789793 ISSUED:     280107 USEFUL:       5867 USELESS:        769
cpu0_L1D AVERAGE MISS LATENCY: 26.93 cycles
cpu0_L1I TOTAL        ACCESS:   20108059 HIT:   20011045 MISS:      97014
cpu0_L1I LOAD         ACCESS:    4385090 HIT:    4360980 MISS:      24110
cpu0_L1I RFO          ACCESS:          0 HIT:          0 MISS:          0
cpu0_L1I PREFETCH     ACCESS:   15722969 HIT:   15650065 MISS:      72904
cpu0_L1I WRITE        ACCESS:          0 HIT:          0 MISS:          0
cpu0_L1I TRANSLATION  ACCESS:          0 HIT:          0 MISS:          0
cpu0_L1I PREFETCH REQUESTED:   18489594 ISSUED:   15722965 USEFUL:      39502 USELESS:      29772
cpu0_L1I AVERAGE MISS LATENCY: 29.69 cycles
cpu0_L2C TOTAL        ACCESS:     529266 HIT:     328613 MISS:     200653
cpu0_L2C LOAD         ACCESS:      72055 HIT:      41328 MISS:      30727
cpu0_L2C RFO          ACCESS:      77675 HIT:       5717 MISS:      71958
cpu0_L2C PREFETCH     ACCESS:     289058 HIT:     192462 MISS:      96596
cpu0_L2C WRITE        ACCESS:      88752 HIT:      88752 MISS:          0
cpu0_L2C TRANSLATION  ACCESS:       1726 HIT:        354 MISS:       1372
cpu0_L2C PREFETCH REQUESTED:     184317 ISSUED:     176796 USEFUL:      14732 USELESS:      13473
cpu0_L2C AVERAGE MISS LATENCY: 61.61 cycles
cpu0_STLB TOTAL        ACCESS:      13638 HIT:      11106 MISS:       2532
cpu0_STLB LOAD         ACCESS:      13638 HIT:      11106 MISS:       2532
cpu0_STLB RFO          ACCESS:          0 HIT:          0 MISS:          0
cpu0_STLB PREFETCH     ACCESS:          0 HIT:          0 MISS:          0
cpu0_STLB WRITE        ACCESS:          0 HIT:          0 MISS:          0
cpu0_STLB TRANSLATION  ACCESS:          0 HIT:          0 MISS:          0
cpu0_STLB PREFETCH REQUESTED:          0 ISSUED:          0 USEFUL:          0 USELESS:          0
cpu0_STLB AVERAGE MISS LATENCY: 133.9 cycles

DRAM Statistics

Channel 0 RQ ROW_BUFFER_HIT:      13674
  ROW_BUFFER_MISS:      14374
 AVG DBUS CONGESTED CYCLE: 3.879
WQ ROW_BUFFER_HIT: Channel 0 
  ROW_BUFFER_MISS:       1063
  FULL:       6442

Channel 1 RQ ROW_BUFFER_HIT:      13335
  ROW_BUFFER_MISS:      13742
 AVG DBUS CONGESTED CYCLE: 3.86
WQ ROW_BUFFER_HIT: Channel 1 
  ROW_BUFFER_MISS:       1078
  FULL:       5794
BERTI TO_L1: 834780 TO_L2: 1443448 TO_L2_BC_MSHR: 781062
BERTI AVG_LAT: 56.7584 NUM_TRACK_LATENCY: 94402 NUM_CANT_TRACK_LATENCY: 0
BERTI CROSS_PAGE 475593 NO_CROSS_PAGE: 1802635
BERTI FOUND_BERTI: 511809 NO_FOUND_BERTI: 11233486
BERTI AVERAGE_ISSUED: 4.08562
CPU 0 L1I Entangling prefetcher final stats
IP accesses: 1f30 7cc00 255199 / 4385865
IP misses: 25bf 96fc0 91 / 24885
IP hits: 0 0 0 / 0
IP late: 20a2 82880 29 / 11799
IP wrong: f7ed 3dfb40 61 / 29642
miss rate: 0.00567391
coverage: 0
coverage_late: 0.474142
accuracy: 0
accuracy_late: 0.284719
discarded: 0
evicts entangled j table: 0
evicts entangled k table: 3986
max bb size: 53
formats: 921 0 3633 1664 734 1623 0 
hist_lookups: 3245 3454 2517 2188 1872 1631 1183 883 672 566 437 284 161 98 47 0 3 4353 
hist_lookups_evict: 0.0127151 %
hist_lookups_shortlat: 18.4497 %
bb_found_hist: 0 1640724 453280 391636 55774 2227 1148 730 265 64 2 67 60 46 15 20 2 0 0 0 0 4 0 0 0 0 0 0 0 0 0 2 0 0 2 0 0 0 0 0 0 0 0 0 0 0 0 0 0 0 0 0 0 2 0 0 0 0 0 0 0 0 0 0 
bb_found_summary: 3974054 2546070 1.56086
entangled_found_hist: 0 436849 602087 1268975 90710 8493 16513 0 
entangled_found_summary: 5952331 2423627 2.45597
bb_ent_found_hist: 0 2470473 408718 867067 338094 187922 1983 56652 744 70 0 72 63 38 15 132 72 0 0 0 0 9 0 0 0 0 0 0 0 0 0 2 0 0 3 0 0 0 0 0 0 0 0 0 0 0 0 0 0 0 0 0 0 3 0 0 0 0 0 0 0 0 0 0 
bb_ent_found_summary: 8602036 4332132 1.98564
