WARNING: physical memory size is smaller than virtual memory size.

*** ChampSim Multicore Out-of-Order Simulator ***
Warmup Instructions: 30000000
Simulation Instructions: 100000000
Number of CPUs: 1
Page size: 4096

BTB:
Basic BTB sets: 1024 ways: 8
Indirect:
history lengths: 0 0 10 16 27 44 60 96 109 219 449 487 714 1313 2146 3881 
ITTAGE tables: 64768 bytes;Region table: 240 bytes;IUM: 384 bytes;Total Storage= 65392 bytes;
RAS:
RAS size: 64
[LLC] INSTR Demand IPV: 1 2 2 1 4 Prefetch IPV: 1 2 1 1 4
[LLC] DATA  Demand IPV: 1 1 1 2 4 Prefetch IPV: 1 1 2 2 4
Berti Prefetcher
CPU 0 Entangling prefetcher
Off-chip DRAM Size: 8 GiB Channels: 2 Width: 64-bit Data Race: 6400 MT/s
[DUEL] Epoch ended. INSTR misses = 52, DATA misses = 61. Winner = INSTR
[DUEL] Epoch ended. INSTR misses = 16, DATA misses = 16. Winner = INSTR
[DUEL] Epoch ended. INSTR misses = 0, DATA misses = 0. Winner = INSTR
[DUEL] Epoch ended. INSTR misses = 0, DATA misses = 0. Winner = INSTR
[DUEL] Epoch ended. INSTR misses = 0, DATA misses = 0. Winner = INSTR
[DUEL] Epoch ended. INSTR misses = 0, DATA misses = 0. Winner = INSTR
[DUEL] Epoch ended. INSTR misses = 16, DATA misses = 16. Winner = INSTR
[DUEL] Epoch ended. INSTR misses = 0, DATA misses = 0. Winner = INSTR
[DUEL] Epoch ended. INSTR misses = 0, DATA misses = 0. Winner = INSTR
[DUEL] Epoch ended. INSTR misses = 0, DATA misses = 3. Winner = INSTR
[DUEL] Epoch ended. INSTR misses = 1, DATA misses = 1. Winner = INSTR
[DUEL] Epoch ended. INSTR misses = 0, DATA misses = 0. Winner = INSTR
[DUEL] Epoch ended. INSTR misses = 3, DATA misses = 0. Winner = DATA
Heartbeat CPU 0 instructions: 10000000 cycles: 1724511 heartbeat IPC: 5.799 cumulative IPC: 5.799 (Simulation time: 00 hr 00 min 20 sec)
[DUEL] Epoch ended. INSTR misses = 21, DATA misses = 26. Winner = INSTR
[DUEL] Epoch ended. INSTR misses = 23, DATA misses = 19. Winner = DATA
[DUEL] Epoch ended. INSTR misses = 94, DATA misses = 91. Winner = DATA
[DUEL] Epoch ended. INSTR misses = 33, DATA misses = 23. Winner = DATA
Heartbeat CPU 0 instructions: 20000000 cycles: 3453258 heartbeat IPC: 5.785 cumulative IPC: 5.792 (Simulation time: 00 hr 00 min 40 sec)
[DUEL] Epoch ended. INSTR misses = 0, DATA misses = 1. Winner = INSTR
Heartbeat CPU 0 instructions: 30000007 cycles: 5133612 heartbeat IPC: 5.951 cumulative IPC: 5.844 (Simulation time: 00 hr 00 min 59 sec)
Warmup finished CPU 0 instructions: 30000007 cycles: 5133613 cumulative IPC: 5.844 (Simulation time: 00 hr 00 min 59 sec)
Warmup complete CPU 0 instructions: 30000007 cycles: 5133613 cumulative IPC: 5.844 (Simulation time: 00 hr 00 min 59 sec)
[DUEL] Epoch ended. INSTR misses = 3, DATA misses = 0. Winner = DATA
Heartbeat CPU 0 instructions: 40000003 cycles: 6816058 heartbeat IPC: 5.944 cumulative IPC: 5.944 (Simulation time: 00 hr 01 min 21 sec)
[DUEL] Epoch ended. INSTR misses = 0, DATA misses = 0. Winner = INSTR
Heartbeat CPU 0 instructions: 50000000 cycles: 8498930 heartbeat IPC: 5.942 cumulative IPC: 5.943 (Simulation time: 00 hr 01 min 42 sec)
[DUEL] Epoch ended. INSTR misses = 0, DATA misses = 1. Winner = INSTR
Heartbeat CPU 0 instructions: 60000003 cycles: 10187694 heartbeat IPC: 5.921 cumulative IPC: 5.936 (Simulation time: 00 hr 02 min 04 sec)
Heartbeat CPU 0 instructions: 70000001 cycles: 11869202 heartbeat IPC: 5.947 cumulative IPC: 5.939 (Simulation time: 00 hr 02 min 25 sec)
[DUEL] Epoch ended. INSTR misses = 6, DATA misses = 0. Winner = DATA
Heartbeat CPU 0 instructions: 80000001 cycles: 13551114 heartbeat IPC: 5.946 cumulative IPC: 5.94 (Simulation time: 00 hr 02 min 46 sec)
[DUEL] Epoch ended. INSTR misses = 0, DATA misses = 0. Winner = INSTR
Heartbeat CPU 0 instructions: 90000001 cycles: 15232808 heartbeat IPC: 5.946 cumulative IPC: 5.941 (Simulation time: 00 hr 03 min 08 sec)
Heartbeat CPU 0 instructions: 100000001 cycles: 16914384 heartbeat IPC: 5.947 cumulative IPC: 5.942 (Simulation time: 00 hr 03 min 29 sec)
Heartbeat CPU 0 instructions: 110000009 cycles: 18595982 heartbeat IPC: 5.947 cumulative IPC: 5.942 (Simulation time: 00 hr 03 min 51 sec)
Heartbeat CPU 0 instructions: 120000005 cycles: 20277591 heartbeat IPC: 5.947 cumulative IPC: 5.943 (Simulation time: 00 hr 04 min 12 sec)
Heartbeat CPU 0 instructions: 130000005 cycles: 21959153 heartbeat IPC: 5.947 cumulative IPC: 5.943 (Simulation time: 00 hr 04 min 34 sec)
Simulation finished CPU 0 instructions: 100000004 cycles: 16825542 cumulative IPC: 5.943 (Simulation time: 00 hr 04 min 34 sec)
Simulation complete CPU 0 instructions: 100000004 cycles: 16825542 cumulative IPC: 5.943 (Simulation time: 00 hr 04 min 34 sec)

ChampSim completed all CPUs

=== Simulation ===
CPU 0 runs ../traces/secret_traces/crypto/crypto69.champsimtrace.xz
Region of Interest Statistics

CPU 0 cumulative IPC: 5.943 instructions: 100000004 cycles: 16825542
CPU 0 Branch Prediction Accuracy: 99.99% MPKI: 0.00206 Average ROB Occupancy at Mispredict: 50.27
Branch type MPKI
BRANCH_DIRECT_JUMP: 7e-05
BRANCH_INDIRECT: 0.00083
BRANCH_CONDITIONAL: 0.00055
BRANCH_DIRECT_CALL: 0.00024
BRANCH_INDIRECT_CALL: 3e-05
BRANCH_RETURN: 0.00034

LLC TOTAL        ACCESS:        521 HIT:        270 MISS:        251
LLC LOAD         ACCESS:         92 HIT:         32 MISS:         60
LLC RFO          ACCESS:          4 HIT:          1 MISS:          3
LLC PREFETCH     ACCESS:        210 HIT:         80 MISS:        130
LLC WRITE        ACCESS:        205 HIT:        155 MISS:         50
LLC TRANSLATION  ACCESS:         10 HIT:          2 MISS:          8
LLC PREFETCH REQUESTED:          0 ISSUED:          0 USEFUL:          0 USELESS:          0
LLC AVERAGE MISS LATENCY: 151.7 cycles
cpu0_DTLB TOTAL        ACCESS:    8434890 HIT:    8434670 MISS:        220
cpu0_DTLB LOAD         ACCESS:    8434890 HIT:    8434670 MISS:        220
cpu0_DTLB RFO          ACCESS:          0 HIT:          0 MISS:          0
cpu0_DTLB PREFETCH     ACCESS:          0 HIT:          0 MISS:          0
cpu0_DTLB WRITE        ACCESS:          0 HIT:          0 MISS:          0
cpu0_DTLB TRANSLATION  ACCESS:          0 HIT:          0 MISS:          0
cpu0_DTLB PREFETCH REQUESTED:          0 ISSUED:          0 USEFUL:          0 USELESS:          0
cpu0_DTLB AVERAGE MISS LATENCY: 12.59 cycles
cpu0_ITLB TOTAL        ACCESS:    2416931 HIT:    2416860 MISS:         71
cpu0_ITLB LOAD         ACCESS:    2416931 HIT:    2416860 MISS:         71
cpu0_ITLB RFO          ACCESS:          0 HIT:          0 MISS:          0
cpu0_ITLB PREFETCH     ACCESS:          0 HIT:          0 MISS:          0
cpu0_ITLB WRITE        ACCESS:          0 HIT:          0 MISS:          0
cpu0_ITLB TRANSLATION  ACCESS:          0 HIT:          0 MISS:          0
cpu0_ITLB PREFETCH REQUESTED:          0 ISSUED:          0 USEFUL:          0 USELESS:          0
cpu0_ITLB AVERAGE MISS LATENCY: 13.94 cycles
cpu0_L1D TOTAL        ACCESS:    9289025 HIT:    9288849 MISS:        176
cpu0_L1D LOAD         ACCESS:    5486326 HIT:    5486164 MISS:        162
cpu0_L1D RFO          ACCESS:          0 HIT:          0 MISS:          0
cpu0_L1D PREFETCH     ACCESS:          0 HIT:          0 MISS:          0
cpu0_L1D WRITE        ACCESS:    3802688 HIT:    3802684 MISS:          4
cpu0_L1D TRANSLATION  ACCESS:         11 HIT:          1 MISS:         10
cpu0_L1D PREFETCH REQUESTED:          0 ISSUED:          0 USEFUL:          0 USELESS:          0
cpu0_L1D AVERAGE MISS LATENCY: 58.02 cycles
cpu0_L1I TOTAL        ACCESS:    3538752 HIT:    3533374 MISS:       5378
cpu0_L1I LOAD         ACCESS:    1466975 HIT:    1463579 MISS:       3396
cpu0_L1I RFO          ACCESS:          0 HIT:          0 MISS:          0
cpu0_L1I PREFETCH     ACCESS:    2071777 HIT:    2069795 MISS:       1982
cpu0_L1I WRITE        ACCESS:          0 HIT:          0 MISS:          0
cpu0_L1I TRANSLATION  ACCESS:          0 HIT:          0 MISS:          0
cpu0_L1I PREFETCH REQUESTED:    6072884 ISSUED:    2071804 USEFUL:       1094 USELESS:        748
cpu0_L1I AVERAGE MISS LATENCY: 8.495 cycles
cpu0_L2C TOTAL        ACCESS:       8211 HIT:       7853 MISS:        358
cpu0_L2C LOAD         ACCESS:       2353 HIT:       2258 MISS:         95
cpu0_L2C RFO          ACCESS:          4 HIT:          0 MISS:          4
cpu0_L2C PREFETCH     ACCESS:       5782 HIT:       5533 MISS:        249
cpu0_L2C WRITE        ACCESS:         62 HIT:         62 MISS:          0
cpu0_L2C TRANSLATION  ACCESS:         10 HIT:          0 MISS:         10
cpu0_L2C PREFETCH REQUESTED:       4164 ISSUED:       3971 USEFUL:         29 USELESS:         14
cpu0_L2C AVERAGE MISS LATENCY: 123.8 cycles
cpu0_STLB TOTAL        ACCESS:        185 HIT:        177 MISS:          8
cpu0_STLB LOAD         ACCESS:        185 HIT:        177 MISS:          8
cpu0_STLB RFO          ACCESS:          0 HIT:          0 MISS:          0
cpu0_STLB PREFETCH     ACCESS:          0 HIT:          0 MISS:          0
cpu0_STLB WRITE        ACCESS:          0 HIT:          0 MISS:          0
cpu0_STLB TRANSLATION  ACCESS:          0 HIT:          0 MISS:          0
cpu0_STLB PREFETCH REQUESTED:          0 ISSUED:          0 USEFUL:          0 USELESS:          0
cpu0_STLB AVERAGE MISS LATENCY: 319.4 cycles

DRAM Statistics

Channel 0 RQ ROW_BUFFER_HIT:         10
  ROW_BUFFER_MISS:         88
 AVG DBUS CONGESTED CYCLE: 3.859
WQ ROW_BUFFER_HIT: Channel 0 
  ROW_BUFFER_MISS:          9
  FULL:         37

Channel 1 RQ ROW_BUFFER_HIT:          7
  ROW_BUFFER_MISS:         96
 AVG DBUS CONGESTED CYCLE: 3.919
WQ ROW_BUFFER_HIT: Channel 1 
  ROW_BUFFER_MISS:         18
  FULL:         24
BERTI TO_L1: 357552 TO_L2: 113517 TO_L2_BC_MSHR: 8070
BERTI AVG_LAT: 19.5939 NUM_TRACK_LATENCY: 31521 NUM_CANT_TRACK_LATENCY: 0
BERTI CROSS_PAGE 89054 NO_CROSS_PAGE: 382015
BERTI FOUND_BERTI: 640495 NO_FOUND_BERTI: 7215625
BERTI AVERAGE_ISSUED: 4.47201
CPU 0 L1I Entangling prefetcher final stats
IP accesses: 1f31 7cc40 75267 / 1466976
IP misses: 3cb9 f2e40 36 / 3397
IP hits: 0 0 0 / 0
IP late: 20b1 82c40 9 / 1428
IP wrong: f9e8 3e7a00 11 / 739
miss rate: 0.00231565
coverage: 0
coverage_late: 0.420371
accuracy: 0
accuracy_late: 0.658976
discarded: 0
evicts entangled j table: 0
evicts entangled k table: 388
max bb size: 56
formats: 49 0 328 73 59 97 0 
hist_lookups: 71 172 248 265 219 208 156 134 108 88 85 71 36 6 0 0 0 2581 
hist_lookups_evict: 0 %
hist_lookups_shortlat: 58.0261 %
bb_found_hist: 0 301067 68061 71509 16504 4276 10693 6 3 464 8373 10861 0 0 0 0 0 0 0 0 0 0 2947 0 0 0 1136 0 0 3172 0 0 0 8369 0 0 0 0 0 0 0 0 0 0 4189 0 0 0 0 0 0 0 0 0 0 0 4196 0 0 0 0 0 0 0 
bb_found_summary: 1892540 515826 3.66896
entangled_found_hist: 0 83663 82779 281963 26073 23934 8387 0 
entangled_found_summary: 1369394 506799 2.70205
bb_ent_found_hist: 0 640408 76560 147572 35988 13313 11717 36 6 0 8377 27 0 0 0 0 0 0 0 0 0 0 0 0 0 0 0 0 0 0 0 0 0 8372 0 0 0 0 0 0 0 0 0 0 0 0 0 0 0 0 0 0 0 0 0 0 16740 0 0 0 0 0 0 0 
bb_ent_found_summary: 2815146 959116 2.93515
