WARNING: physical memory size is smaller than virtual memory size.

*** ChampSim Multicore Out-of-Order Simulator ***
Warmup Instructions: 30000000
Simulation Instructions: 100000000
Number of CPUs: 1
Page size: 4096

BTB:
Basic BTB sets: 1024 ways: 8
Indirect:
history lengths: 0 0 10 16 27 44 60 96 109 219 449 487 714 1313 2146 3881 
ITTAGE tables: 64768 bytes;Region table: 240 bytes;IUM: 384 bytes;Total Storage= 65392 bytes;
RAS:
RAS size: 64
[LLC] INSTR Demand IPV: 1 2 2 1 4 Prefetch IPV: 1 2 1 1 4
[LLC] DATA  Demand IPV: 1 1 1 2 4 Prefetch IPV: 1 1 2 2 4
Berti Prefetcher
CPU 0 Entangling prefetcher
Off-chip DRAM Size: 8 GiB Channels: 2 Width: 64-bit Data Race: 6400 MT/s
[DUEL] Epoch ended. INSTR misses = 38, DATA misses = 40. Winner = INSTR
[DUEL] Epoch ended. INSTR misses = 16, DATA misses = 16. Winner = INSTR
[DUEL] Epoch ended. INSTR misses = 0, DATA misses = 0. Winner = INSTR
[DUEL] Epoch ended. INSTR misses = 0, DATA misses = 0. Winner = INSTR
[DUEL] Epoch ended. INSTR misses = 3, DATA misses = 0. Winner = DATA
[DUEL] Epoch ended. INSTR misses = 1, DATA misses = 0. Winner = DATA
[DUEL] Epoch ended. INSTR misses = 1, DATA misses = 0. Winner = DATA
[DUEL] Epoch ended. INSTR misses = 0, DATA misses = 0. Winner = INSTR
[DUEL] Epoch ended. INSTR misses = 0, DATA misses = 0. Winner = INSTR
[DUEL] Epoch ended. INSTR misses = 0, DATA misses = 2. Winner = INSTR
[DUEL] Epoch ended. INSTR misses = 1, DATA misses = 0. Winner = DATA
[DUEL] Epoch ended. INSTR misses = 0, DATA misses = 0. Winner = INSTR
[DUEL] Epoch ended. INSTR misses = 16, DATA misses = 17. Winner = INSTR
Heartbeat CPU 0 instructions: 10000001 cycles: 1715431 heartbeat IPC: 5.829 cumulative IPC: 5.829 (Simulation time: 00 hr 00 min 19 sec)
[DUEL] Epoch ended. INSTR misses = 9, DATA misses = 11. Winner = INSTR
[DUEL] Epoch ended. INSTR misses = 17, DATA misses = 17. Winner = INSTR
[DUEL] Epoch ended. INSTR misses = 93, DATA misses = 85. Winner = DATA
[DUEL] Epoch ended. INSTR misses = 10, DATA misses = 8. Winner = DATA
Heartbeat CPU 0 instructions: 20000008 cycles: 3431715 heartbeat IPC: 5.827 cumulative IPC: 5.828 (Simulation time: 00 hr 00 min 38 sec)
[DUEL] Epoch ended. INSTR misses = 0, DATA misses = 0. Winner = INSTR
*** Reached end of trace: (0, "../traces/secret_traces/crypto/crypto26.champsimtrace.xz")
[DUEL] Epoch ended. INSTR misses = 0, DATA misses = 10. Winner = INSTR
[DUEL] Epoch ended. INSTR misses = 5, DATA misses = 2. Winner = DATA
[DUEL] Epoch ended. INSTR misses = 1, DATA misses = 0. Winner = DATA
[DUEL] Epoch ended. INSTR misses = 0, DATA misses = 0. Winner = INSTR
[DUEL] Epoch ended. INSTR misses = 0, DATA misses = 0. Winner = INSTR
[DUEL] Epoch ended. INSTR misses = 0, DATA misses = 0. Winner = INSTR
[DUEL] Epoch ended. INSTR misses = 0, DATA misses = 0. Winner = INSTR
[DUEL] Epoch ended. INSTR misses = 0, DATA misses = 2. Winner = INSTR
[DUEL] Epoch ended. INSTR misses = 0, DATA misses = 0. Winner = INSTR
[DUEL] Epoch ended. INSTR misses = 0, DATA misses = 0. Winner = INSTR
[DUEL] Epoch ended. INSTR misses = 0, DATA misses = 0. Winner = INSTR
[DUEL] Epoch ended. INSTR misses = 1, DATA misses = 0. Winner = DATA
[DUEL] Epoch ended. INSTR misses = 0, DATA misses = 0. Winner = INSTR
Heartbeat CPU 0 instructions: 30000003 cycles: 5150068 heartbeat IPC: 5.82 cumulative IPC: 5.825 (Simulation time: 00 hr 00 min 58 sec)
Warmup finished CPU 0 instructions: 30000003 cycles: 5150069 cumulative IPC: 5.825 (Simulation time: 00 hr 00 min 58 sec)
Warmup complete CPU 0 instructions: 30000003 cycles: 5150069 cumulative IPC: 5.825 (Simulation time: 00 hr 00 min 58 sec)
[DUEL] Epoch ended. INSTR misses = 0, DATA misses = 0. Winner = INSTR
Heartbeat CPU 0 instructions: 40000003 cycles: 7237705 heartbeat IPC: 4.79 cumulative IPC: 4.79 (Simulation time: 00 hr 01 min 24 sec)
[DUEL] Epoch ended. INSTR misses = 1, DATA misses = 7. Winner = INSTR
[DUEL] Epoch ended. INSTR misses = 5, DATA misses = 2. Winner = DATA
[DUEL] Epoch ended. INSTR misses = 11, DATA misses = 14. Winner = INSTR
[DUEL] Epoch ended. INSTR misses = 4, DATA misses = 5. Winner = INSTR
Heartbeat CPU 0 instructions: 50000006 cycles: 9880704 heartbeat IPC: 3.784 cumulative IPC: 4.228 (Simulation time: 00 hr 01 min 53 sec)
[DUEL] Epoch ended. INSTR misses = 0, DATA misses = 0. Winner = INSTR
*** Reached end of trace: (0, "../traces/secret_traces/crypto/crypto26.champsimtrace.xz")
[DUEL] Epoch ended. INSTR misses = 0, DATA misses = 6. Winner = INSTR
[DUEL] Epoch ended. INSTR misses = 5, DATA misses = 1. Winner = DATA
[DUEL] Epoch ended. INSTR misses = 0, DATA misses = 0. Winner = INSTR
[DUEL] Epoch ended. INSTR misses = 0, DATA misses = 0. Winner = INSTR
[DUEL] Epoch ended. INSTR misses = 0, DATA misses = 0. Winner = INSTR
[DUEL] Epoch ended. INSTR misses = 0, DATA misses = 0. Winner = INSTR
[DUEL] Epoch ended. INSTR misses = 1, DATA misses = 0. Winner = DATA
[DUEL] Epoch ended. INSTR misses = 0, DATA misses = 0. Winner = INSTR
[DUEL] Epoch ended. INSTR misses = 0, DATA misses = 0. Winner = INSTR
[DUEL] Epoch ended. INSTR misses = 2, DATA misses = 0. Winner = DATA
[DUEL] Epoch ended. INSTR misses = 0, DATA misses = 0. Winner = INSTR
[DUEL] Epoch ended. INSTR misses = 2, DATA misses = 0. Winner = DATA
[DUEL] Epoch ended. INSTR misses = 2, DATA misses = 0. Winner = DATA
[DUEL] Epoch ended. INSTR misses = 0, DATA misses = 0. Winner = INSTR
Heartbeat CPU 0 instructions: 60000001 cycles: 12411899 heartbeat IPC: 3.951 cumulative IPC: 4.131 (Simulation time: 00 hr 02 min 21 sec)
[DUEL] Epoch ended. INSTR misses = 0, DATA misses = 6. Winner = INSTR
[DUEL] Epoch ended. INSTR misses = 1, DATA misses = 0. Winner = DATA
[DUEL] Epoch ended. INSTR misses = 13, DATA misses = 10. Winner = DATA
Heartbeat CPU 0 instructions: 70000000 cycles: 14799790 heartbeat IPC: 4.188 cumulative IPC: 4.145 (Simulation time: 00 hr 02 min 49 sec)
[DUEL] Epoch ended. INSTR misses = 4, DATA misses = 5. Winner = INSTR
[DUEL] Epoch ended. INSTR misses = 0, DATA misses = 0. Winner = INSTR
*** Reached end of trace: (0, "../traces/secret_traces/crypto/crypto26.champsimtrace.xz")
[DUEL] Epoch ended. INSTR misses = 1, DATA misses = 2. Winner = INSTR
[DUEL] Epoch ended. INSTR misses = 2, DATA misses = 1. Winner = DATA
[DUEL] Epoch ended. INSTR misses = 0, DATA misses = 0. Winner = INSTR
[DUEL] Epoch ended. INSTR misses = 0, DATA misses = 0. Winner = INSTR
[DUEL] Epoch ended. INSTR misses = 0, DATA misses = 0. Winner = INSTR
[DUEL] Epoch ended. INSTR misses = 0, DATA misses = 0. Winner = INSTR
[DUEL] Epoch ended. INSTR misses = 0, DATA misses = 0. Winner = INSTR
Heartbeat CPU 0 instructions: 80000001 cycles: 17235936 heartbeat IPC: 4.105 cumulative IPC: 4.137 (Simulation time: 00 hr 03 min 17 sec)
[DUEL] Epoch ended. INSTR misses = 0, DATA misses = 0. Winner = INSTR
[DUEL] Epoch ended. INSTR misses = 0, DATA misses = 0. Winner = INSTR
[DUEL] Epoch ended. INSTR misses = 0, DATA misses = 0. Winner = INSTR
[DUEL] Epoch ended. INSTR misses = 0, DATA misses = 0. Winner = INSTR
[DUEL] Epoch ended. INSTR misses = 2, DATA misses = 0. Winner = DATA
[DUEL] Epoch ended. INSTR misses = 1, DATA misses = 2. Winner = INSTR
[DUEL] Epoch ended. INSTR misses = 0, DATA misses = 0. Winner = INSTR
Heartbeat CPU 0 instructions: 90000001 cycles: 19441617 heartbeat IPC: 4.534 cumulative IPC: 4.198 (Simulation time: 00 hr 03 min 43 sec)
[DUEL] Epoch ended. INSTR misses = 0, DATA misses = 4. Winner = INSTR
[DUEL] Epoch ended. INSTR misses = 1, DATA misses = 0. Winner = DATA
[DUEL] Epoch ended. INSTR misses = 7, DATA misses = 8. Winner = INSTR
[DUEL] Epoch ended. INSTR misses = 4, DATA misses = 5. Winner = INSTR
Heartbeat CPU 0 instructions: 100000001 cycles: 21886410 heartbeat IPC: 4.09 cumulative IPC: 4.183 (Simulation time: 00 hr 04 min 11 sec)
[DUEL] Epoch ended. INSTR misses = 0, DATA misses = 0. Winner = INSTR
*** Reached end of trace: (0, "../traces/secret_traces/crypto/crypto26.champsimtrace.xz")
[DUEL] Epoch ended. INSTR misses = 1, DATA misses = 4. Winner = INSTR
[DUEL] Epoch ended. INSTR misses = 4, DATA misses = 2. Winner = DATA
[DUEL] Epoch ended. INSTR misses = 0, DATA misses = 0. Winner = INSTR
[DUEL] Epoch ended. INSTR misses = 0, DATA misses = 0. Winner = INSTR
[DUEL] Epoch ended. INSTR misses = 0, DATA misses = 0. Winner = INSTR
[DUEL] Epoch ended. INSTR misses = 0, DATA misses = 0. Winner = INSTR
[DUEL] Epoch ended. INSTR misses = 0, DATA misses = 0. Winner = INSTR
[DUEL] Epoch ended. INSTR misses = 0, DATA misses = 0. Winner = INSTR
[DUEL] Epoch ended. INSTR misses = 0, DATA misses = 0. Winner = INSTR
[DUEL] Epoch ended. INSTR misses = 4, DATA misses = 0. Winner = DATA
[DUEL] Epoch ended. INSTR misses = 0, DATA misses = 0. Winner = INSTR
[DUEL] Epoch ended. INSTR misses = 1, DATA misses = 0. Winner = DATA
[DUEL] Epoch ended. INSTR misses = 0, DATA misses = 2. Winner = INSTR
Heartbeat CPU 0 instructions: 110000002 cycles: 24293709 heartbeat IPC: 4.154 cumulative IPC: 4.179 (Simulation time: 00 hr 04 min 39 sec)
[DUEL] Epoch ended. INSTR misses = 0, DATA misses = 0. Winner = INSTR
Heartbeat CPU 0 instructions: 120000004 cycles: 26378139 heartbeat IPC: 4.797 cumulative IPC: 4.24 (Simulation time: 00 hr 05 min 05 sec)
[DUEL] Epoch ended. INSTR misses = 0, DATA misses = 4. Winner = INSTR
[DUEL] Epoch ended. INSTR misses = 1, DATA misses = 0. Winner = DATA
[DUEL] Epoch ended. INSTR misses = 8, DATA misses = 8. Winner = INSTR
[DUEL] Epoch ended. INSTR misses = 4, DATA misses = 5. Winner = INSTR
Heartbeat CPU 0 instructions: 130000000 cycles: 28802657 heartbeat IPC: 4.125 cumulative IPC: 4.228 (Simulation time: 00 hr 05 min 33 sec)
Simulation finished CPU 0 instructions: 100000006 cycles: 23652590 cumulative IPC: 4.228 (Simulation time: 00 hr 05 min 33 sec)
Simulation complete CPU 0 instructions: 100000006 cycles: 23652590 cumulative IPC: 4.228 (Simulation time: 00 hr 05 min 33 sec)

ChampSim completed all CPUs

=== Simulation ===
CPU 0 runs ../traces/secret_traces/crypto/crypto26.champsimtrace.xz
Region of Interest Statistics

CPU 0 cumulative IPC: 4.228 instructions: 100000006 cycles: 23652590
CPU 0 Branch Prediction Accuracy: 98.3% MPKI: 0.8362 Average ROB Occupancy at Mispredict: 32.97
Branch type MPKI
BRANCH_DIRECT_JUMP: 0.0503
BRANCH_INDIRECT: 0.434
BRANCH_CONDITIONAL: 0.109
BRANCH_DIRECT_CALL: 0.145
BRANCH_INDIRECT_CALL: 0.018
BRANCH_RETURN: 0.0795

LLC TOTAL        ACCESS:     426139 HIT:     306662 MISS:     119477
LLC LOAD         ACCESS:      41980 HIT:      22840 MISS:      19140
LLC RFO          ACCESS:     130201 HIT:     102372 MISS:      27829
LLC PREFETCH     ACCESS:     106684 HIT:      53769 MISS:      52915
LLC WRITE        ACCESS:     144897 HIT:     127167 MISS:      17730
LLC TRANSLATION  ACCESS:       2377 HIT:        514 MISS:       1863
LLC PREFETCH REQUESTED:          0 ISSUED:          0 USEFUL:          0 USELESS:          0
LLC AVERAGE MISS LATENCY: 178.4 cycles
cpu0_DTLB TOTAL        ACCESS:   14530182 HIT:   14489298 MISS:      40884
cpu0_DTLB LOAD         ACCESS:   14530182 HIT:   14489298 MISS:      40884
cpu0_DTLB RFO          ACCESS:          0 HIT:          0 MISS:          0
cpu0_DTLB PREFETCH     ACCESS:          0 HIT:          0 MISS:          0
cpu0_DTLB WRITE        ACCESS:          0 HIT:          0 MISS:          0
cpu0_DTLB TRANSLATION  ACCESS:          0 HIT:          0 MISS:          0
cpu0_DTLB PREFETCH REQUESTED:          0 ISSUED:          0 USEFUL:          0 USELESS:          0
cpu0_DTLB AVERAGE MISS LATENCY: 10.04 cycles
cpu0_ITLB TOTAL        ACCESS:     664346 HIT:     650714 MISS:      13632
cpu0_ITLB LOAD         ACCESS:     664346 HIT:     650714 MISS:      13632
cpu0_ITLB RFO          ACCESS:          0 HIT:          0 MISS:          0
cpu0_ITLB PREFETCH     ACCESS:          0 HIT:          0 MISS:          0
cpu0_ITLB WRITE        ACCESS:          0 HIT:          0 MISS:          0
cpu0_ITLB TRANSLATION  ACCESS:          0 HIT:          0 MISS:          0
cpu0_ITLB PREFETCH REQUESTED:          0 ISSUED:          0 USEFUL:          0 USELESS:          0
cpu0_ITLB AVERAGE MISS LATENCY: 19.07 cycles
cpu0_L1D TOTAL        ACCESS:   29276724 HIT:   28649519 MISS:     627205
cpu0_L1D LOAD         ACCESS:    8157305 HIT:    8000131 MISS:     157174
cpu0_L1D RFO          ACCESS:          0 HIT:          0 MISS:          0
cpu0_L1D PREFETCH     ACCESS:   17896503 HIT:   17782355 MISS:     114148
cpu0_L1D WRITE        ACCESS:    3217891 HIT:    2865135 MISS:     352756
cpu0_L1D TRANSLATION  ACCESS:       5025 HIT:       1898 MISS:       3127
cpu0_L1D PREFETCH REQUESTED:   23361184 ISSUED:   17896503 USEFUL:      16221 USELESS:       1404
cpu0_L1D AVERAGE MISS LATENCY: 28.94 cycles
cpu0_L1I TOTAL        ACCESS:     968098 HIT:     807589 MISS:     160509
cpu0_L1I LOAD         ACCESS:     317252 HIT:     280130 MISS:      37122
cpu0_L1I RFO          ACCESS:          0 HIT:          0 MISS:          0
cpu0_L1I PREFETCH     ACCESS:     650846 HIT:     527459 MISS:     123387
cpu0_L1I WRITE        ACCESS:          0 HIT:          0 MISS:          0
cpu0_L1I TRANSLATION  ACCESS:          0 HIT:          0 MISS:          0
cpu0_L1I PREFETCH REQUESTED:    1057946 ISSUED:     650846 USEFUL:      69047 USELESS:      49035
cpu0_L1I AVERAGE MISS LATENCY: 34.29 cycles
cpu0_L2C TOTAL        ACCESS:     967194 HIT:     599263 MISS:     367931
cpu0_L2C LOAD         ACCESS:     123175 HIT:      71032 MISS:      52143
cpu0_L2C RFO          ACCESS:     143709 HIT:      13453 MISS:     130256
cpu0_L2C PREFETCH     ACCESS:     530996 HIT:     347841 MISS:     183155
cpu0_L2C WRITE        ACCESS:     166278 HIT:     166278 MISS:          0
cpu0_L2C TRANSLATION  ACCESS:       3036 HIT:        659 MISS:       2377
cpu0_L2C PREFETCH REQUESTED:     335212 ISSUED:     319018 USEFUL:      28083 USELESS:      24882
cpu0_L2C AVERAGE MISS LATENCY: 70.67 cycles
cpu0_STLB TOTAL        ACCESS:      23809 HIT:      19200 MISS:       4609
cpu0_STLB LOAD         ACCESS:      23809 HIT:      19200 MISS:       4609
cpu0_STLB RFO          ACCESS:          0 HIT:          0 MISS:          0
cpu0_STLB PREFETCH     ACCESS:          0 HIT:          0 MISS:          0
cpu0_STLB WRITE        ACCESS:          0 HIT:          0 MISS:          0
cpu0_STLB TRANSLATION  ACCESS:          0 HIT:          0 MISS:          0
cpu0_STLB PREFETCH REQUESTED:          0 ISSUED:          0 USEFUL:          0 USELESS:          0
cpu0_STLB AVERAGE MISS LATENCY: 125.2 cycles

DRAM Statistics

Channel 0 RQ ROW_BUFFER_HIT:      24073
  ROW_BUFFER_MISS:      27750
 AVG DBUS CONGESTED CYCLE: 3.903
WQ ROW_BUFFER_HIT: Channel 0 
  ROW_BUFFER_MISS:       2056
  FULL:      14928

Channel 1 RQ ROW_BUFFER_HIT:      22918
  ROW_BUFFER_MISS:      26984
 AVG DBUS CONGESTED CYCLE: 3.882
WQ ROW_BUFFER_HIT: Channel 1 
  ROW_BUFFER_MISS:       1966
  FULL:      13556
BERTI TO_L1: 19232201 TO_L2: 8119462 TO_L2_BC_MSHR: 1768557
BERTI AVG_LAT: 68.9516 NUM_TRACK_LATENCY: 160127 NUM_CANT_TRACK_LATENCY: 0
BERTI CROSS_PAGE 3745701 NO_CROSS_PAGE: 23605962
BERTI FOUND_BERTI: 4113931 NO_FOUND_BERTI: 7128481
BERTI AVERAGE_ISSUED: 9.83577
CPU 0 L1I Entangling prefetcher final stats
IP accesses: 6f71 1bdc40 1424 / 318104
IP misses: 5bf5 16fd40 131 / 37974
IP hits: 0 0 0 / 0
IP late: 6e9e 1ba780 53 / 18531
IP wrong: f801 3e0040 120 / 48820
miss rate: 0.119377
coverage: 0
coverage_late: 0.487992
accuracy: 0
accuracy_late: 0.275141
discarded: 0
evicts entangled j table: 0
evicts entangled k table: 6321
max bb size: 53
formats: 1521 0 5279 2513 1042 1900 0 
hist_lookups: 4167 4746 3753 3375 2948 2582 1975 1462 1093 904 653 472 303 176 82 0 6 7092 
hist_lookups_evict: 0.016765 %
hist_lookups_shortlat: 19.8162 %
bb_found_hist: 0 80866 35619 16494 7624 3900 1750 1518 467 98 6 99 114 98 24 0 3 0 0 0 0 6 0 0 0 0 0 0 0 0 0 3 0 0 3 0 0 0 0 0 0 0 0 0 0 0 0 0 0 0 0 0 0 3 0 0 0 0 0 0 0 0 0 0 
bb_found_summary: 281981 148695 1.89638
entangled_found_hist: 0 43815 32103 60040 10319 2106 812 0 
entangled_found_summary: 344819 149195 2.3112
bb_ent_found_hist: 0 116391 53772 37099 13833 9929 3890 2287 1670 122 0 172 102 38 13 0 194 0 0 0 0 12 0 0 0 0 0 0 0 0 0 6 0 0 6 0 0 0 0 0 0 0 0 0 0 0 0 0 0 0 0 0 0 6 0 0 0 0 0 0 0 0 0 0 
bb_ent_found_summary: 501872 239542 2.09514
