WARNING: physical memory size is smaller than virtual memory size.

*** ChampSim Multicore Out-of-Order Simulator ***
Warmup Instructions: 30000000
Simulation Instructions: 100000000
Number of CPUs: 1
Page size: 4096

BTB:
Basic BTB sets: 1024 ways: 8
Indirect:
history lengths: 0 0 10 16 27 44 60 96 109 219 449 487 714 1313 2146 3881 
ITTAGE tables: 64768 bytes;Region table: 240 bytes;IUM: 384 bytes;Total Storage= 65392 bytes;
RAS:
RAS size: 64
[LLC] INSTR Demand IPV: 1 2 2 1 4 Prefetch IPV: 1 2 1 1 4
[LLC] DATA  Demand IPV: 1 1 1 2 4 Prefetch IPV: 1 1 2 2 4
Berti Prefetcher
CPU 0 Entangling prefetcher
Off-chip DRAM Size: 8 GiB Channels: 2 Width: 64-bit Data Race: 6400 MT/s
[DUEL] Epoch ended. INSTR misses = 53, DATA misses = 45. Winner = DATA
[DUEL] Epoch ended. INSTR misses = 16, DATA misses = 16. Winner = INSTR
[DUEL] Epoch ended. INSTR misses = 1, DATA misses = 0. Winner = DATA
[DUEL] Epoch ended. INSTR misses = 0, DATA misses = 0. Winner = INSTR
[DUEL] Epoch ended. INSTR misses = 0, DATA misses = 0. Winner = INSTR
[DUEL] Epoch ended. INSTR misses = 0, DATA misses = 0. Winner = INSTR
[DUEL] Epoch ended. INSTR misses = 0, DATA misses = 0. Winner = INSTR
[DUEL] Epoch ended. INSTR misses = 0, DATA misses = 0. Winner = INSTR
[DUEL] Epoch ended. INSTR misses = 0, DATA misses = 0. Winner = INSTR
[DUEL] Epoch ended. INSTR misses = 5, DATA misses = 10. Winner = INSTR
[DUEL] Epoch ended. INSTR misses = 0, DATA misses = 0. Winner = INSTR
[DUEL] Epoch ended. INSTR misses = 8, DATA misses = 1. Winner = DATA
[DUEL] Epoch ended. INSTR misses = 16, DATA misses = 18. Winner = INSTR
Heartbeat CPU 0 instructions: 10000010 cycles: 1715476 heartbeat IPC: 5.829 cumulative IPC: 5.829 (Simulation time: 00 hr 00 min 20 sec)
[DUEL] Epoch ended. INSTR misses = 14, DATA misses = 10. Winner = DATA
[DUEL] Epoch ended. INSTR misses = 18, DATA misses = 18. Winner = INSTR
[DUEL] Epoch ended. INSTR misses = 86, DATA misses = 80. Winner = DATA
[DUEL] Epoch ended. INSTR misses = 2, DATA misses = 8. Winner = INSTR
Heartbeat CPU 0 instructions: 20000007 cycles: 3431898 heartbeat IPC: 5.826 cumulative IPC: 5.828 (Simulation time: 00 hr 00 min 39 sec)
[DUEL] Epoch ended. INSTR misses = 0, DATA misses = 0. Winner = INSTR
Heartbeat CPU 0 instructions: 30000000 cycles: 5098579 heartbeat IPC: 6 cumulative IPC: 5.884 (Simulation time: 00 hr 00 min 57 sec)
Warmup finished CPU 0 instructions: 30000000 cycles: 5098580 cumulative IPC: 5.884 (Simulation time: 00 hr 00 min 57 sec)
Warmup complete CPU 0 instructions: 30000000 cycles: 5098580 cumulative IPC: 5.884 (Simulation time: 00 hr 00 min 57 sec)
[DUEL] Epoch ended. INSTR misses = 1, DATA misses = 1. Winner = INSTR
*** Reached end of trace: (0, "../traces/secret_traces/crypto/crypto101.champsimtrace.xz")
[DUEL] Epoch ended. INSTR misses = 2, DATA misses = 9. Winner = INSTR
[DUEL] Epoch ended. INSTR misses = 13, DATA misses = 5. Winner = DATA
[DUEL] Epoch ended. INSTR misses = 0, DATA misses = 0. Winner = INSTR
[DUEL] Epoch ended. INSTR misses = 1, DATA misses = 0. Winner = DATA
[DUEL] Epoch ended. INSTR misses = 0, DATA misses = 0. Winner = INSTR
[DUEL] Epoch ended. INSTR misses = 0, DATA misses = 0. Winner = INSTR
[DUEL] Epoch ended. INSTR misses = 0, DATA misses = 0. Winner = INSTR
[DUEL] Epoch ended. INSTR misses = 0, DATA misses = 0. Winner = INSTR
[DUEL] Epoch ended. INSTR misses = 0, DATA misses = 0. Winner = INSTR
[DUEL] Epoch ended. INSTR misses = 1, DATA misses = 3. Winner = INSTR
[DUEL] Epoch ended. INSTR misses = 1, DATA misses = 0. Winner = DATA
[DUEL] Epoch ended. INSTR misses = 4, DATA misses = 0. Winner = DATA
[DUEL] Epoch ended. INSTR misses = 1, DATA misses = 0. Winner = DATA
[DUEL] Epoch ended. INSTR misses = 0, DATA misses = 0. Winner = INSTR
Heartbeat CPU 0 instructions: 40000002 cycles: 7730033 heartbeat IPC: 3.8 cumulative IPC: 3.8 (Simulation time: 00 hr 01 min 26 sec)
[DUEL] Epoch ended. INSTR misses = 2, DATA misses = 3. Winner = INSTR
[DUEL] Epoch ended. INSTR misses = 2, DATA misses = 1. Winner = DATA
[DUEL] Epoch ended. INSTR misses = 23, DATA misses = 13. Winner = DATA
[DUEL] Epoch ended. INSTR misses = 1, DATA misses = 4. Winner = INSTR
Heartbeat CPU 0 instructions: 50000006 cycles: 10278262 heartbeat IPC: 3.924 cumulative IPC: 3.861 (Simulation time: 00 hr 01 min 55 sec)
[DUEL] Epoch ended. INSTR misses = 0, DATA misses = 0. Winner = INSTR
Heartbeat CPU 0 instructions: 60000002 cycles: 12258438 heartbeat IPC: 5.05 cumulative IPC: 4.19 (Simulation time: 00 hr 02 min 19 sec)
[DUEL] Epoch ended. INSTR misses = 0, DATA misses = 0. Winner = INSTR
*** Reached end of trace: (0, "../traces/secret_traces/crypto/crypto101.champsimtrace.xz")
[DUEL] Epoch ended. INSTR misses = 2, DATA misses = 11. Winner = INSTR
[DUEL] Epoch ended. INSTR misses = 12, DATA misses = 5. Winner = DATA
[DUEL] Epoch ended. INSTR misses = 3, DATA misses = 0. Winner = DATA
[DUEL] Epoch ended. INSTR misses = 1, DATA misses = 0. Winner = DATA
[DUEL] Epoch ended. INSTR misses = 0, DATA misses = 0. Winner = INSTR
[DUEL] Epoch ended. INSTR misses = 0, DATA misses = 0. Winner = INSTR
[DUEL] Epoch ended. INSTR misses = 0, DATA misses = 0. Winner = INSTR
[DUEL] Epoch ended. INSTR misses = 0, DATA misses = 0. Winner = INSTR
[DUEL] Epoch ended. INSTR misses = 0, DATA misses = 0. Winner = INSTR
[DUEL] Epoch ended. INSTR misses = 0, DATA misses = 2. Winner = INSTR
[DUEL] Epoch ended. INSTR misses = 1, DATA misses = 0. Winner = DATA
[DUEL] Epoch ended. INSTR misses = 3, DATA misses = 0. Winner = DATA
[DUEL] Epoch ended. INSTR misses = 6, DATA misses = 2. Winner = DATA
[DUEL] Epoch ended. INSTR misses = 0, DATA misses = 0. Winner = INSTR
Heartbeat CPU 0 instructions: 70000011 cycles: 14749196 heartbeat IPC: 4.015 cumulative IPC: 4.145 (Simulation time: 00 hr 02 min 48 sec)
[DUEL] Epoch ended. INSTR misses = 4, DATA misses = 5. Winner = INSTR
[DUEL] Epoch ended. INSTR misses = 3, DATA misses = 1. Winner = DATA
[DUEL] Epoch ended. INSTR misses = 23, DATA misses = 16. Winner = DATA
Heartbeat CPU 0 instructions: 80000001 cycles: 17143760 heartbeat IPC: 4.176 cumulative IPC: 4.151 (Simulation time: 00 hr 03 min 15 sec)
[DUEL] Epoch ended. INSTR misses = 0, DATA misses = 4. Winner = INSTR
Heartbeat CPU 0 instructions: 90000004 cycles: 19138582 heartbeat IPC: 5.013 cumulative IPC: 4.274 (Simulation time: 00 hr 03 min 40 sec)
[DUEL] Epoch ended. INSTR misses = 0, DATA misses = 0. Winner = INSTR
[DUEL] Epoch ended. INSTR misses = 0, DATA misses = 0. Winner = INSTR
*** Reached end of trace: (0, "../traces/secret_traces/crypto/crypto101.champsimtrace.xz")
[DUEL] Epoch ended. INSTR misses = 5, DATA misses = 8. Winner = INSTR
[DUEL] Epoch ended. INSTR misses = 16, DATA misses = 6. Winner = DATA
[DUEL] Epoch ended. INSTR misses = 1, DATA misses = 0. Winner = DATA
[DUEL] Epoch ended. INSTR misses = 1, DATA misses = 0. Winner = DATA
[DUEL] Epoch ended. INSTR misses = 0, DATA misses = 0. Winner = INSTR
[DUEL] Epoch ended. INSTR misses = 0, DATA misses = 0. Winner = INSTR
[DUEL] Epoch ended. INSTR misses = 0, DATA misses = 0. Winner = INSTR
[DUEL] Epoch ended. INSTR misses = 0, DATA misses = 0. Winner = INSTR
[DUEL] Epoch ended. INSTR misses = 0, DATA misses = 0. Winner = INSTR
[DUEL] Epoch ended. INSTR misses = 1, DATA misses = 3. Winner = INSTR
[DUEL] Epoch ended. INSTR misses = 1, DATA misses = 0. Winner = DATA
[DUEL] Epoch ended. INSTR misses = 3, DATA misses = 0. Winner = DATA
[DUEL] Epoch ended. INSTR misses = 3, DATA misses = 0. Winner = DATA
[DUEL] Epoch ended. INSTR misses = 0, DATA misses = 0. Winner = INSTR
Heartbeat CPU 0 instructions: 100000001 cycles: 21581450 heartbeat IPC: 4.094 cumulative IPC: 4.247 (Simulation time: 00 hr 04 min 08 sec)
Heartbeat CPU 0 instructions: 110000002 cycles: 23543448 heartbeat IPC: 5.097 cumulative IPC: 4.337 (Simulation time: 00 hr 04 min 32 sec)
[DUEL] Epoch ended. INSTR misses = 5, DATA misses = 4. Winner = DATA
[DUEL] Epoch ended. INSTR misses = 2, DATA misses = 1. Winner = DATA
[DUEL] Epoch ended. INSTR misses = 17, DATA misses = 11. Winner = DATA
[DUEL] Epoch ended. INSTR misses = 1, DATA misses = 4. Winner = INSTR
Heartbeat CPU 0 instructions: 120000005 cycles: 25933309 heartbeat IPC: 4.184 cumulative IPC: 4.32 (Simulation time: 00 hr 05 min 00 sec)
[DUEL] Epoch ended. INSTR misses = 0, DATA misses = 0. Winner = INSTR
[DUEL] Epoch ended. INSTR misses = 0, DATA misses = 0. Winner = INSTR
*** Reached end of trace: (0, "../traces/secret_traces/crypto/crypto101.champsimtrace.xz")
[DUEL] Epoch ended. INSTR misses = 4, DATA misses = 5. Winner = INSTR
[DUEL] Epoch ended. INSTR misses = 14, DATA misses = 5. Winner = DATA
[DUEL] Epoch ended. INSTR misses = 0, DATA misses = 0. Winner = INSTR
[DUEL] Epoch ended. INSTR misses = 1, DATA misses = 0. Winner = DATA
[DUEL] Epoch ended. INSTR misses = 0, DATA misses = 0. Winner = INSTR
[DUEL] Epoch ended. INSTR misses = 0, DATA misses = 0. Winner = INSTR
[DUEL] Epoch ended. INSTR misses = 0, DATA misses = 0. Winner = INSTR
[DUEL] Epoch ended. INSTR misses = 0, DATA misses = 0. Winner = INSTR
[DUEL] Epoch ended. INSTR misses = 0, DATA misses = 0. Winner = INSTR
[DUEL] Epoch ended. INSTR misses = 0, DATA misses = 4. Winner = INSTR
[DUEL] Epoch ended. INSTR misses = 1, DATA misses = 0. Winner = DATA
[DUEL] Epoch ended. INSTR misses = 4, DATA misses = 0. Winner = DATA
[DUEL] Epoch ended. INSTR misses = 2, DATA misses = 2. Winner = INSTR
[DUEL] Epoch ended. INSTR misses = 0, DATA misses = 0. Winner = INSTR
Heartbeat CPU 0 instructions: 130000006 cycles: 28327195 heartbeat IPC: 4.177 cumulative IPC: 4.305 (Simulation time: 00 hr 05 min 28 sec)
Simulation finished CPU 0 instructions: 100000006 cycles: 23228616 cumulative IPC: 4.305 (Simulation time: 00 hr 05 min 28 sec)
Simulation complete CPU 0 instructions: 100000006 cycles: 23228616 cumulative IPC: 4.305 (Simulation time: 00 hr 05 min 28 sec)

ChampSim completed all CPUs

=== Simulation ===
CPU 0 runs ../traces/secret_traces/crypto/crypto101.champsimtrace.xz
Region of Interest Statistics

CPU 0 cumulative IPC: 4.305 instructions: 100000006 cycles: 23228616
CPU 0 Branch Prediction Accuracy: 98.33% MPKI: 0.953 Average ROB Occupancy at Mispredict: 32.8
Branch type MPKI
BRANCH_DIRECT_JUMP: 0.0529
BRANCH_INDIRECT: 0.489
BRANCH_CONDITIONAL: 0.151
BRANCH_DIRECT_CALL: 0.155
BRANCH_INDIRECT_CALL: 0.02
BRANCH_RETURN: 0.0849

LLC TOTAL        ACCESS:     390193 HIT:     273933 MISS:     116260
LLC LOAD         ACCESS:      38494 HIT:      20049 MISS:      18445
LLC RFO          ACCESS:     115440 HIT:      87284 MISS:      28156
LLC PREFETCH     ACCESS:     100910 HIT:      52210 MISS:      48700
LLC WRITE        ACCESS:     132902 HIT:     113801 MISS:      19101
LLC TRANSLATION  ACCESS:       2447 HIT:        589 MISS:       1858
LLC PREFETCH REQUESTED:          0 ISSUED:          0 USEFUL:          0 USELESS:          0
LLC AVERAGE MISS LATENCY: 168.9 cycles
cpu0_DTLB TOTAL        ACCESS:   12975908 HIT:   12937552 MISS:      38356
cpu0_DTLB LOAD         ACCESS:   12975908 HIT:   12937552 MISS:      38356
cpu0_DTLB RFO          ACCESS:          0 HIT:          0 MISS:          0
cpu0_DTLB PREFETCH     ACCESS:          0 HIT:          0 MISS:          0
cpu0_DTLB WRITE        ACCESS:          0 HIT:          0 MISS:          0
cpu0_DTLB TRANSLATION  ACCESS:          0 HIT:          0 MISS:          0
cpu0_DTLB PREFETCH REQUESTED:          0 ISSUED:          0 USEFUL:          0 USELESS:          0
cpu0_DTLB AVERAGE MISS LATENCY: 11.15 cycles
cpu0_ITLB TOTAL        ACCESS:     677550 HIT:     663207 MISS:      14343
cpu0_ITLB LOAD         ACCESS:     677550 HIT:     663207 MISS:      14343
cpu0_ITLB RFO          ACCESS:          0 HIT:          0 MISS:          0
cpu0_ITLB PREFETCH     ACCESS:          0 HIT:          0 MISS:          0
cpu0_ITLB WRITE        ACCESS:          0 HIT:          0 MISS:          0
cpu0_ITLB TRANSLATION  ACCESS:          0 HIT:          0 MISS:          0
cpu0_ITLB PREFETCH REQUESTED:          0 ISSUED:          0 USEFUL:          0 USELESS:          0
cpu0_ITLB AVERAGE MISS LATENCY: 19.32 cycles
cpu0_L1D TOTAL        ACCESS:   25435267 HIT:   24835512 MISS:     599755
cpu0_L1D LOAD         ACCESS:    8493258 HIT:    8347867 MISS:     145391
cpu0_L1D RFO          ACCESS:          0 HIT:          0 MISS:          0
cpu0_L1D PREFETCH     ACCESS:   13809572 HIT:   13661632 MISS:     147940
cpu0_L1D WRITE        ACCESS:    3127445 HIT:    2824226 MISS:     303219
cpu0_L1D TRANSLATION  ACCESS:       4992 HIT:       1787 MISS:       3205
cpu0_L1D PREFETCH REQUESTED:   17668718 ISSUED:   13809554 USEFUL:      12274 USELESS:       1598
cpu0_L1D AVERAGE MISS LATENCY: 28.19 cycles
cpu0_L1I TOTAL        ACCESS:     985333 HIT:     826590 MISS:     158743
cpu0_L1I LOAD         ACCESS:     323983 HIT:     288462 MISS:      35521
cpu0_L1I RFO          ACCESS:          0 HIT:          0 MISS:          0
cpu0_L1I PREFETCH     ACCESS:     661350 HIT:     538128 MISS:     123222
cpu0_L1I WRITE        ACCESS:          0 HIT:          0 MISS:          0
cpu0_L1I TRANSLATION  ACCESS:          0 HIT:          0 MISS:          0
cpu0_L1I PREFETCH REQUESTED:    1010946 ISSUED:     661350 USEFUL:      69732 USELESS:      48307
cpu0_L1I AVERAGE MISS LATENCY: 32.5 cycles
cpu0_L2C TOTAL        ACCESS:    1000972 HIT:     664295 MISS:     336677
cpu0_L2C LOAD         ACCESS:     116418 HIT:      68610 MISS:      47808
cpu0_L2C RFO          ACCESS:     127692 HIT:      12193 MISS:     115499
cpu0_L2C PREFETCH     ACCESS:     605361 HIT:     434438 MISS:     170923
cpu0_L2C WRITE        ACCESS:     148403 HIT:     148403 MISS:          0
cpu0_L2C TRANSLATION  ACCESS:       3098 HIT:        651 MISS:       2447
cpu0_L2C PREFETCH REQUESTED:     367265 ISSUED:     354514 USEFUL:      27428 USELESS:      22987
cpu0_L2C AVERAGE MISS LATENCY: 71.3 cycles
cpu0_STLB TOTAL        ACCESS:      23817 HIT:      19262 MISS:       4555
cpu0_STLB LOAD         ACCESS:      23817 HIT:      19262 MISS:       4555
cpu0_STLB RFO          ACCESS:          0 HIT:          0 MISS:          0
cpu0_STLB PREFETCH     ACCESS:          0 HIT:          0 MISS:          0
cpu0_STLB WRITE        ACCESS:          0 HIT:          0 MISS:          0
cpu0_STLB TRANSLATION  ACCESS:          0 HIT:          0 MISS:          0
cpu0_STLB PREFETCH REQUESTED:          0 ISSUED:          0 USEFUL:          0 USELESS:          0
cpu0_STLB AVERAGE MISS LATENCY: 134 cycles

DRAM Statistics

Channel 0 RQ ROW_BUFFER_HIT:      22910
  ROW_BUFFER_MISS:      26594
 AVG DBUS CONGESTED CYCLE: 3.904
WQ ROW_BUFFER_HIT: Channel 0 
  ROW_BUFFER_MISS:       2038
  FULL:      14657

Channel 1 RQ ROW_BUFFER_HIT:      22044
  ROW_BUFFER_MISS:      25595
 AVG DBUS CONGESTED CYCLE: 3.887
WQ ROW_BUFFER_HIT: Channel 1 
  ROW_BUFFER_MISS:       2044
  FULL:      13675
BERTI TO_L1: 16438508 TO_L2: 5485547 TO_L2_BC_MSHR: 1668489
BERTI AVG_LAT: 68.7376 NUM_TRACK_LATENCY: 139598 NUM_CANT_TRACK_LATENCY: 0
BERTI CROSS_PAGE 6781838 NO_CROSS_PAGE: 15142217
BERTI FOUND_BERTI: 3479482 NO_FOUND_BERTI: 7972543
BERTI AVERAGE_ISSUED: 10.417
CPU 0 L1I Entangling prefetcher final stats
IP accesses: 6f71 1bdc40 2092 / 324673
IP misses: f9ad 3e6b40 178 / 36211
IP hits: 0 0 0 / 0
IP late: 4e9e 13a780 47 / 17851
IP wrong: f7ec 3dfb00 113 / 48121
miss rate: 0.111531
coverage: 0
coverage_late: 0.492972
accuracy: 0
accuracy_late: 0.270585
discarded: 0
evicts entangled j table: 0
evicts entangled k table: 5836
max bb size: 53
formats: 1513 0 5241 2526 1063 2125 0 
hist_lookups: 4365 4662 3629 3223 2967 2516 1878 1383 1079 837 655 465 334 170 76 0 6 5436 
hist_lookups_evict: 0.0178142 %
hist_lookups_shortlat: 16.1397 %
bb_found_hist: 0 81072 33876 16884 8068 3677 1752 1496 439 108 4 110 96 72 25 0 4 0 0 0 1 8 0 0 0 0 0 0 0 0 0 4 4 0 4 0 0 0 0 0 0 0 0 0 0 0 0 0 0 0 0 0 0 3 0 0 0 0 0 0 0 0 0 0 
bb_found_summary: 280088 147707 1.89625
entangled_found_hist: 0 41961 33132 56828 10991 1609 312 0 
entangled_found_summary: 332590 144833 2.29637
bb_ent_found_hist: 0 113571 48463 32719 13573 8242 3733 2354 1625 143 0 113 80 24 13 0 4 0 0 0 1 18 0 0 0 0 0 0 0 0 0 4 4 0 7 0 0 0 0 0 0 0 0 0 0 0 0 0 0 0 0 0 0 4 0 0 0 0 0 0 0 0 0 0 
bb_ent_found_summary: 461180 224695 2.05248
