WARNING: physical memory size is smaller than virtual memory size.

*** ChampSim Multicore Out-of-Order Simulator ***
Warmup Instructions: 30000000
Simulation Instructions: 100000000
Number of CPUs: 1
Page size: 4096

BTB:
Basic BTB sets: 1024 ways: 8
Indirect:
history lengths: 0 0 10 16 27 44 60 96 109 219 449 487 714 1313 2146 3881 
ITTAGE tables: 64768 bytes;Region table: 240 bytes;IUM: 384 bytes;Total Storage= 65392 bytes;
RAS:
RAS size: 64
[LLC] INSTR Demand IPV: 1 2 2 1 4 Prefetch IPV: 1 2 1 1 4
[LLC] DATA  Demand IPV: 1 1 1 2 4 Prefetch IPV: 1 1 2 2 4
Berti Prefetcher
CPU 0 Entangling prefetcher
Off-chip DRAM Size: 8 GiB Channels: 2 Width: 64-bit Data Race: 6400 MT/s
[DUEL] Epoch ended. INSTR misses = 53, DATA misses = 45. Winner = DATA
[DUEL] Epoch ended. INSTR misses = 16, DATA misses = 16. Winner = INSTR
[DUEL] Epoch ended. INSTR misses = 1, DATA misses = 0. Winner = DATA
[DUEL] Epoch ended. INSTR misses = 0, DATA misses = 0. Winner = INSTR
[DUEL] Epoch ended. INSTR misses = 0, DATA misses = 0. Winner = INSTR
[DUEL] Epoch ended. INSTR misses = 0, DATA misses = 0. Winner = INSTR
[DUEL] Epoch ended. INSTR misses = 0, DATA misses = 0. Winner = INSTR
[DUEL] Epoch ended. INSTR misses = 0, DATA misses = 0. Winner = INSTR
[DUEL] Epoch ended. INSTR misses = 0, DATA misses = 0. Winner = INSTR
[DUEL] Epoch ended. INSTR misses = 5, DATA misses = 10. Winner = INSTR
[DUEL] Epoch ended. INSTR misses = 0, DATA misses = 0. Winner = INSTR
[DUEL] Epoch ended. INSTR misses = 8, DATA misses = 1. Winner = DATA
[DUEL] Epoch ended. INSTR misses = 16, DATA misses = 18. Winner = INSTR
Heartbeat CPU 0 instructions: 10000004 cycles: 1715467 heartbeat IPC: 5.829 cumulative IPC: 5.829 (Simulation time: 00 hr 00 min 21 sec)
[DUEL] Epoch ended. INSTR misses = 1, DATA misses = 4. Winner = INSTR
[DUEL] Epoch ended. INSTR misses = 28, DATA misses = 32. Winner = INSTR
[DUEL] Epoch ended. INSTR misses = 112, DATA misses = 87. Winner = DATA
[DUEL] Epoch ended. INSTR misses = 30, DATA misses = 28. Winner = DATA
Heartbeat CPU 0 instructions: 20000004 cycles: 3431654 heartbeat IPC: 5.827 cumulative IPC: 5.828 (Simulation time: 00 hr 00 min 41 sec)
[DUEL] Epoch ended. INSTR misses = 0, DATA misses = 0. Winner = INSTR
*** Reached end of trace: (0, "../traces/secret_traces/crypto/crypto54.champsimtrace.xz")
[DUEL] Epoch ended. INSTR misses = 27, DATA misses = 34. Winner = INSTR
[DUEL] Epoch ended. INSTR misses = 32, DATA misses = 24. Winner = DATA
[DUEL] Epoch ended. INSTR misses = 0, DATA misses = 1. Winner = INSTR
[DUEL] Epoch ended. INSTR misses = 1, DATA misses = 0. Winner = DATA
[DUEL] Epoch ended. INSTR misses = 0, DATA misses = 0. Winner = INSTR
[DUEL] Epoch ended. INSTR misses = 0, DATA misses = 0. Winner = INSTR
[DUEL] Epoch ended. INSTR misses = 0, DATA misses = 0. Winner = INSTR
[DUEL] Epoch ended. INSTR misses = 0, DATA misses = 0. Winner = INSTR
[DUEL] Epoch ended. INSTR misses = 0, DATA misses = 0. Winner = INSTR
[DUEL] Epoch ended. INSTR misses = 5, DATA misses = 5. Winner = INSTR
[DUEL] Epoch ended. INSTR misses = 0, DATA misses = 0. Winner = INSTR
[DUEL] Epoch ended. INSTR misses = 2, DATA misses = 0. Winner = DATA
Heartbeat CPU 0 instructions: 30000001 cycles: 5150056 heartbeat IPC: 5.819 cumulative IPC: 5.825 (Simulation time: 00 hr 01 min 03 sec)
Warmup finished CPU 0 instructions: 30000001 cycles: 5150057 cumulative IPC: 5.825 (Simulation time: 00 hr 01 min 03 sec)
Warmup complete CPU 0 instructions: 30000001 cycles: 5150057 cumulative IPC: 5.825 (Simulation time: 00 hr 01 min 03 sec)
[DUEL] Epoch ended. INSTR misses = 5, DATA misses = 0. Winner = DATA
Heartbeat CPU 0 instructions: 40000010 cycles: 7243902 heartbeat IPC: 4.776 cumulative IPC: 4.776 (Simulation time: 00 hr 01 min 29 sec)
[DUEL] Epoch ended. INSTR misses = 3, DATA misses = 3. Winner = INSTR
[DUEL] Epoch ended. INSTR misses = 7, DATA misses = 6. Winner = DATA
[DUEL] Epoch ended. INSTR misses = 56, DATA misses = 35. Winner = DATA
[DUEL] Epoch ended. INSTR misses = 17, DATA misses = 18. Winner = INSTR
Heartbeat CPU 0 instructions: 50000005 cycles: 9867536 heartbeat IPC: 3.812 cumulative IPC: 4.24 (Simulation time: 00 hr 01 min 59 sec)
[DUEL] Epoch ended. INSTR misses = 0, DATA misses = 0. Winner = INSTR
*** Reached end of trace: (0, "../traces/secret_traces/crypto/crypto54.champsimtrace.xz")
[DUEL] Epoch ended. INSTR misses = 26, DATA misses = 24. Winner = DATA
[DUEL] Epoch ended. INSTR misses = 21, DATA misses = 16. Winner = DATA
[DUEL] Epoch ended. INSTR misses = 0, DATA misses = 0. Winner = INSTR
[DUEL] Epoch ended. INSTR misses = 1, DATA misses = 0. Winner = DATA
[DUEL] Epoch ended. INSTR misses = 0, DATA misses = 0. Winner = INSTR
[DUEL] Epoch ended. INSTR misses = 0, DATA misses = 0. Winner = INSTR
[DUEL] Epoch ended. INSTR misses = 0, DATA misses = 0. Winner = INSTR
[DUEL] Epoch ended. INSTR misses = 0, DATA misses = 0. Winner = INSTR
[DUEL] Epoch ended. INSTR misses = 0, DATA misses = 0. Winner = INSTR
[DUEL] Epoch ended. INSTR misses = 1, DATA misses = 5. Winner = INSTR
[DUEL] Epoch ended. INSTR misses = 1, DATA misses = 0. Winner = DATA
[DUEL] Epoch ended. INSTR misses = 3, DATA misses = 0. Winner = DATA
[DUEL] Epoch ended. INSTR misses = 3, DATA misses = 2. Winner = DATA
[DUEL] Epoch ended. INSTR misses = 0, DATA misses = 0. Winner = INSTR
Heartbeat CPU 0 instructions: 60000006 cycles: 12418859 heartbeat IPC: 3.92 cumulative IPC: 4.127 (Simulation time: 00 hr 02 min 28 sec)
[DUEL] Epoch ended. INSTR misses = 3, DATA misses = 2. Winner = DATA
[DUEL] Epoch ended. INSTR misses = 6, DATA misses = 3. Winner = DATA
Heartbeat CPU 0 instructions: 70000009 cycles: 14659319 heartbeat IPC: 4.463 cumulative IPC: 4.206 (Simulation time: 00 hr 02 min 55 sec)
[DUEL] Epoch ended. INSTR misses = 46, DATA misses = 31. Winner = DATA
[DUEL] Epoch ended. INSTR misses = 15, DATA misses = 12. Winner = DATA
[DUEL] Epoch ended. INSTR misses = 0, DATA misses = 0. Winner = INSTR
*** Reached end of trace: (0, "../traces/secret_traces/crypto/crypto54.champsimtrace.xz")
[DUEL] Epoch ended. INSTR misses = 19, DATA misses = 24. Winner = INSTR
[DUEL] Epoch ended. INSTR misses = 21, DATA misses = 16. Winner = DATA
[DUEL] Epoch ended. INSTR misses = 1, DATA misses = 0. Winner = DATA
[DUEL] Epoch ended. INSTR misses = 1, DATA misses = 0. Winner = DATA
[DUEL] Epoch ended. INSTR misses = 0, DATA misses = 0. Winner = INSTR
[DUEL] Epoch ended. INSTR misses = 0, DATA misses = 0. Winner = INSTR
Heartbeat CPU 0 instructions: 80000000 cycles: 17180801 heartbeat IPC: 3.966 cumulative IPC: 4.156 (Simulation time: 00 hr 03 min 24 sec)
[DUEL] Epoch ended. INSTR misses = 0, DATA misses = 0. Winner = INSTR
[DUEL] Epoch ended. INSTR misses = 0, DATA misses = 0. Winner = INSTR
[DUEL] Epoch ended. INSTR misses = 0, DATA misses = 0. Winner = INSTR
[DUEL] Epoch ended. INSTR misses = 5, DATA misses = 7. Winner = INSTR
[DUEL] Epoch ended. INSTR misses = 1, DATA misses = 0. Winner = DATA
[DUEL] Epoch ended. INSTR misses = 6, DATA misses = 1. Winner = DATA
[DUEL] Epoch ended. INSTR misses = 4, DATA misses = 3. Winner = DATA
[DUEL] Epoch ended. INSTR misses = 0, DATA misses = 0. Winner = INSTR
Heartbeat CPU 0 instructions: 90000001 cycles: 19382273 heartbeat IPC: 4.542 cumulative IPC: 4.216 (Simulation time: 00 hr 03 min 52 sec)
[DUEL] Epoch ended. INSTR misses = 5, DATA misses = 2. Winner = DATA
[DUEL] Epoch ended. INSTR misses = 5, DATA misses = 2. Winner = DATA
[DUEL] Epoch ended. INSTR misses = 39, DATA misses = 28. Winner = DATA
[DUEL] Epoch ended. INSTR misses = 11, DATA misses = 12. Winner = INSTR
Heartbeat CPU 0 instructions: 100000001 cycles: 21822912 heartbeat IPC: 4.097 cumulative IPC: 4.198 (Simulation time: 00 hr 04 min 20 sec)
[DUEL] Epoch ended. INSTR misses = 0, DATA misses = 0. Winner = INSTR
*** Reached end of trace: (0, "../traces/secret_traces/crypto/crypto54.champsimtrace.xz")
[DUEL] Epoch ended. INSTR misses = 17, DATA misses = 20. Winner = INSTR
[DUEL] Epoch ended. INSTR misses = 23, DATA misses = 15. Winner = DATA
[DUEL] Epoch ended. INSTR misses = 0, DATA misses = 0. Winner = INSTR
[DUEL] Epoch ended. INSTR misses = 1, DATA misses = 0. Winner = DATA
[DUEL] Epoch ended. INSTR misses = 0, DATA misses = 0. Winner = INSTR
[DUEL] Epoch ended. INSTR misses = 0, DATA misses = 0. Winner = INSTR
[DUEL] Epoch ended. INSTR misses = 0, DATA misses = 0. Winner = INSTR
[DUEL] Epoch ended. INSTR misses = 0, DATA misses = 0. Winner = INSTR
[DUEL] Epoch ended. INSTR misses = 0, DATA misses = 0. Winner = INSTR
[DUEL] Epoch ended. INSTR misses = 4, DATA misses = 5. Winner = INSTR
[DUEL] Epoch ended. INSTR misses = 1, DATA misses = 0. Winner = DATA
[DUEL] Epoch ended. INSTR misses = 5, DATA misses = 0. Winner = DATA
Heartbeat CPU 0 instructions: 110000007 cycles: 24196651 heartbeat IPC: 4.213 cumulative IPC: 4.2 (Simulation time: 00 hr 04 min 49 sec)
[DUEL] Epoch ended. INSTR misses = 3, DATA misses = 2. Winner = DATA
Heartbeat CPU 0 instructions: 120000000 cycles: 26267860 heartbeat IPC: 4.828 cumulative IPC: 4.262 (Simulation time: 00 hr 05 min 15 sec)
[DUEL] Epoch ended. INSTR misses = 7, DATA misses = 1. Winner = DATA
[DUEL] Epoch ended. INSTR misses = 5, DATA misses = 2. Winner = DATA
[DUEL] Epoch ended. INSTR misses = 41, DATA misses = 28. Winner = DATA
[DUEL] Epoch ended. INSTR misses = 15, DATA misses = 12. Winner = DATA
Heartbeat CPU 0 instructions: 130000004 cycles: 28690637 heartbeat IPC: 4.127 cumulative IPC: 4.248 (Simulation time: 00 hr 05 min 43 sec)
Simulation finished CPU 0 instructions: 100000003 cycles: 23540581 cumulative IPC: 4.248 (Simulation time: 00 hr 05 min 43 sec)
Simulation complete CPU 0 instructions: 100000003 cycles: 23540581 cumulative IPC: 4.248 (Simulation time: 00 hr 05 min 43 sec)

ChampSim completed all CPUs

=== Simulation ===
CPU 0 runs ../traces/secret_traces/crypto/crypto54.champsimtrace.xz
Region of Interest Statistics

CPU 0 cumulative IPC: 4.248 instructions: 100000003 cycles: 23540581
CPU 0 Branch Prediction Accuracy: 98.31% MPKI: 0.837 Average ROB Occupancy at Mispredict: 33.24
Branch type MPKI
BRANCH_DIRECT_JUMP: 0.0501
BRANCH_INDIRECT: 0.436
BRANCH_CONDITIONAL: 0.108
BRANCH_DIRECT_CALL: 0.145
BRANCH_INDIRECT_CALL: 0.0183
BRANCH_RETURN: 0.0797

LLC TOTAL        ACCESS:     422769 HIT:     303208 MISS:     119561
LLC LOAD         ACCESS:      43889 HIT:      22543 MISS:      21346
LLC RFO          ACCESS:     129574 HIT:     102470 MISS:      27104
LLC PREFETCH     ACCESS:     103805 HIT:      52088 MISS:      51717
LLC WRITE        ACCESS:     143100 HIT:     125544 MISS:      17556
LLC TRANSLATION  ACCESS:       2401 HIT:        563 MISS:       1838
LLC PREFETCH REQUESTED:          0 ISSUED:          0 USEFUL:          0 USELESS:          0
LLC AVERAGE MISS LATENCY: 167.1 cycles
cpu0_DTLB TOTAL        ACCESS:   12333964 HIT:   12292619 MISS:      41345
cpu0_DTLB LOAD         ACCESS:   12333964 HIT:   12292619 MISS:      41345
cpu0_DTLB RFO          ACCESS:          0 HIT:          0 MISS:          0
cpu0_DTLB PREFETCH     ACCESS:          0 HIT:          0 MISS:          0
cpu0_DTLB WRITE        ACCESS:          0 HIT:          0 MISS:          0
cpu0_DTLB TRANSLATION  ACCESS:          0 HIT:          0 MISS:          0
cpu0_DTLB PREFETCH REQUESTED:          0 ISSUED:          0 USEFUL:          0 USELESS:          0
cpu0_DTLB AVERAGE MISS LATENCY: 10.25 cycles
cpu0_ITLB TOTAL        ACCESS:     662173 HIT:     648701 MISS:      13472
cpu0_ITLB LOAD         ACCESS:     662173 HIT:     648701 MISS:      13472
cpu0_ITLB RFO          ACCESS:          0 HIT:          0 MISS:          0
cpu0_ITLB PREFETCH     ACCESS:          0 HIT:          0 MISS:          0
cpu0_ITLB WRITE        ACCESS:          0 HIT:          0 MISS:          0
cpu0_ITLB TRANSLATION  ACCESS:          0 HIT:          0 MISS:          0
cpu0_ITLB PREFETCH REQUESTED:          0 ISSUED:          0 USEFUL:          0 USELESS:          0
cpu0_ITLB AVERAGE MISS LATENCY: 18.54 cycles
cpu0_L1D TOTAL        ACCESS:   22716299 HIT:   22097106 MISS:     619193
cpu0_L1D LOAD         ACCESS:    7836356 HIT:    7678460 MISS:     157896
cpu0_L1D RFO          ACCESS:          0 HIT:          0 MISS:          0
cpu0_L1D PREFETCH     ACCESS:   11629570 HIT:   11523428 MISS:     106142
cpu0_L1D WRITE        ACCESS:    3245282 HIT:    2893299 MISS:     351983
cpu0_L1D TRANSLATION  ACCESS:       5091 HIT:       1919 MISS:       3172
cpu0_L1D PREFETCH REQUESTED:   15061967 ISSUED:   11629565 USEFUL:      12309 USELESS:       1574
cpu0_L1D AVERAGE MISS LATENCY: 28.55 cycles
cpu0_L1I TOTAL        ACCESS:     963468 HIT:     802486 MISS:     160982
cpu0_L1I LOAD         ACCESS:     316985 HIT:     279766 MISS:      37219
cpu0_L1I RFO          ACCESS:          0 HIT:          0 MISS:          0
cpu0_L1I PREFETCH     ACCESS:     646483 HIT:     522720 MISS:     123763
cpu0_L1I WRITE        ACCESS:          0 HIT:          0 MISS:          0
cpu0_L1I TRANSLATION  ACCESS:          0 HIT:          0 MISS:          0
cpu0_L1I PREFETCH REQUESTED:    1042539 ISSUED:     646483 USEFUL:      69047 USELESS:      49409
cpu0_L1I AVERAGE MISS LATENCY: 33.49 cycles
cpu0_L2C TOTAL        ACCESS:     960317 HIT:     593195 MISS:     367122
cpu0_L2C LOAD         ACCESS:     125529 HIT:      70581 MISS:      54948
cpu0_L2C RFO          ACCESS:     143629 HIT:      13991 MISS:     129638
cpu0_L2C PREFETCH     ACCESS:     523276 HIT:     343141 MISS:     180135
cpu0_L2C WRITE        ACCESS:     164817 HIT:     164817 MISS:          0
cpu0_L2C TRANSLATION  ACCESS:       3066 HIT:        665 MISS:       2401
cpu0_L2C PREFETCH REQUESTED:     331103 ISSUED:     317726 USEFUL:      27750 USELESS:      24723
cpu0_L2C AVERAGE MISS LATENCY: 67.34 cycles
cpu0_STLB TOTAL        ACCESS:      23823 HIT:      19168 MISS:       4655
cpu0_STLB LOAD         ACCESS:      23823 HIT:      19168 MISS:       4655
cpu0_STLB RFO          ACCESS:          0 HIT:          0 MISS:          0
cpu0_STLB PREFETCH     ACCESS:          0 HIT:          0 MISS:          0
cpu0_STLB WRITE        ACCESS:          0 HIT:          0 MISS:          0
cpu0_STLB TRANSLATION  ACCESS:          0 HIT:          0 MISS:          0
cpu0_STLB PREFETCH REQUESTED:          0 ISSUED:          0 USEFUL:          0 USELESS:          0
cpu0_STLB AVERAGE MISS LATENCY: 124.8 cycles

DRAM Statistics

Channel 0 RQ ROW_BUFFER_HIT:      25025
  ROW_BUFFER_MISS:      26829
 AVG DBUS CONGESTED CYCLE: 3.896
WQ ROW_BUFFER_HIT: Channel 0 
  ROW_BUFFER_MISS:       1826
  FULL:      13144

Channel 1 RQ ROW_BUFFER_HIT:      24192
  ROW_BUFFER_MISS:      25935
 AVG DBUS CONGESTED CYCLE: 3.886
WQ ROW_BUFFER_HIT: Channel 1 
  ROW_BUFFER_MISS:       1955
  FULL:      12427
BERTI TO_L1: 16237763 TO_L2: 4727183 TO_L2_BC_MSHR: 1894113
BERTI AVG_LAT: 67.7607 NUM_TRACK_LATENCY: 158365 NUM_CANT_TRACK_LATENCY: 0
BERTI CROSS_PAGE 5552017 NO_CROSS_PAGE: 15412929
BERTI FOUND_BERTI: 3061383 NO_FOUND_BERTI: 7869400
BERTI AVERAGE_ISSUED: 7.91959
CPU 0 L1I Entangling prefetcher final stats
IP accesses: 77e1 1df840 1403 / 318276
IP misses: 5bf1 16fc40 146 / 38510
IP hits: 0 0 0 / 0
IP late: 59b0 166c00 44 / 18639
IP wrong: f801 3e0040 108 / 49203
miss rate: 0.120996
coverage: 0
coverage_late: 0.484005
accuracy: 0
accuracy_late: 0.274742
discarded: 0
evicts entangled j table: 0
evicts entangled k table: 6379
max bb size: 53
formats: 1543 0 5303 2546 975 1939 0 
hist_lookups: 3940 4601 3740 3420 2999 2635 2058 1588 1244 956 718 505 300 151 79 0 15 6775 
hist_lookups_evict: 0.0419886 %
hist_lookups_shortlat: 18.9649 %
bb_found_hist: 0 81257 34719 15990 8170 3714 1889 1529 485 98 6 99 114 98 24 0 3 0 0 0 0 6 0 0 0 0 0 0 0 0 0 3 3 0 3 0 0 0 0 0 0 0 0 0 0 0 0 0 0 0 0 0 0 3 0 0 0 0 0 0 0 0 0 0 
bb_found_summary: 281465 148213 1.89906
entangled_found_hist: 0 45196 32275 58764 11547 1661 976 0 
entangled_found_summary: 346387 150419 2.30282
bb_ent_found_hist: 0 114527 53122 33672 14870 9127 3649 1756 1838 73 0 141 95 123 15 0 3 0 0 0 0 17 0 0 0 0 0 0 0 0 0 6 3 0 6 0 0 0 0 0 0 0 0 0 0 0 0 0 0 0 0 0 0 4 0 0 0 0 0 0 0 0 0 0 
bb_ent_found_summary: 482052 233047 2.06848
