WARNING: physical memory size is smaller than virtual memory size.

*** ChampSim Multicore Out-of-Order Simulator ***
Warmup Instructions: 30000000
Simulation Instructions: 100000000
Number of CPUs: 1
Page size: 4096

BTB:
Basic BTB sets: 1024 ways: 8
Indirect:
history lengths: 0 0 10 16 27 44 60 96 109 219 449 487 714 1313 2146 3881 
ITTAGE tables: 64768 bytes;Region table: 240 bytes;IUM: 384 bytes;Total Storage= 65392 bytes;
RAS:
RAS size: 64
[LLC] INSTR Demand IPV: 1 2 2 1 4 Prefetch IPV: 1 2 1 1 4
[LLC] DATA  Demand IPV: 1 1 1 2 4 Prefetch IPV: 1 1 2 2 4
Berti Prefetcher
CPU 0 Entangling prefetcher
Off-chip DRAM Size: 8 GiB Channels: 2 Width: 64-bit Data Race: 6400 MT/s
[DUEL] Epoch ended. INSTR misses = 36, DATA misses = 41. Winner = INSTR
[DUEL] Epoch ended. INSTR misses = 16, DATA misses = 16. Winner = INSTR
[DUEL] Epoch ended. INSTR misses = 1, DATA misses = 0. Winner = DATA
[DUEL] Epoch ended. INSTR misses = 0, DATA misses = 0. Winner = INSTR
[DUEL] Epoch ended. INSTR misses = 0, DATA misses = 0. Winner = INSTR
[DUEL] Epoch ended. INSTR misses = 0, DATA misses = 0. Winner = INSTR
[DUEL] Epoch ended. INSTR misses = 0, DATA misses = 1. Winner = INSTR
[DUEL] Epoch ended. INSTR misses = 0, DATA misses = 0. Winner = INSTR
[DUEL] Epoch ended. INSTR misses = 0, DATA misses = 0. Winner = INSTR
[DUEL] Epoch ended. INSTR misses = 16, DATA misses = 18. Winner = INSTR
[DUEL] Epoch ended. INSTR misses = 1, DATA misses = 0. Winner = DATA
[DUEL] Epoch ended. INSTR misses = 8, DATA misses = 1. Winner = DATA
[DUEL] Epoch ended. INSTR misses = 16, DATA misses = 16. Winner = INSTR
Heartbeat CPU 0 instructions: 10000001 cycles: 1715458 heartbeat IPC: 5.829 cumulative IPC: 5.829 (Simulation time: 00 hr 00 min 19 sec)
[DUEL] Epoch ended. INSTR misses = 13, DATA misses = 21. Winner = INSTR
[DUEL] Epoch ended. INSTR misses = 23, DATA misses = 24. Winner = INSTR
[DUEL] Epoch ended. INSTR misses = 87, DATA misses = 99. Winner = INSTR
[DUEL] Epoch ended. INSTR misses = 30, DATA misses = 27. Winner = DATA
Heartbeat CPU 0 instructions: 20000000 cycles: 3431840 heartbeat IPC: 5.826 cumulative IPC: 5.828 (Simulation time: 00 hr 00 min 38 sec)
[DUEL] Epoch ended. INSTR misses = 0, DATA misses = 0. Winner = INSTR
Heartbeat CPU 0 instructions: 30000002 cycles: 5098579 heartbeat IPC: 6 cumulative IPC: 5.884 (Simulation time: 00 hr 00 min 56 sec)
Warmup finished CPU 0 instructions: 30000002 cycles: 5098580 cumulative IPC: 5.884 (Simulation time: 00 hr 00 min 56 sec)
Warmup complete CPU 0 instructions: 30000002 cycles: 5098580 cumulative IPC: 5.884 (Simulation time: 00 hr 00 min 56 sec)
[DUEL] Epoch ended. INSTR misses = 2, DATA misses = 5. Winner = INSTR
*** Reached end of trace: (0, "../traces/secret_traces/crypto/crypto19.champsimtrace.xz")
[DUEL] Epoch ended. INSTR misses = 10, DATA misses = 18. Winner = INSTR
[DUEL] Epoch ended. INSTR misses = 9, DATA misses = 9. Winner = INSTR
[DUEL] Epoch ended. INSTR misses = 2, DATA misses = 1. Winner = DATA
[DUEL] Epoch ended. INSTR misses = 1, DATA misses = 0. Winner = DATA
[DUEL] Epoch ended. INSTR misses = 0, DATA misses = 0. Winner = INSTR
[DUEL] Epoch ended. INSTR misses = 0, DATA misses = 0. Winner = INSTR
[DUEL] Epoch ended. INSTR misses = 0, DATA misses = 0. Winner = INSTR
[DUEL] Epoch ended. INSTR misses = 0, DATA misses = 0. Winner = INSTR
[DUEL] Epoch ended. INSTR misses = 0, DATA misses = 0. Winner = INSTR
[DUEL] Epoch ended. INSTR misses = 0, DATA misses = 0. Winner = INSTR
[DUEL] Epoch ended. INSTR misses = 0, DATA misses = 0. Winner = INSTR
[DUEL] Epoch ended. INSTR misses = 4, DATA misses = 0. Winner = DATA
[DUEL] Epoch ended. INSTR misses = 4, DATA misses = 2. Winner = DATA
Heartbeat CPU 0 instructions: 40000000 cycles: 7680253 heartbeat IPC: 3.873 cumulative IPC: 3.873 (Simulation time: 00 hr 01 min 24 sec)
[DUEL] Epoch ended. INSTR misses = 5, DATA misses = 11. Winner = INSTR
[DUEL] Epoch ended. INSTR misses = 1, DATA misses = 8. Winner = INSTR
[DUEL] Epoch ended. INSTR misses = 39, DATA misses = 52. Winner = INSTR
[DUEL] Epoch ended. INSTR misses = 14, DATA misses = 14. Winner = INSTR
Heartbeat CPU 0 instructions: 50000001 cycles: 10136410 heartbeat IPC: 4.071 cumulative IPC: 3.97 (Simulation time: 00 hr 01 min 52 sec)
[DUEL] Epoch ended. INSTR misses = 0, DATA misses = 0. Winner = INSTR
Heartbeat CPU 0 instructions: 60000007 cycles: 12113647 heartbeat IPC: 5.058 cumulative IPC: 4.277 (Simulation time: 00 hr 02 min 17 sec)
[DUEL] Epoch ended. INSTR misses = 2, DATA misses = 4. Winner = INSTR
*** Reached end of trace: (0, "../traces/secret_traces/crypto/crypto19.champsimtrace.xz")
[DUEL] Epoch ended. INSTR misses = 3, DATA misses = 12. Winner = INSTR
[DUEL] Epoch ended. INSTR misses = 6, DATA misses = 6. Winner = INSTR
[DUEL] Epoch ended. INSTR misses = 1, DATA misses = 0. Winner = DATA
[DUEL] Epoch ended. INSTR misses = 1, DATA misses = 0. Winner = DATA
[DUEL] Epoch ended. INSTR misses = 0, DATA misses = 0. Winner = INSTR
[DUEL] Epoch ended. INSTR misses = 0, DATA misses = 0. Winner = INSTR
[DUEL] Epoch ended. INSTR misses = 0, DATA misses = 0. Winner = INSTR
[DUEL] Epoch ended. INSTR misses = 0, DATA misses = 0. Winner = INSTR
[DUEL] Epoch ended. INSTR misses = 0, DATA misses = 0. Winner = INSTR
[DUEL] Epoch ended. INSTR misses = 0, DATA misses = 0. Winner = INSTR
[DUEL] Epoch ended. INSTR misses = 0, DATA misses = 0. Winner = INSTR
[DUEL] Epoch ended. INSTR misses = 3, DATA misses = 0. Winner = DATA
[DUEL] Epoch ended. INSTR misses = 4, DATA misses = 1. Winner = DATA
Heartbeat CPU 0 instructions: 70000003 cycles: 14541100 heartbeat IPC: 4.12 cumulative IPC: 4.236 (Simulation time: 00 hr 02 min 45 sec)
[DUEL] Epoch ended. INSTR misses = 5, DATA misses = 10. Winner = INSTR
[DUEL] Epoch ended. INSTR misses = 1, DATA misses = 7. Winner = INSTR
[DUEL] Epoch ended. INSTR misses = 36, DATA misses = 45. Winner = INSTR
Heartbeat CPU 0 instructions: 80000000 cycles: 16903094 heartbeat IPC: 4.234 cumulative IPC: 4.236 (Simulation time: 00 hr 03 min 12 sec)
[DUEL] Epoch ended. INSTR misses = 14, DATA misses = 11. Winner = DATA
Heartbeat CPU 0 instructions: 90000007 cycles: 18894373 heartbeat IPC: 5.022 cumulative IPC: 4.349 (Simulation time: 00 hr 03 min 37 sec)
[DUEL] Epoch ended. INSTR misses = 0, DATA misses = 0. Winner = INSTR
[DUEL] Epoch ended. INSTR misses = 2, DATA misses = 4. Winner = INSTR
*** Reached end of trace: (0, "../traces/secret_traces/crypto/crypto19.champsimtrace.xz")
[DUEL] Epoch ended. INSTR misses = 5, DATA misses = 8. Winner = INSTR
[DUEL] Epoch ended. INSTR misses = 5, DATA misses = 5. Winner = INSTR
[DUEL] Epoch ended. INSTR misses = 1, DATA misses = 0. Winner = DATA
[DUEL] Epoch ended. INSTR misses = 1, DATA misses = 0. Winner = DATA
[DUEL] Epoch ended. INSTR misses = 0, DATA misses = 0. Winner = INSTR
[DUEL] Epoch ended. INSTR misses = 0, DATA misses = 0. Winner = INSTR
[DUEL] Epoch ended. INSTR misses = 0, DATA misses = 0. Winner = INSTR
[DUEL] Epoch ended. INSTR misses = 1, DATA misses = 0. Winner = DATA
[DUEL] Epoch ended. INSTR misses = 0, DATA misses = 0. Winner = INSTR
[DUEL] Epoch ended. INSTR misses = 2, DATA misses = 0. Winner = DATA
[DUEL] Epoch ended. INSTR misses = 0, DATA misses = 0. Winner = INSTR
[DUEL] Epoch ended. INSTR misses = 4, DATA misses = 0. Winner = DATA
[DUEL] Epoch ended. INSTR misses = 4, DATA misses = 0. Winner = DATA
Heartbeat CPU 0 instructions: 100000000 cycles: 21283506 heartbeat IPC: 4.186 cumulative IPC: 4.325 (Simulation time: 00 hr 04 min 05 sec)
Heartbeat CPU 0 instructions: 110000005 cycles: 23248108 heartbeat IPC: 5.09 cumulative IPC: 4.408 (Simulation time: 00 hr 04 min 30 sec)
[DUEL] Epoch ended. INSTR misses = 5, DATA misses = 11. Winner = INSTR
[DUEL] Epoch ended. INSTR misses = 1, DATA misses = 8. Winner = INSTR
[DUEL] Epoch ended. INSTR misses = 31, DATA misses = 40. Winner = INSTR
[DUEL] Epoch ended. INSTR misses = 12, DATA misses = 10. Winner = DATA
Heartbeat CPU 0 instructions: 120000003 cycles: 25622541 heartbeat IPC: 4.212 cumulative IPC: 4.385 (Simulation time: 00 hr 04 min 58 sec)
[DUEL] Epoch ended. INSTR misses = 0, DATA misses = 0. Winner = INSTR
[DUEL] Epoch ended. INSTR misses = 2, DATA misses = 5. Winner = INSTR
*** Reached end of trace: (0, "../traces/secret_traces/crypto/crypto19.champsimtrace.xz")
[DUEL] Epoch ended. INSTR misses = 1, DATA misses = 7. Winner = INSTR
[DUEL] Epoch ended. INSTR misses = 6, DATA misses = 8. Winner = INSTR
[DUEL] Epoch ended. INSTR misses = 0, DATA misses = 0. Winner = INSTR
[DUEL] Epoch ended. INSTR misses = 1, DATA misses = 0. Winner = DATA
[DUEL] Epoch ended. INSTR misses = 0, DATA misses = 0. Winner = INSTR
[DUEL] Epoch ended. INSTR misses = 0, DATA misses = 0. Winner = INSTR
[DUEL] Epoch ended. INSTR misses = 0, DATA misses = 0. Winner = INSTR
[DUEL] Epoch ended. INSTR misses = 1, DATA misses = 0. Winner = DATA
[DUEL] Epoch ended. INSTR misses = 0, DATA misses = 0. Winner = INSTR
[DUEL] Epoch ended. INSTR misses = 1, DATA misses = 0. Winner = DATA
[DUEL] Epoch ended. INSTR misses = 0, DATA misses = 0. Winner = INSTR
[DUEL] Epoch ended. INSTR misses = 3, DATA misses = 0. Winner = DATA
[DUEL] Epoch ended. INSTR misses = 5, DATA misses = 0. Winner = DATA
Heartbeat CPU 0 instructions: 130000002 cycles: 27981614 heartbeat IPC: 4.239 cumulative IPC: 4.37 (Simulation time: 00 hr 05 min 25 sec)
Simulation finished CPU 0 instructions: 100000000 cycles: 22883035 cumulative IPC: 4.37 (Simulation time: 00 hr 05 min 25 sec)
Simulation complete CPU 0 instructions: 100000000 cycles: 22883035 cumulative IPC: 4.37 (Simulation time: 00 hr 05 min 25 sec)

ChampSim completed all CPUs

=== Simulation ===
CPU 0 runs ../traces/secret_traces/crypto/crypto19.champsimtrace.xz
Region of Interest Statistics

CPU 0 cumulative IPC: 4.37 instructions: 100000000 cycles: 22883035
CPU 0 Branch Prediction Accuracy: 98.34% MPKI: 0.9525 Average ROB Occupancy at Mispredict: 31.74
Branch type MPKI
BRANCH_DIRECT_JUMP: 0.0531
BRANCH_INDIRECT: 0.487
BRANCH_CONDITIONAL: 0.153
BRANCH_DIRECT_CALL: 0.155
BRANCH_INDIRECT_CALL: 0.02
BRANCH_RETURN: 0.0847

LLC TOTAL        ACCESS:     389754 HIT:     287805 MISS:     101949
LLC LOAD         ACCESS:      40956 HIT:      21148 MISS:      19808
LLC RFO          ACCESS:     117453 HIT:      98628 MISS:      18825
LLC PREFETCH     ACCESS:      96052 HIT:      52069 MISS:      43983
LLC WRITE        ACCESS:     132938 HIT:     115428 MISS:      17510
LLC TRANSLATION  ACCESS:       2355 HIT:        532 MISS:       1823
LLC PREFETCH REQUESTED:          0 ISSUED:          0 USEFUL:          0 USELESS:          0
LLC AVERAGE MISS LATENCY: 142.5 cycles
cpu0_DTLB TOTAL        ACCESS:   14498773 HIT:   14460100 MISS:      38673
cpu0_DTLB LOAD         ACCESS:   14498773 HIT:   14460100 MISS:      38673
cpu0_DTLB RFO          ACCESS:          0 HIT:          0 MISS:          0
cpu0_DTLB PREFETCH     ACCESS:          0 HIT:          0 MISS:          0
cpu0_DTLB WRITE        ACCESS:          0 HIT:          0 MISS:          0
cpu0_DTLB TRANSLATION  ACCESS:          0 HIT:          0 MISS:          0
cpu0_DTLB PREFETCH REQUESTED:          0 ISSUED:          0 USEFUL:          0 USELESS:          0
cpu0_DTLB AVERAGE MISS LATENCY: 10.05 cycles
cpu0_ITLB TOTAL        ACCESS:     677644 HIT:     663474 MISS:      14170
cpu0_ITLB LOAD         ACCESS:     677644 HIT:     663474 MISS:      14170
cpu0_ITLB RFO          ACCESS:          0 HIT:          0 MISS:          0
cpu0_ITLB PREFETCH     ACCESS:          0 HIT:          0 MISS:          0
cpu0_ITLB WRITE        ACCESS:          0 HIT:          0 MISS:          0
cpu0_ITLB TRANSLATION  ACCESS:          0 HIT:          0 MISS:          0
cpu0_ITLB PREFETCH REQUESTED:          0 ISSUED:          0 USEFUL:          0 USELESS:          0
cpu0_ITLB AVERAGE MISS LATENCY: 19.48 cycles
cpu0_L1D TOTAL        ACCESS:   26464303 HIT:   25920047 MISS:     544256
cpu0_L1D LOAD         ACCESS:    8974270 HIT:    8829359 MISS:     144911
cpu0_L1D RFO          ACCESS:          0 HIT:          0 MISS:          0
cpu0_L1D PREFETCH     ACCESS:   14360000 HIT:   14267399 MISS:      92601
cpu0_L1D WRITE        ACCESS:    3125087 HIT:    2821459 MISS:     303628
cpu0_L1D TRANSLATION  ACCESS:       4946 HIT:       1830 MISS:       3116
cpu0_L1D PREFETCH REQUESTED:   18719022 ISSUED:   14359993 USEFUL:      10840 USELESS:       1513
cpu0_L1D AVERAGE MISS LATENCY: 24.69 cycles
cpu0_L1I TOTAL        ACCESS:     985670 HIT:     825553 MISS:     160117
cpu0_L1I LOAD         ACCESS:     323433 HIT:     287710 MISS:      35723
cpu0_L1I RFO          ACCESS:          0 HIT:          0 MISS:          0
cpu0_L1I PREFETCH     ACCESS:     662237 HIT:     537843 MISS:     124394
cpu0_L1I WRITE        ACCESS:          0 HIT:          0 MISS:          0
cpu0_L1I TRANSLATION  ACCESS:          0 HIT:          0 MISS:          0
cpu0_L1I PREFETCH REQUESTED:     989162 ISSUED:     662237 USEFUL:      69762 USELESS:      49268
cpu0_L1I AVERAGE MISS LATENCY: 30.02 cycles
cpu0_L2C TOTAL        ACCESS:     892645 HIT:     558023 MISS:     334622
cpu0_L2C LOAD         ACCESS:     118085 HIT:      67968 MISS:      50117
cpu0_L2C RFO          ACCESS:     127863 HIT:      10368 MISS:     117495
cpu0_L2C PREFETCH     ACCESS:     495234 HIT:     330579 MISS:     164655
cpu0_L2C WRITE        ACCESS:     148462 HIT:     148462 MISS:          0
cpu0_L2C TRANSLATION  ACCESS:       3001 HIT:        646 MISS:       2355
cpu0_L2C PREFETCH REQUESTED:     313633 ISSUED:     299686 USEFUL:      23632 USELESS:      22995
cpu0_L2C AVERAGE MISS LATENCY: 57.07 cycles
cpu0_STLB TOTAL        ACCESS:      23657 HIT:      19099 MISS:       4558
cpu0_STLB LOAD         ACCESS:      23657 HIT:      19099 MISS:       4558
cpu0_STLB RFO          ACCESS:          0 HIT:          0 MISS:          0
cpu0_STLB PREFETCH     ACCESS:          0 HIT:          0 MISS:          0
cpu0_STLB WRITE        ACCESS:          0 HIT:          0 MISS:          0
cpu0_STLB TRANSLATION  ACCESS:          0 HIT:          0 MISS:          0
cpu0_STLB PREFETCH REQUESTED:          0 ISSUED:          0 USEFUL:          0 USELESS:          0
cpu0_STLB AVERAGE MISS LATENCY: 123.4 cycles

DRAM Statistics

Channel 0 RQ ROW_BUFFER_HIT:      20305
  ROW_BUFFER_MISS:      22426
 AVG DBUS CONGESTED CYCLE: 3.869
WQ ROW_BUFFER_HIT: Channel 0 
  ROW_BUFFER_MISS:       1614
  FULL:       9773

Channel 1 RQ ROW_BUFFER_HIT:      19381
  ROW_BUFFER_MISS:      22308
 AVG DBUS CONGESTED CYCLE: 3.858
WQ ROW_BUFFER_HIT: Channel 1 
  ROW_BUFFER_MISS:       1556
  FULL:       9433
BERTI TO_L1: 15054486 TO_L2: 7146155 TO_L2_BC_MSHR: 1282714
BERTI AVG_LAT: 60.9037 NUM_TRACK_LATENCY: 139280 NUM_CANT_TRACK_LATENCY: 0
BERTI CROSS_PAGE 2980217 NO_CROSS_PAGE: 19220424
BERTI FOUND_BERTI: 3790117 NO_FOUND_BERTI: 8120367
BERTI AVERAGE_ISSUED: 9.08856
CPU 0 L1I Entangling prefetcher final stats
IP accesses: 6f71 1bdc40 1758 / 324085
IP misses: 25bf 96fc0 181 / 36375
IP hits: 0 0 0 / 0
IP late: 6e9e 1ba780 51 / 17728
IP wrong: f7ed 3dfb40 102 / 49055
miss rate: 0.11224
coverage: 0
coverage_late: 0.487368
accuracy: 0
accuracy_late: 0.265457
discarded: 0
evicts entangled j table: 0
evicts entangled k table: 6058
max bb size: 53
formats: 1529 0 5236 2580 1048 2163 0 
hist_lookups: 4479 4835 3688 3304 2875 2418 1825 1369 1099 879 638 484 285 174 85 0 18 5255 
hist_lookups_evict: 0.0533967 %
hist_lookups_shortlat: 15.5889 %
bb_found_hist: 0 80588 34108 16923 7414 3711 1748 1489 465 108 4 110 96 72 25 0 4 0 0 0 0 8 0 0 0 0 0 0 0 0 0 4 0 0 4 0 0 0 0 0 0 0 0 0 0 0 0 0 0 0 0 0 0 4 0 0 0 0 0 0 0 0 0 0 
bb_found_summary: 277779 146885 1.89114
entangled_found_hist: 0 43393 34064 54910 9937 1643 593 0 
entangled_found_summary: 327772 144540 2.2677
bb_ent_found_hist: 0 110412 47672 31096 13381 8491 3039 1799 1400 84 0 236 111 27 11 0 198 0 0 0 0 34 0 0 0 0 0 0 0 0 0 5 0 0 4 0 0 0 0 0 0 0 0 0 0 0 0 0 0 0 0 0 0 4 0 0 0 0 0 0 0 0 0 0 
bb_ent_found_summary: 446624 218004 2.0487
