WARNING: physical memory size is smaller than virtual memory size.

*** ChampSim Multicore Out-of-Order Simulator ***
Warmup Instructions: 30000000
Simulation Instructions: 100000000
Number of CPUs: 1
Page size: 4096

BTB:
Basic BTB sets: 1024 ways: 8
Indirect:
history lengths: 0 0 10 16 27 44 60 96 109 219 449 487 714 1313 2146 3881 
ITTAGE tables: 64768 bytes;Region table: 240 bytes;IUM: 384 bytes;Total Storage= 65392 bytes;
RAS:
RAS size: 64
[LLC] INSTR Demand IPV: 1 2 2 1 4 Prefetch IPV: 1 2 1 1 4
[LLC] DATA  Demand IPV: 1 1 1 2 4 Prefetch IPV: 1 1 2 2 4
Berti Prefetcher
CPU 0 Entangling prefetcher
Off-chip DRAM Size: 8 GiB Channels: 2 Width: 64-bit Data Race: 6400 MT/s
[DUEL] Epoch ended. INSTR misses = 54, DATA misses = 46. Winner = DATA
[DUEL] Epoch ended. INSTR misses = 16, DATA misses = 17. Winner = INSTR
[DUEL] Epoch ended. INSTR misses = 0, DATA misses = 0. Winner = INSTR
[DUEL] Epoch ended. INSTR misses = 0, DATA misses = 0. Winner = INSTR
[DUEL] Epoch ended. INSTR misses = 3, DATA misses = 0. Winner = DATA
[DUEL] Epoch ended. INSTR misses = 1, DATA misses = 0. Winner = DATA
[DUEL] Epoch ended. INSTR misses = 1, DATA misses = 0. Winner = DATA
[DUEL] Epoch ended. INSTR misses = 0, DATA misses = 0. Winner = INSTR
[DUEL] Epoch ended. INSTR misses = 0, DATA misses = 0. Winner = INSTR
[DUEL] Epoch ended. INSTR misses = 15, DATA misses = 11. Winner = DATA
[DUEL] Epoch ended. INSTR misses = 6, DATA misses = 2. Winner = DATA
[DUEL] Epoch ended. INSTR misses = 1, DATA misses = 8. Winner = INSTR
[DUEL] Epoch ended. INSTR misses = 0, DATA misses = 0. Winner = INSTR
Heartbeat CPU 0 instructions: 10000006 cycles: 1715391 heartbeat IPC: 5.83 cumulative IPC: 5.83 (Simulation time: 00 hr 00 min 21 sec)
[DUEL] Epoch ended. INSTR misses = 15, DATA misses = 8. Winner = DATA
[DUEL] Epoch ended. INSTR misses = 23, DATA misses = 33. Winner = INSTR
[DUEL] Epoch ended. INSTR misses = 91, DATA misses = 86. Winner = DATA
[DUEL] Epoch ended. INSTR misses = 28, DATA misses = 21. Winner = DATA
Heartbeat CPU 0 instructions: 20000002 cycles: 3431563 heartbeat IPC: 5.827 cumulative IPC: 5.828 (Simulation time: 00 hr 00 min 42 sec)
[DUEL] Epoch ended. INSTR misses = 0, DATA misses = 0. Winner = INSTR
*** Reached end of trace: (0, "../traces/secret_traces/crypto/crypto66.champsimtrace.xz")
[DUEL] Epoch ended. INSTR misses = 4, DATA misses = 7. Winner = INSTR
[DUEL] Epoch ended. INSTR misses = 15, DATA misses = 4. Winner = DATA
[DUEL] Epoch ended. INSTR misses = 1, DATA misses = 0. Winner = DATA
[DUEL] Epoch ended. INSTR misses = 0, DATA misses = 0. Winner = INSTR
[DUEL] Epoch ended. INSTR misses = 0, DATA misses = 0. Winner = INSTR
[DUEL] Epoch ended. INSTR misses = 0, DATA misses = 0. Winner = INSTR
[DUEL] Epoch ended. INSTR misses = 1, DATA misses = 0. Winner = DATA
[DUEL] Epoch ended. INSTR misses = 0, DATA misses = 0. Winner = INSTR
[DUEL] Epoch ended. INSTR misses = 0, DATA misses = 0. Winner = INSTR
[DUEL] Epoch ended. INSTR misses = 6, DATA misses = 6. Winner = INSTR
[DUEL] Epoch ended. INSTR misses = 1, DATA misses = 3. Winner = INSTR
[DUEL] Epoch ended. INSTR misses = 0, DATA misses = 0. Winner = INSTR
[DUEL] Epoch ended. INSTR misses = 1, DATA misses = 4. Winner = INSTR
[DUEL] Epoch ended. INSTR misses = 0, DATA misses = 0. Winner = INSTR
Heartbeat CPU 0 instructions: 30000002 cycles: 5151440 heartbeat IPC: 5.814 cumulative IPC: 5.824 (Simulation time: 00 hr 01 min 04 sec)
Warmup finished CPU 0 instructions: 30000002 cycles: 5151441 cumulative IPC: 5.824 (Simulation time: 00 hr 01 min 04 sec)
Warmup complete CPU 0 instructions: 30000002 cycles: 5151441 cumulative IPC: 5.824 (Simulation time: 00 hr 01 min 04 sec)
[DUEL] Epoch ended. INSTR misses = 4, DATA misses = 2. Winner = DATA
[DUEL] Epoch ended. INSTR misses = 4, DATA misses = 5. Winner = INSTR
[DUEL] Epoch ended. INSTR misses = 48, DATA misses = 37. Winner = DATA
[DUEL] Epoch ended. INSTR misses = 12, DATA misses = 2. Winner = DATA
Heartbeat CPU 0 instructions: 40000000 cycles: 11523639 heartbeat IPC: 1.569 cumulative IPC: 1.569 (Simulation time: 00 hr 02 min 04 sec)
[DUEL] Epoch ended. INSTR misses = 0, DATA misses = 0. Winner = INSTR
*** Reached end of trace: (0, "../traces/secret_traces/crypto/crypto66.champsimtrace.xz")
[DUEL] Epoch ended. INSTR misses = 5, DATA misses = 5. Winner = INSTR
[DUEL] Epoch ended. INSTR misses = 9, DATA misses = 3. Winner = DATA
[DUEL] Epoch ended. INSTR misses = 2, DATA misses = 0. Winner = DATA
[DUEL] Epoch ended. INSTR misses = 0, DATA misses = 0. Winner = INSTR
[DUEL] Epoch ended. INSTR misses = 0, DATA misses = 0. Winner = INSTR
[DUEL] Epoch ended. INSTR misses = 0, DATA misses = 0. Winner = INSTR
[DUEL] Epoch ended. INSTR misses = 0, DATA misses = 0. Winner = INSTR
[DUEL] Epoch ended. INSTR misses = 0, DATA misses = 0. Winner = INSTR
[DUEL] Epoch ended. INSTR misses = 0, DATA misses = 0. Winner = INSTR
[DUEL] Epoch ended. INSTR misses = 6, DATA misses = 6. Winner = INSTR
[DUEL] Epoch ended. INSTR misses = 1, DATA misses = 4. Winner = INSTR
[DUEL] Epoch ended. INSTR misses = 0, DATA misses = 0. Winner = INSTR
[DUEL] Epoch ended. INSTR misses = 1, DATA misses = 4. Winner = INSTR
[DUEL] Epoch ended. INSTR misses = 0, DATA misses = 0. Winner = INSTR
Heartbeat CPU 0 instructions: 50000002 cycles: 16736702 heartbeat IPC: 1.918 cumulative IPC: 1.726 (Simulation time: 00 hr 02 min 54 sec)
Heartbeat CPU 0 instructions: 60000001 cycles: 22852351 heartbeat IPC: 1.635 cumulative IPC: 1.695 (Simulation time: 00 hr 03 min 53 sec)
[DUEL] Epoch ended. INSTR misses = 7, DATA misses = 5. Winner = DATA
[DUEL] Epoch ended. INSTR misses = 3, DATA misses = 5. Winner = INSTR
[DUEL] Epoch ended. INSTR misses = 43, DATA misses = 34. Winner = DATA
[DUEL] Epoch ended. INSTR misses = 9, DATA misses = 1. Winner = DATA
[DUEL] Epoch ended. INSTR misses = 0, DATA misses = 0. Winner = INSTR
*** Reached end of trace: (0, "../traces/secret_traces/crypto/crypto66.champsimtrace.xz")
[DUEL] Epoch ended. INSTR misses = 3, DATA misses = 5. Winner = INSTR
[DUEL] Epoch ended. INSTR misses = 6, DATA misses = 1. Winner = DATA
[DUEL] Epoch ended. INSTR misses = 0, DATA misses = 0. Winner = INSTR
[DUEL] Epoch ended. INSTR misses = 0, DATA misses = 0. Winner = INSTR
[DUEL] Epoch ended. INSTR misses = 0, DATA misses = 0. Winner = INSTR
[DUEL] Epoch ended. INSTR misses = 0, DATA misses = 0. Winner = INSTR
[DUEL] Epoch ended. INSTR misses = 1, DATA misses = 0. Winner = DATA
[DUEL] Epoch ended. INSTR misses = 0, DATA misses = 0. Winner = INSTR
[DUEL] Epoch ended. INSTR misses = 0, DATA misses = 0. Winner = INSTR
[DUEL] Epoch ended. INSTR misses = 6, DATA misses = 5. Winner = DATA
[DUEL] Epoch ended. INSTR misses = 1, DATA misses = 4. Winner = INSTR
[DUEL] Epoch ended. INSTR misses = 0, DATA misses = 0. Winner = INSTR
[DUEL] Epoch ended. INSTR misses = 1, DATA misses = 3. Winner = INSTR
Heartbeat CPU 0 instructions: 70000000 cycles: 28130570 heartbeat IPC: 1.895 cumulative IPC: 1.741 (Simulation time: 00 hr 04 min 44 sec)
[DUEL] Epoch ended. INSTR misses = 0, DATA misses = 0. Winner = INSTR
Heartbeat CPU 0 instructions: 80000001 cycles: 34271201 heartbeat IPC: 1.628 cumulative IPC: 1.717 (Simulation time: 00 hr 05 min 43 sec)
[DUEL] Epoch ended. INSTR misses = 9, DATA misses = 0. Winner = DATA
[DUEL] Epoch ended. INSTR misses = 3, DATA misses = 2. Winner = DATA
[DUEL] Epoch ended. INSTR misses = 42, DATA misses = 32. Winner = DATA
[DUEL] Epoch ended. INSTR misses = 8, DATA misses = 1. Winner = DATA
[DUEL] Epoch ended. INSTR misses = 0, DATA misses = 0. Winner = INSTR
*** Reached end of trace: (0, "../traces/secret_traces/crypto/crypto66.champsimtrace.xz")
[DUEL] Epoch ended. INSTR misses = 4, DATA misses = 5. Winner = INSTR
[DUEL] Epoch ended. INSTR misses = 4, DATA misses = 1. Winner = DATA
[DUEL] Epoch ended. INSTR misses = 0, DATA misses = 0. Winner = INSTR
[DUEL] Epoch ended. INSTR misses = 0, DATA misses = 0. Winner = INSTR
[DUEL] Epoch ended. INSTR misses = 0, DATA misses = 0. Winner = INSTR
[DUEL] Epoch ended. INSTR misses = 0, DATA misses = 0. Winner = INSTR
[DUEL] Epoch ended. INSTR misses = 1, DATA misses = 0. Winner = DATA
[DUEL] Epoch ended. INSTR misses = 0, DATA misses = 0. Winner = INSTR
[DUEL] Epoch ended. INSTR misses = 0, DATA misses = 0. Winner = INSTR
[DUEL] Epoch ended. INSTR misses = 4, DATA misses = 4. Winner = INSTR
[DUEL] Epoch ended. INSTR misses = 1, DATA misses = 4. Winner = INSTR
Heartbeat CPU 0 instructions: 90000007 cycles: 39621678 heartbeat IPC: 1.869 cumulative IPC: 1.741 (Simulation time: 00 hr 06 min 34 sec)
[DUEL] Epoch ended. INSTR misses = 1, DATA misses = 0. Winner = DATA
[DUEL] Epoch ended. INSTR misses = 1, DATA misses = 3. Winner = INSTR
[DUEL] Epoch ended. INSTR misses = 0, DATA misses = 0. Winner = INSTR
Heartbeat CPU 0 instructions: 100000001 cycles: 45674707 heartbeat IPC: 1.652 cumulative IPC: 1.727 (Simulation time: 00 hr 07 min 32 sec)
[DUEL] Epoch ended. INSTR misses = 12, DATA misses = 8. Winner = DATA
[DUEL] Epoch ended. INSTR misses = 3, DATA misses = 3. Winner = INSTR
[DUEL] Epoch ended. INSTR misses = 39, DATA misses = 29. Winner = DATA
[DUEL] Epoch ended. INSTR misses = 7, DATA misses = 1. Winner = DATA
[DUEL] Epoch ended. INSTR misses = 1, DATA misses = 0. Winner = DATA
*** Reached end of trace: (0, "../traces/secret_traces/crypto/crypto66.champsimtrace.xz")
[DUEL] Epoch ended. INSTR misses = 4, DATA misses = 5. Winner = INSTR
[DUEL] Epoch ended. INSTR misses = 4, DATA misses = 1. Winner = DATA
[DUEL] Epoch ended. INSTR misses = 0, DATA misses = 0. Winner = INSTR
[DUEL] Epoch ended. INSTR misses = 0, DATA misses = 0. Winner = INSTR
Heartbeat CPU 0 instructions: 110000003 cycles: 51634879 heartbeat IPC: 1.678 cumulative IPC: 1.721 (Simulation time: 00 hr 08 min 28 sec)
[DUEL] Epoch ended. INSTR misses = 0, DATA misses = 0. Winner = INSTR
[DUEL] Epoch ended. INSTR misses = 0, DATA misses = 0. Winner = INSTR
[DUEL] Epoch ended. INSTR misses = 1, DATA misses = 0. Winner = DATA
[DUEL] Epoch ended. INSTR misses = 0, DATA misses = 0. Winner = INSTR
[DUEL] Epoch ended. INSTR misses = 0, DATA misses = 0. Winner = INSTR
[DUEL] Epoch ended. INSTR misses = 3, DATA misses = 4. Winner = INSTR
[DUEL] Epoch ended. INSTR misses = 1, DATA misses = 4. Winner = INSTR
[DUEL] Epoch ended. INSTR misses = 1, DATA misses = 0. Winner = DATA
[DUEL] Epoch ended. INSTR misses = 1, DATA misses = 3. Winner = INSTR
[DUEL] Epoch ended. INSTR misses = 0, DATA misses = 0. Winner = INSTR
Heartbeat CPU 0 instructions: 120000001 cycles: 57013227 heartbeat IPC: 1.859 cumulative IPC: 1.735 (Simulation time: 00 hr 09 min 21 sec)
[DUEL] Epoch ended. INSTR misses = 7, DATA misses = 3. Winner = DATA
[DUEL] Epoch ended. INSTR misses = 3, DATA misses = 3. Winner = INSTR
[DUEL] Epoch ended. INSTR misses = 41, DATA misses = 31. Winner = DATA
[DUEL] Epoch ended. INSTR misses = 7, DATA misses = 1. Winner = DATA
Heartbeat CPU 0 instructions: 130000000 cycles: 63194365 heartbeat IPC: 1.618 cumulative IPC: 1.723 (Simulation time: 00 hr 10 min 20 sec)
Simulation finished CPU 0 instructions: 100000001 cycles: 58042927 cumulative IPC: 1.723 (Simulation time: 00 hr 10 min 20 sec)
Simulation complete CPU 0 instructions: 100000001 cycles: 58042927 cumulative IPC: 1.723 (Simulation time: 00 hr 10 min 20 sec)

ChampSim completed all CPUs

=== Simulation ===
CPU 0 runs ../traces/secret_traces/crypto/crypto66.champsimtrace.xz
Region of Interest Statistics

CPU 0 cumulative IPC: 1.723 instructions: 100000001 cycles: 58042927
CPU 0 Branch Prediction Accuracy: 98.45% MPKI: 1.067 Average ROB Occupancy at Mispredict: 41.54
Branch type MPKI
BRANCH_DIRECT_JUMP: 0.0635
BRANCH_INDIRECT: 0.555
BRANCH_CONDITIONAL: 0.143
BRANCH_DIRECT_CALL: 0.184
BRANCH_INDIRECT_CALL: 0.0221
BRANCH_RETURN: 0.1

LLC TOTAL        ACCESS:     534460 HIT:     390359 MISS:     144101
LLC LOAD         ACCESS:      53181 HIT:      29143 MISS:      24038
LLC RFO          ACCESS:     164520 HIT:     130833 MISS:      33687
LLC PREFETCH     ACCESS:     132463 HIT:      70719 MISS:      61744
LLC WRITE        ACCESS:     181324 HIT:     158921 MISS:      22403
LLC TRANSLATION  ACCESS:       2972 HIT:        743 MISS:       2229
LLC PREFETCH REQUESTED:          0 ISSUED:          0 USEFUL:          0 USELESS:          0
LLC AVERAGE MISS LATENCY: 171.9 cycles
cpu0_DTLB TOTAL        ACCESS:   25679112 HIT:   25627666 MISS:      51446
cpu0_DTLB LOAD         ACCESS:   25679112 HIT:   25627666 MISS:      51446
cpu0_DTLB RFO          ACCESS:          0 HIT:          0 MISS:          0
cpu0_DTLB PREFETCH     ACCESS:          0 HIT:          0 MISS:          0
cpu0_DTLB WRITE        ACCESS:          0 HIT:          0 MISS:          0
cpu0_DTLB TRANSLATION  ACCESS:          0 HIT:          0 MISS:          0
cpu0_DTLB PREFETCH REQUESTED:          0 ISSUED:          0 USEFUL:          0 USELESS:          0
cpu0_DTLB AVERAGE MISS LATENCY: 9.579 cycles
cpu0_ITLB TOTAL        ACCESS:     846308 HIT:     829643 MISS:      16665
cpu0_ITLB LOAD         ACCESS:     846308 HIT:     829643 MISS:      16665
cpu0_ITLB RFO          ACCESS:          0 HIT:          0 MISS:          0
cpu0_ITLB PREFETCH     ACCESS:          0 HIT:          0 MISS:          0
cpu0_ITLB WRITE        ACCESS:          0 HIT:          0 MISS:          0
cpu0_ITLB TRANSLATION  ACCESS:          0 HIT:          0 MISS:          0
cpu0_ITLB PREFETCH REQUESTED:          0 ISSUED:          0 USEFUL:          0 USELESS:          0
cpu0_ITLB AVERAGE MISS LATENCY: 19.13 cycles
cpu0_L1D TOTAL        ACCESS:   46815577 HIT:   46015234 MISS:     800343
cpu0_L1D LOAD         ACCESS:   13603520 HIT:   13404876 MISS:     198644
cpu0_L1D RFO          ACCESS:          0 HIT:          0 MISS:          0
cpu0_L1D PREFETCH     ACCESS:   29252040 HIT:   29100014 MISS:     152026
cpu0_L1D WRITE        ACCESS:    3953906 HIT:    3508133 MISS:     445773
cpu0_L1D TRANSLATION  ACCESS:       6111 HIT:       2211 MISS:       3900
cpu0_L1D PREFETCH REQUESTED:   33481037 ISSUED:   29252033 USEFUL:      19230 USELESS:       1594
cpu0_L1D AVERAGE MISS LATENCY: 27.67 cycles
cpu0_L1I TOTAL        ACCESS:    1232574 HIT:    1032877 MISS:     199697
cpu0_L1I LOAD         ACCESS:     403794 HIT:     358423 MISS:      45371
cpu0_L1I RFO          ACCESS:          0 HIT:          0 MISS:          0
cpu0_L1I PREFETCH     ACCESS:     828780 HIT:     674454 MISS:     154326
cpu0_L1I WRITE        ACCESS:          0 HIT:          0 MISS:          0
cpu0_L1I TRANSLATION  ACCESS:          0 HIT:          0 MISS:          0
cpu0_L1I PREFETCH REQUESTED:    1343160 ISSUED:     828780 USEFUL:      87912 USELESS:      60222
cpu0_L1I AVERAGE MISS LATENCY: 33.06 cycles
cpu0_L2C TOTAL        ACCESS:    1232718 HIT:     772632 MISS:     460086
cpu0_L2C LOAD         ACCESS:     155086 HIT:      88334 MISS:      66752
cpu0_L2C RFO          ACCESS:     182172 HIT:      17569 MISS:     164603
cpu0_L2C PREFETCH     ACCESS:     681680 HIT:     455921 MISS:     225759
cpu0_L2C WRITE        ACCESS:     210001 HIT:     210001 MISS:          0
cpu0_L2C TRANSLATION  ACCESS:       3779 HIT:        807 MISS:       2972
cpu0_L2C PREFETCH REQUESTED:     429975 ISSUED:     406791 USEFUL:      35994 USELESS:      30965
cpu0_L2C AVERAGE MISS LATENCY: 66.76 cycles
cpu0_STLB TOTAL        ACCESS:      29262 HIT:      23684 MISS:       5578
cpu0_STLB LOAD         ACCESS:      29262 HIT:      23684 MISS:       5578
cpu0_STLB RFO          ACCESS:          0 HIT:          0 MISS:          0
cpu0_STLB PREFETCH     ACCESS:          0 HIT:          0 MISS:          0
cpu0_STLB WRITE        ACCESS:          0 HIT:          0 MISS:          0
cpu0_STLB TRANSLATION  ACCESS:          0 HIT:          0 MISS:          0
cpu0_STLB PREFETCH REQUESTED:          0 ISSUED:          0 USEFUL:          0 USELESS:          0
cpu0_STLB AVERAGE MISS LATENCY: 124.9 cycles

DRAM Statistics

Channel 0 RQ ROW_BUFFER_HIT:      29716
  ROW_BUFFER_MISS:      31986
 AVG DBUS CONGESTED CYCLE: 3.901
WQ ROW_BUFFER_HIT: Channel 0 
  ROW_BUFFER_MISS:       2277
  FULL:      17595

Channel 1 RQ ROW_BUFFER_HIT:      28477
  ROW_BUFFER_MISS:      31480
 AVG DBUS CONGESTED CYCLE: 3.883
WQ ROW_BUFFER_HIT: Channel 1 
  ROW_BUFFER_MISS:       2155
  FULL:      16327
BERTI TO_L1: 37461927 TO_L2: 4674658 TO_L2_BC_MSHR: 2470250
BERTI AVG_LAT: 70.2145 NUM_TRACK_LATENCY: 191878 NUM_CANT_TRACK_LATENCY: 0
BERTI CROSS_PAGE 6035675 NO_CROSS_PAGE: 36100910
BERTI FOUND_BERTI: 3412988 NO_FOUND_BERTI: 14309184
BERTI AVERAGE_ISSUED: 14.355
CPU 0 L1I Entangling prefetcher final stats
IP accesses: 6f71 1bdc40 2078 / 405929
IP misses: 7a6d 1e9b40 209 / 47506
IP hits: 0 0 0 / 0
IP late: 6e9e 1ba780 91 / 22430
IP wrong: f801 3e0040 137 / 59939
miss rate: 0.117031
coverage: 0
coverage_late: 0.472151
accuracy: 0
accuracy_late: 0.272312
discarded: 0
evicts entangled j table: 0
evicts entangled k table: 7780
max bb size: 53
formats: 2026 0 6056 3075 1157 2274 0 
hist_lookups: 4786 5585 4534 4168 3756 3305 2538 1784 1373 1122 855 577 389 200 105 0 3 8362 
hist_lookups_evict: 0.00690576 %
hist_lookups_shortlat: 19.2487 %
bb_found_hist: 0 102393 44524 21597 9964 4709 2270 1941 591 111 8 125 144 124 31 0 4 0 0 0 0 8 0 0 0 0 0 0 0 0 0 4 0 0 4 0 0 0 0 0 0 0 0 0 0 0 0 0 0 0 0 0 0 4 0 0 0 0 0 0 0 0 0 0 
bb_found_summary: 358500 188556 1.9013
entangled_found_hist: 0 56645 39925 74597 15455 2998 893 0 
entangled_found_summary: 442454 190513 2.32244
bb_ent_found_hist: 0 149432 67365 44531 19569 10937 5195 3431 1755 93 0 361 143 45 18 0 4 0 0 0 0 64 0 0 0 0 0 0 0 0 0 8 0 0 8 0 0 0 0 0 0 0 0 0 0 0 0 0 0 0 0 0 0 7 0 0 0 0 0 0 0 0 0 0 
bb_ent_found_summary: 629603 302966 2.07814
