WARNING: physical memory size is smaller than virtual memory size.

*** ChampSim Multicore Out-of-Order Simulator ***
Warmup Instructions: 30000000
Simulation Instructions: 100000000
Number of CPUs: 1
Page size: 4096

BTB:
Basic BTB sets: 1024 ways: 8
Indirect:
history lengths: 0 0 10 16 27 44 60 96 109 219 449 487 714 1313 2146 3881 
ITTAGE tables: 64768 bytes;Region table: 240 bytes;IUM: 384 bytes;Total Storage= 65392 bytes;
RAS:
RAS size: 64
[LLC] INSTR Demand IPV: 1 2 2 1 4 Prefetch IPV: 1 2 1 1 4
[LLC] DATA  Demand IPV: 1 1 1 2 4 Prefetch IPV: 1 1 2 2 4
Berti Prefetcher
CPU 0 Entangling prefetcher
Off-chip DRAM Size: 8 GiB Channels: 2 Width: 64-bit Data Race: 6400 MT/s
[DUEL] Epoch ended. INSTR misses = 36, DATA misses = 41. Winner = INSTR
[DUEL] Epoch ended. INSTR misses = 16, DATA misses = 16. Winner = INSTR
[DUEL] Epoch ended. INSTR misses = 1, DATA misses = 0. Winner = DATA
[DUEL] Epoch ended. INSTR misses = 0, DATA misses = 0. Winner = INSTR
[DUEL] Epoch ended. INSTR misses = 0, DATA misses = 0. Winner = INSTR
[DUEL] Epoch ended. INSTR misses = 0, DATA misses = 0. Winner = INSTR
[DUEL] Epoch ended. INSTR misses = 0, DATA misses = 1. Winner = INSTR
[DUEL] Epoch ended. INSTR misses = 0, DATA misses = 0. Winner = INSTR
[DUEL] Epoch ended. INSTR misses = 0, DATA misses = 0. Winner = INSTR
[DUEL] Epoch ended. INSTR misses = 16, DATA misses = 18. Winner = INSTR
[DUEL] Epoch ended. INSTR misses = 1, DATA misses = 0. Winner = DATA
[DUEL] Epoch ended. INSTR misses = 8, DATA misses = 1. Winner = DATA
[DUEL] Epoch ended. INSTR misses = 16, DATA misses = 16. Winner = INSTR
Heartbeat CPU 0 instructions: 10000000 cycles: 1715452 heartbeat IPC: 5.829 cumulative IPC: 5.829 (Simulation time: 00 hr 00 min 20 sec)
[DUEL] Epoch ended. INSTR misses = 6, DATA misses = 2. Winner = DATA
[DUEL] Epoch ended. INSTR misses = 19, DATA misses = 26. Winner = INSTR
[DUEL] Epoch ended. INSTR misses = 88, DATA misses = 89. Winner = INSTR
Heartbeat CPU 0 instructions: 20000000 cycles: 3431739 heartbeat IPC: 5.827 cumulative IPC: 5.828 (Simulation time: 00 hr 00 min 39 sec)
[DUEL] Epoch ended. INSTR misses = 44, DATA misses = 48. Winner = INSTR
*** Reached end of trace: (0, "../traces/secret_traces/crypto/crypto103.champsimtrace.xz")
[DUEL] Epoch ended. INSTR misses = 6, DATA misses = 10. Winner = INSTR
[DUEL] Epoch ended. INSTR misses = 10, DATA misses = 7. Winner = DATA
[DUEL] Epoch ended. INSTR misses = 2, DATA misses = 0. Winner = DATA
[DUEL] Epoch ended. INSTR misses = 0, DATA misses = 0. Winner = INSTR
[DUEL] Epoch ended. INSTR misses = 0, DATA misses = 0. Winner = INSTR
[DUEL] Epoch ended. INSTR misses = 0, DATA misses = 0. Winner = INSTR
[DUEL] Epoch ended. INSTR misses = 0, DATA misses = 0. Winner = INSTR
[DUEL] Epoch ended. INSTR misses = 0, DATA misses = 2. Winner = INSTR
[DUEL] Epoch ended. INSTR misses = 0, DATA misses = 0. Winner = INSTR
[DUEL] Epoch ended. INSTR misses = 1, DATA misses = 0. Winner = DATA
[DUEL] Epoch ended. INSTR misses = 0, DATA misses = 0. Winner = INSTR
[DUEL] Epoch ended. INSTR misses = 3, DATA misses = 2. Winner = DATA
[DUEL] Epoch ended. INSTR misses = 4, DATA misses = 0. Winner = DATA
Heartbeat CPU 0 instructions: 30000000 cycles: 5151645 heartbeat IPC: 5.814 cumulative IPC: 5.823 (Simulation time: 00 hr 01 min 00 sec)
Warmup finished CPU 0 instructions: 30000000 cycles: 5151646 cumulative IPC: 5.823 (Simulation time: 00 hr 01 min 00 sec)
Warmup complete CPU 0 instructions: 30000000 cycles: 5151646 cumulative IPC: 5.823 (Simulation time: 00 hr 01 min 00 sec)
Heartbeat CPU 0 instructions: 40000000 cycles: 6818320 heartbeat IPC: 6 cumulative IPC: 6 (Simulation time: 00 hr 01 min 21 sec)
[DUEL] Epoch ended. INSTR misses = 1, DATA misses = 3. Winner = INSTR
[DUEL] Epoch ended. INSTR misses = 2, DATA misses = 5. Winner = INSTR
[DUEL] Epoch ended. INSTR misses = 40, DATA misses = 47. Winner = INSTR
[DUEL] Epoch ended. INSTR misses = 34, DATA misses = 37. Winner = INSTR
*** Reached end of trace: (0, "../traces/secret_traces/crypto/crypto103.champsimtrace.xz")
[DUEL] Epoch ended. INSTR misses = 5, DATA misses = 6. Winner = INSTR
[DUEL] Epoch ended. INSTR misses = 5, DATA misses = 2. Winner = DATA
[DUEL] Epoch ended. INSTR misses = 0, DATA misses = 0. Winner = INSTR
[DUEL] Epoch ended. INSTR misses = 0, DATA misses = 0. Winner = INSTR
[DUEL] Epoch ended. INSTR misses = 0, DATA misses = 0. Winner = INSTR
[DUEL] Epoch ended. INSTR misses = 0, DATA misses = 0. Winner = INSTR
[DUEL] Epoch ended. INSTR misses = 0, DATA misses = 0. Winner = INSTR
[DUEL] Epoch ended. INSTR misses = 0, DATA misses = 0. Winner = INSTR
[DUEL] Epoch ended. INSTR misses = 0, DATA misses = 0. Winner = INSTR
[DUEL] Epoch ended. INSTR misses = 0, DATA misses = 0. Winner = INSTR
[DUEL] Epoch ended. INSTR misses = 0, DATA misses = 0. Winner = INSTR
[DUEL] Epoch ended. INSTR misses = 6, DATA misses = 0. Winner = DATA
Heartbeat CPU 0 instructions: 50000006 cycles: 9540961 heartbeat IPC: 3.673 cumulative IPC: 4.557 (Simulation time: 00 hr 01 min 49 sec)
[DUEL] Epoch ended. INSTR misses = 3, DATA misses = 0. Winner = DATA
Heartbeat CPU 0 instructions: 60000003 cycles: 11262375 heartbeat IPC: 5.809 cumulative IPC: 4.909 (Simulation time: 00 hr 02 min 11 sec)
[DUEL] Epoch ended. INSTR misses = 3, DATA misses = 3. Winner = INSTR
[DUEL] Epoch ended. INSTR misses = 1, DATA misses = 3. Winner = INSTR
[DUEL] Epoch ended. INSTR misses = 33, DATA misses = 43. Winner = INSTR
[DUEL] Epoch ended. INSTR misses = 37, DATA misses = 38. Winner = INSTR
*** Reached end of trace: (0, "../traces/secret_traces/crypto/crypto103.champsimtrace.xz")
[DUEL] Epoch ended. INSTR misses = 2, DATA misses = 7. Winner = INSTR
Heartbeat CPU 0 instructions: 70000000 cycles: 13562013 heartbeat IPC: 4.349 cumulative IPC: 4.756 (Simulation time: 00 hr 02 min 36 sec)
[DUEL] Epoch ended. INSTR misses = 2, DATA misses = 6. Winner = INSTR
[DUEL] Epoch ended. INSTR misses = 0, DATA misses = 0. Winner = INSTR
[DUEL] Epoch ended. INSTR misses = 0, DATA misses = 0. Winner = INSTR
[DUEL] Epoch ended. INSTR misses = 0, DATA misses = 0. Winner = INSTR
[DUEL] Epoch ended. INSTR misses = 0, DATA misses = 0. Winner = INSTR
[DUEL] Epoch ended. INSTR misses = 0, DATA misses = 0. Winner = INSTR
[DUEL] Epoch ended. INSTR misses = 0, DATA misses = 0. Winner = INSTR
[DUEL] Epoch ended. INSTR misses = 0, DATA misses = 0. Winner = INSTR
[DUEL] Epoch ended. INSTR misses = 1, DATA misses = 1. Winner = INSTR
[DUEL] Epoch ended. INSTR misses = 0, DATA misses = 0. Winner = INSTR
[DUEL] Epoch ended. INSTR misses = 7, DATA misses = 0. Winner = DATA
[DUEL] Epoch ended. INSTR misses = 4, DATA misses = 2. Winner = DATA
Heartbeat CPU 0 instructions: 80000000 cycles: 15564374 heartbeat IPC: 4.994 cumulative IPC: 4.802 (Simulation time: 00 hr 03 min 00 sec)
[DUEL] Epoch ended. INSTR misses = 1, DATA misses = 2. Winner = INSTR
[DUEL] Epoch ended. INSTR misses = 1, DATA misses = 3. Winner = INSTR
[DUEL] Epoch ended. INSTR misses = 28, DATA misses = 41. Winner = INSTR
Heartbeat CPU 0 instructions: 90000000 cycles: 17656408 heartbeat IPC: 4.78 cumulative IPC: 4.798 (Simulation time: 00 hr 03 min 24 sec)
[DUEL] Epoch ended. INSTR misses = 31, DATA misses = 34. Winner = INSTR
*** Reached end of trace: (0, "../traces/secret_traces/crypto/crypto103.champsimtrace.xz")
[DUEL] Epoch ended. INSTR misses = 3, DATA misses = 5. Winner = INSTR
[DUEL] Epoch ended. INSTR misses = 4, DATA misses = 2. Winner = DATA
[DUEL] Epoch ended. INSTR misses = 0, DATA misses = 0. Winner = INSTR
[DUEL] Epoch ended. INSTR misses = 0, DATA misses = 0. Winner = INSTR
[DUEL] Epoch ended. INSTR misses = 0, DATA misses = 0. Winner = INSTR
[DUEL] Epoch ended. INSTR misses = 0, DATA misses = 0. Winner = INSTR
[DUEL] Epoch ended. INSTR misses = 0, DATA misses = 0. Winner = INSTR
[DUEL] Epoch ended. INSTR misses = 0, DATA misses = 0. Winner = INSTR
[DUEL] Epoch ended. INSTR misses = 0, DATA misses = 0. Winner = INSTR
[DUEL] Epoch ended. INSTR misses = 1, DATA misses = 0. Winner = DATA
[DUEL] Epoch ended. INSTR misses = 0, DATA misses = 0. Winner = INSTR
[DUEL] Epoch ended. INSTR misses = 7, DATA misses = 0. Winner = DATA
[DUEL] Epoch ended. INSTR misses = 3, DATA misses = 0. Winner = DATA
Heartbeat CPU 0 instructions: 100000005 cycles: 19817174 heartbeat IPC: 4.628 cumulative IPC: 4.773 (Simulation time: 00 hr 03 min 49 sec)
Heartbeat CPU 0 instructions: 110000001 cycles: 21483840 heartbeat IPC: 6 cumulative IPC: 4.898 (Simulation time: 00 hr 04 min 11 sec)
[DUEL] Epoch ended. INSTR misses = 3, DATA misses = 2. Winner = DATA
[DUEL] Epoch ended. INSTR misses = 1, DATA misses = 3. Winner = INSTR
[DUEL] Epoch ended. INSTR misses = 30, DATA misses = 38. Winner = INSTR
[DUEL] Epoch ended. INSTR misses = 35, DATA misses = 34. Winner = DATA
*** Reached end of trace: (0, "../traces/secret_traces/crypto/crypto103.champsimtrace.xz")
[DUEL] Epoch ended. INSTR misses = 2, DATA misses = 5. Winner = INSTR
[DUEL] Epoch ended. INSTR misses = 2, DATA misses = 2. Winner = INSTR
[DUEL] Epoch ended. INSTR misses = 0, DATA misses = 0. Winner = INSTR
[DUEL] Epoch ended. INSTR misses = 0, DATA misses = 0. Winner = INSTR
[DUEL] Epoch ended. INSTR misses = 0, DATA misses = 0. Winner = INSTR
[DUEL] Epoch ended. INSTR misses = 0, DATA misses = 0. Winner = INSTR
[DUEL] Epoch ended. INSTR misses = 0, DATA misses = 0. Winner = INSTR
[DUEL] Epoch ended. INSTR misses = 0, DATA misses = 0. Winner = INSTR
[DUEL] Epoch ended. INSTR misses = 0, DATA misses = 0. Winner = INSTR
[DUEL] Epoch ended. INSTR misses = 0, DATA misses = 0. Winner = INSTR
[DUEL] Epoch ended. INSTR misses = 0, DATA misses = 0. Winner = INSTR
[DUEL] Epoch ended. INSTR misses = 7, DATA misses = 0. Winner = DATA
Heartbeat CPU 0 instructions: 120000003 cycles: 24067907 heartbeat IPC: 3.87 cumulative IPC: 4.758 (Simulation time: 00 hr 04 min 39 sec)
[DUEL] Epoch ended. INSTR misses = 5, DATA misses = 0. Winner = DATA
Heartbeat CPU 0 instructions: 130000006 cycles: 25766736 heartbeat IPC: 5.886 cumulative IPC: 4.851 (Simulation time: 00 hr 05 min 00 sec)
Simulation finished CPU 0 instructions: 100000006 cycles: 20615091 cumulative IPC: 4.851 (Simulation time: 00 hr 05 min 00 sec)
Simulation complete CPU 0 instructions: 100000006 cycles: 20615091 cumulative IPC: 4.851 (Simulation time: 00 hr 05 min 00 sec)

ChampSim completed all CPUs

=== Simulation ===
CPU 0 runs ../traces/secret_traces/crypto/crypto103.champsimtrace.xz
Region of Interest Statistics

CPU 0 cumulative IPC: 4.851 instructions: 100000006 cycles: 20615091
CPU 0 Branch Prediction Accuracy: 98.9% MPKI: 0.965 Average ROB Occupancy at Mispredict: 33.03
Branch type MPKI
BRANCH_DIRECT_JUMP: 0.0576
BRANCH_INDIRECT: 0.511
BRANCH_CONDITIONAL: 0.119
BRANCH_DIRECT_CALL: 0.167
BRANCH_INDIRECT_CALL: 0.0201
BRANCH_RETURN: 0.0907

LLC TOTAL        ACCESS:     461943 HIT:     346178 MISS:     115765
LLC LOAD         ACCESS:      47128 HIT:      24177 MISS:      22951
LLC RFO          ACCESS:     143104 HIT:     121230 MISS:      21874
LLC PREFETCH     ACCESS:     111136 HIT:      59400 MISS:      51736
LLC WRITE        ACCESS:     157936 HIT:     140644 MISS:      17292
LLC TRANSLATION  ACCESS:       2639 HIT:        727 MISS:       1912
LLC PREFETCH REQUESTED:          0 ISSUED:          0 USEFUL:          0 USELESS:          0
LLC AVERAGE MISS LATENCY: 150 cycles
cpu0_DTLB TOTAL        ACCESS:   12560586 HIT:   12515798 MISS:      44788
cpu0_DTLB LOAD         ACCESS:   12560586 HIT:   12515798 MISS:      44788
cpu0_DTLB RFO          ACCESS:          0 HIT:          0 MISS:          0
cpu0_DTLB PREFETCH     ACCESS:          0 HIT:          0 MISS:          0
cpu0_DTLB WRITE        ACCESS:          0 HIT:          0 MISS:          0
cpu0_DTLB TRANSLATION  ACCESS:          0 HIT:          0 MISS:          0
cpu0_DTLB PREFETCH REQUESTED:          0 ISSUED:          0 USEFUL:          0 USELESS:          0
cpu0_DTLB AVERAGE MISS LATENCY: 9.076 cycles
cpu0_ITLB TOTAL        ACCESS:     762536 HIT:     747170 MISS:      15366
cpu0_ITLB LOAD         ACCESS:     762536 HIT:     747170 MISS:      15366
cpu0_ITLB RFO          ACCESS:          0 HIT:          0 MISS:          0
cpu0_ITLB PREFETCH     ACCESS:          0 HIT:          0 MISS:          0
cpu0_ITLB WRITE        ACCESS:          0 HIT:          0 MISS:          0
cpu0_ITLB TRANSLATION  ACCESS:          0 HIT:          0 MISS:          0
cpu0_ITLB PREFETCH REQUESTED:          0 ISSUED:          0 USEFUL:          0 USELESS:          0
cpu0_ITLB AVERAGE MISS LATENCY: 17.69 cycles
cpu0_L1D TOTAL        ACCESS:   17613774 HIT:   16965033 MISS:     648741
cpu0_L1D LOAD         ACCESS:   11302366 HIT:   11132236 MISS:     170130
cpu0_L1D RFO          ACCESS:          0 HIT:          0 MISS:          0
cpu0_L1D PREFETCH     ACCESS:     559718 HIT:     459044 MISS:     100674
cpu0_L1D WRITE        ACCESS:    5746219 HIT:    5371721 MISS:     374498
cpu0_L1D TRANSLATION  ACCESS:       5471 HIT:       2032 MISS:       3439
cpu0_L1D PREFETCH REQUESTED:    3634925 ISSUED:     559718 USEFUL:      12351 USELESS:       1536
cpu0_L1D AVERAGE MISS LATENCY: 24.9 cycles
cpu0_L1I TOTAL        ACCESS:    1113764 HIT:     932515 MISS:     181249
cpu0_L1I LOAD         ACCESS:     362039 HIT:     321141 MISS:      40898
cpu0_L1I RFO          ACCESS:          0 HIT:          0 MISS:          0
cpu0_L1I PREFETCH     ACCESS:     751725 HIT:     611374 MISS:     140351
cpu0_L1I WRITE        ACCESS:          0 HIT:          0 MISS:          0
cpu0_L1I TRANSLATION  ACCESS:          0 HIT:          0 MISS:          0
cpu0_L1I PREFETCH REQUESTED:    1210582 ISSUED:     751725 USEFUL:      78132 USELESS:      56444
cpu0_L1I AVERAGE MISS LATENCY: 30.57 cycles
cpu0_L2C TOTAL        ACCESS:    1025969 HIT:     629415 MISS:     396554
cpu0_L2C LOAD         ACCESS:     137011 HIT:      78474 MISS:      58537
cpu0_L2C RFO          ACCESS:     154971 HIT:      11772 MISS:     143199
cpu0_L2C PREFETCH     ACCESS:     553873 HIT:     361694 MISS:     192179
cpu0_L2C WRITE        ACCESS:     176765 HIT:     176765 MISS:          0
cpu0_L2C TRANSLATION  ACCESS:       3349 HIT:        710 MISS:       2639
cpu0_L2C PREFETCH REQUESTED:     352620 ISSUED:     338264 USEFUL:      27727 USELESS:      26590
cpu0_L2C AVERAGE MISS LATENCY: 57.05 cycles
cpu0_STLB TOTAL        ACCESS:      26397 HIT:      21377 MISS:       5020
cpu0_STLB LOAD         ACCESS:      26397 HIT:      21377 MISS:       5020
cpu0_STLB RFO          ACCESS:          0 HIT:          0 MISS:          0
cpu0_STLB PREFETCH     ACCESS:          0 HIT:          0 MISS:          0
cpu0_STLB WRITE        ACCESS:          0 HIT:          0 MISS:          0
cpu0_STLB TRANSLATION  ACCESS:          0 HIT:          0 MISS:          0
cpu0_STLB PREFETCH REQUESTED:          0 ISSUED:          0 USEFUL:          0 USELESS:          0
cpu0_STLB AVERAGE MISS LATENCY: 112.2 cycles

DRAM Statistics

Channel 0 RQ ROW_BUFFER_HIT:      23915
  ROW_BUFFER_MISS:      26043
 AVG DBUS CONGESTED CYCLE: 3.882
WQ ROW_BUFFER_HIT: Channel 0 
  ROW_BUFFER_MISS:       1715
  FULL:      11379

Channel 1 RQ ROW_BUFFER_HIT:      23292
  ROW_BUFFER_MISS:      25121
 AVG DBUS CONGESTED CYCLE: 3.87
WQ ROW_BUFFER_HIT: Channel 1 
  ROW_BUFFER_MISS:       1653
  FULL:      11051
BERTI TO_L1: 1573811 TO_L2: 2915133 TO_L2_BC_MSHR: 1586026
BERTI AVG_LAT: 60.9258 NUM_TRACK_LATENCY: 168191 NUM_CANT_TRACK_LATENCY: 0
BERTI CROSS_PAGE 905338 NO_CROSS_PAGE: 3583606
BERTI FOUND_BERTI: 1065624 NO_FOUND_BERTI: 14205119
BERTI AVERAGE_ISSUED: 4.18933
CPU 0 L1I Entangling prefetcher final stats
IP accesses: 6f71 1bdc40 2061 / 362794
IP misses: 5bf1 16fc40 166 / 41653
IP hits: 0 0 0 / 0
IP late: 6e9e 1ba780 93 / 20306
IP wrong: 251e 94780 123 / 56228
miss rate: 0.114812
coverage: 0
coverage_late: 0.487504
accuracy: 0
accuracy_late: 0.26532
discarded: 0
evicts entangled j table: 0
evicts entangled k table: 6845
max bb size: 53
formats: 1777 0 5705 2754 1149 2053 0 
hist_lookups: 4351 5034 4024 3690 3449 2994 2268 1674 1270 977 760 496 305 155 100 0 9 7552 
hist_lookups_evict: 0.0230132 %
hist_lookups_shortlat: 19.3107 %
bb_found_hist: 0 93556 39243 19122 8535 4291 2082 1770 558 110 6 109 119 98 28 0 4 0 0 0 0 8 0 0 0 0 0 0 0 0 0 4 0 0 4 0 0 0 0 0 0 0 0 0 0 0 0 0 0 0 0 0 0 4 0 0 0 0 0 0 0 0 0 0 
bb_found_summary: 320396 169651 1.88856
entangled_found_hist: 0 50512 36086 70669 12515 2048 552 0 
entangled_found_summary: 398303 172382 2.31059
bb_ent_found_hist: 0 134363 59828 39685 17405 12002 4761 2544 1349 116 0 239 120 38 14 0 252 0 0 0 0 19 0 0 0 0 0 0 0 0 0 8 0 0 4 0 0 0 0 0 0 0 0 0 0 0 0 0 0 0 0 0 0 10 0 0 0 0 0 0 0 0 0 0 
bb_ent_found_summary: 571018 272757 2.09351
