WARNING: physical memory size is smaller than virtual memory size.

*** ChampSim Multicore Out-of-Order Simulator ***
Warmup Instructions: 30000000
Simulation Instructions: 100000000
Number of CPUs: 1
Page size: 4096

BTB:
Basic BTB sets: 1024 ways: 8
Indirect:
history lengths: 0 0 10 16 27 44 60 96 109 219 449 487 714 1313 2146 3881 
ITTAGE tables: 64768 bytes;Region table: 240 bytes;IUM: 384 bytes;Total Storage= 65392 bytes;
RAS:
RAS size: 64
[LLC] INSTR Demand IPV: 1 2 2 1 4 Prefetch IPV: 1 2 1 1 4
[LLC] DATA  Demand IPV: 1 1 1 2 4 Prefetch IPV: 1 1 2 2 4
Berti Prefetcher
CPU 0 Entangling prefetcher
Off-chip DRAM Size: 8 GiB Channels: 2 Width: 64-bit Data Race: 6400 MT/s
[DUEL] Epoch ended. INSTR misses = 55, DATA misses = 63. Winner = INSTR
[DUEL] Epoch ended. INSTR misses = 16, DATA misses = 18. Winner = INSTR
[DUEL] Epoch ended. INSTR misses = 0, DATA misses = 0. Winner = INSTR
[DUEL] Epoch ended. INSTR misses = 0, DATA misses = 0. Winner = INSTR
[DUEL] Epoch ended. INSTR misses = 0, DATA misses = 0. Winner = INSTR
[DUEL] Epoch ended. INSTR misses = 0, DATA misses = 0. Winner = INSTR
[DUEL] Epoch ended. INSTR misses = 16, DATA misses = 16. Winner = INSTR
[DUEL] Epoch ended. INSTR misses = 0, DATA misses = 0. Winner = INSTR
[DUEL] Epoch ended. INSTR misses = 0, DATA misses = 0. Winner = INSTR
[DUEL] Epoch ended. INSTR misses = 5, DATA misses = 4. Winner = DATA
[DUEL] Epoch ended. INSTR misses = 16, DATA misses = 16. Winner = INSTR
[DUEL] Epoch ended. INSTR misses = 3, DATA misses = 2. Winner = DATA
Heartbeat CPU 0 instructions: 10000005 cycles: 1714865 heartbeat IPC: 5.831 cumulative IPC: 5.831 (Simulation time: 00 hr 00 min 21 sec)
[DUEL] Epoch ended. INSTR misses = 12, DATA misses = 25. Winner = INSTR
[DUEL] Epoch ended. INSTR misses = 19, DATA misses = 20. Winner = INSTR
[DUEL] Epoch ended. INSTR misses = 94, DATA misses = 100. Winner = INSTR
Heartbeat CPU 0 instructions: 20000006 cycles: 3431142 heartbeat IPC: 5.827 cumulative IPC: 5.829 (Simulation time: 00 hr 00 min 41 sec)
[DUEL] Epoch ended. INSTR misses = 41, DATA misses = 30. Winner = DATA
*** Reached end of trace: (0, "../traces/secret_traces/crypto/crypto71.champsimtrace.xz")
[DUEL] Epoch ended. INSTR misses = 27, DATA misses = 27. Winner = INSTR
[DUEL] Epoch ended. INSTR misses = 27, DATA misses = 30. Winner = INSTR
[DUEL] Epoch ended. INSTR misses = 0, DATA misses = 0. Winner = INSTR
[DUEL] Epoch ended. INSTR misses = 0, DATA misses = 0. Winner = INSTR
[DUEL] Epoch ended. INSTR misses = 0, DATA misses = 0. Winner = INSTR
[DUEL] Epoch ended. INSTR misses = 2, DATA misses = 0. Winner = DATA
[DUEL] Epoch ended. INSTR misses = 0, DATA misses = 0. Winner = INSTR
[DUEL] Epoch ended. INSTR misses = 1, DATA misses = 0. Winner = DATA
[DUEL] Epoch ended. INSTR misses = 0, DATA misses = 0. Winner = INSTR
[DUEL] Epoch ended. INSTR misses = 0, DATA misses = 2. Winner = INSTR
Heartbeat CPU 0 instructions: 30000004 cycles: 5132492 heartbeat IPC: 5.878 cumulative IPC: 5.845 (Simulation time: 00 hr 01 min 03 sec)
Warmup finished CPU 0 instructions: 30000004 cycles: 5132493 cumulative IPC: 5.845 (Simulation time: 00 hr 01 min 03 sec)
Warmup complete CPU 0 instructions: 30000004 cycles: 5132493 cumulative IPC: 5.845 (Simulation time: 00 hr 01 min 03 sec)
[DUEL] Epoch ended. INSTR misses = 6, DATA misses = 0. Winner = DATA
[DUEL] Epoch ended. INSTR misses = 12, DATA misses = 12. Winner = INSTR
[DUEL] Epoch ended. INSTR misses = 5, DATA misses = 0. Winner = DATA
Heartbeat CPU 0 instructions: 40000000 cycles: 6947401 heartbeat IPC: 5.51 cumulative IPC: 5.51 (Simulation time: 00 hr 01 min 27 sec)
[DUEL] Epoch ended. INSTR misses = 9, DATA misses = 19. Winner = INSTR
[DUEL] Epoch ended. INSTR misses = 1, DATA misses = 4. Winner = INSTR
[DUEL] Epoch ended. INSTR misses = 39, DATA misses = 54. Winner = INSTR
Heartbeat CPU 0 instructions: 50000001 cycles: 9128734 heartbeat IPC: 4.584 cumulative IPC: 5.005 (Simulation time: 00 hr 01 min 53 sec)
[DUEL] Epoch ended. INSTR misses = 28, DATA misses = 14. Winner = DATA
*** Reached end of trace: (0, "../traces/secret_traces/crypto/crypto71.champsimtrace.xz")
[DUEL] Epoch ended. INSTR misses = 26, DATA misses = 18. Winner = DATA
[DUEL] Epoch ended. INSTR misses = 21, DATA misses = 25. Winner = INSTR
[DUEL] Epoch ended. INSTR misses = 0, DATA misses = 0. Winner = INSTR
[DUEL] Epoch ended. INSTR misses = 0, DATA misses = 0. Winner = INSTR
[DUEL] Epoch ended. INSTR misses = 0, DATA misses = 0. Winner = INSTR
[DUEL] Epoch ended. INSTR misses = 2, DATA misses = 0. Winner = DATA
[DUEL] Epoch ended. INSTR misses = 0, DATA misses = 0. Winner = INSTR
[DUEL] Epoch ended. INSTR misses = 0, DATA misses = 0. Winner = INSTR
[DUEL] Epoch ended. INSTR misses = 0, DATA misses = 0. Winner = INSTR
[DUEL] Epoch ended. INSTR misses = 0, DATA misses = 1. Winner = INSTR
[DUEL] Epoch ended. INSTR misses = 5, DATA misses = 0. Winner = DATA
[DUEL] Epoch ended. INSTR misses = 11, DATA misses = 12. Winner = INSTR
Heartbeat CPU 0 instructions: 60000005 cycles: 11333533 heartbeat IPC: 4.536 cumulative IPC: 4.838 (Simulation time: 00 hr 02 min 19 sec)
[DUEL] Epoch ended. INSTR misses = 7, DATA misses = 0. Winner = DATA
Heartbeat CPU 0 instructions: 70000001 cycles: 13052462 heartbeat IPC: 5.818 cumulative IPC: 5.051 (Simulation time: 00 hr 02 min 43 sec)
[DUEL] Epoch ended. INSTR misses = 9, DATA misses = 17. Winner = INSTR
[DUEL] Epoch ended. INSTR misses = 2, DATA misses = 2. Winner = INSTR
[DUEL] Epoch ended. INSTR misses = 39, DATA misses = 51. Winner = INSTR
Heartbeat CPU 0 instructions: 80000002 cycles: 15204498 heartbeat IPC: 4.647 cumulative IPC: 4.964 (Simulation time: 00 hr 03 min 09 sec)
[DUEL] Epoch ended. INSTR misses = 21, DATA misses = 11. Winner = DATA
*** Reached end of trace: (0, "../traces/secret_traces/crypto/crypto71.champsimtrace.xz")
[DUEL] Epoch ended. INSTR misses = 23, DATA misses = 14. Winner = DATA
[DUEL] Epoch ended. INSTR misses = 18, DATA misses = 23. Winner = INSTR
[DUEL] Epoch ended. INSTR misses = 0, DATA misses = 0. Winner = INSTR
[DUEL] Epoch ended. INSTR misses = 0, DATA misses = 0. Winner = INSTR
[DUEL] Epoch ended. INSTR misses = 0, DATA misses = 0. Winner = INSTR
[DUEL] Epoch ended. INSTR misses = 0, DATA misses = 0. Winner = INSTR
[DUEL] Epoch ended. INSTR misses = 0, DATA misses = 0. Winner = INSTR
[DUEL] Epoch ended. INSTR misses = 1, DATA misses = 0. Winner = DATA
[DUEL] Epoch ended. INSTR misses = 0, DATA misses = 0. Winner = INSTR
[DUEL] Epoch ended. INSTR misses = 0, DATA misses = 1. Winner = INSTR
[DUEL] Epoch ended. INSTR misses = 5, DATA misses = 0. Winner = DATA
[DUEL] Epoch ended. INSTR misses = 11, DATA misses = 12. Winner = INSTR
[DUEL] Epoch ended. INSTR misses = 4, DATA misses = 2. Winner = DATA
Heartbeat CPU 0 instructions: 90000001 cycles: 17343828 heartbeat IPC: 4.674 cumulative IPC: 4.913 (Simulation time: 00 hr 03 min 35 sec)
[DUEL] Epoch ended. INSTR misses = 9, DATA misses = 17. Winner = INSTR
Heartbeat CPU 0 instructions: 100000000 cycles: 19101794 heartbeat IPC: 5.688 cumulative IPC: 5.011 (Simulation time: 00 hr 03 min 59 sec)
[DUEL] Epoch ended. INSTR misses = 0, DATA misses = 2. Winner = INSTR
[DUEL] Epoch ended. INSTR misses = 35, DATA misses = 46. Winner = INSTR
[DUEL] Epoch ended. INSTR misses = 19, DATA misses = 10. Winner = DATA
*** Reached end of trace: (0, "../traces/secret_traces/crypto/crypto71.champsimtrace.xz")
[DUEL] Epoch ended. INSTR misses = 21, DATA misses = 17. Winner = DATA
[DUEL] Epoch ended. INSTR misses = 18, DATA misses = 23. Winner = INSTR
Heartbeat CPU 0 instructions: 110000001 cycles: 21341291 heartbeat IPC: 4.465 cumulative IPC: 4.936 (Simulation time: 00 hr 04 min 26 sec)
[DUEL] Epoch ended. INSTR misses = 0, DATA misses = 0. Winner = INSTR
[DUEL] Epoch ended. INSTR misses = 0, DATA misses = 0. Winner = INSTR
[DUEL] Epoch ended. INSTR misses = 0, DATA misses = 0. Winner = INSTR
[DUEL] Epoch ended. INSTR misses = 0, DATA misses = 0. Winner = INSTR
[DUEL] Epoch ended. INSTR misses = 0, DATA misses = 0. Winner = INSTR
[DUEL] Epoch ended. INSTR misses = 1, DATA misses = 0. Winner = DATA
[DUEL] Epoch ended. INSTR misses = 0, DATA misses = 0. Winner = INSTR
[DUEL] Epoch ended. INSTR misses = 0, DATA misses = 1. Winner = INSTR
[DUEL] Epoch ended. INSTR misses = 5, DATA misses = 0. Winner = DATA
[DUEL] Epoch ended. INSTR misses = 11, DATA misses = 12. Winner = INSTR
[DUEL] Epoch ended. INSTR misses = 4, DATA misses = 2. Winner = DATA
Heartbeat CPU 0 instructions: 120000006 cycles: 23247672 heartbeat IPC: 5.246 cumulative IPC: 4.968 (Simulation time: 00 hr 04 min 51 sec)
[DUEL] Epoch ended. INSTR misses = 9, DATA misses = 18. Winner = INSTR
[DUEL] Epoch ended. INSTR misses = 0, DATA misses = 2. Winner = INSTR
[DUEL] Epoch ended. INSTR misses = 33, DATA misses = 45. Winner = INSTR
Heartbeat CPU 0 instructions: 130000002 cycles: 25381300 heartbeat IPC: 4.687 cumulative IPC: 4.939 (Simulation time: 00 hr 05 min 17 sec)
Simulation finished CPU 0 instructions: 100000010 cycles: 20248809 cumulative IPC: 4.939 (Simulation time: 00 hr 05 min 17 sec)
Simulation complete CPU 0 instructions: 100000010 cycles: 20248809 cumulative IPC: 4.939 (Simulation time: 00 hr 05 min 17 sec)

ChampSim completed all CPUs

=== Simulation ===
CPU 0 runs ../traces/secret_traces/crypto/crypto71.champsimtrace.xz
Region of Interest Statistics

CPU 0 cumulative IPC: 4.939 instructions: 100000010 cycles: 20248809
CPU 0 Branch Prediction Accuracy: 99.07% MPKI: 0.7959 Average ROB Occupancy at Mispredict: 31.02
Branch type MPKI
BRANCH_DIRECT_JUMP: 0.0488
BRANCH_INDIRECT: 0.416
BRANCH_CONDITIONAL: 0.106
BRANCH_DIRECT_CALL: 0.134
BRANCH_INDIRECT_CALL: 0.0167
BRANCH_RETURN: 0.0742

LLC TOTAL        ACCESS:     422946 HIT:     308032 MISS:     114914
LLC LOAD         ACCESS:      44140 HIT:      23939 MISS:      20201
LLC RFO          ACCESS:     133782 HIT:     105469 MISS:      28313
LLC PREFETCH     ACCESS:      99452 HIT:      56176 MISS:      43276
LLC WRITE        ACCESS:     143397 HIT:     121777 MISS:      21620
LLC TRANSLATION  ACCESS:       2175 HIT:        671 MISS:       1504
LLC PREFETCH REQUESTED:          0 ISSUED:          0 USEFUL:          0 USELESS:          0
LLC AVERAGE MISS LATENCY: 160.8 cycles
cpu0_DTLB TOTAL        ACCESS:   12836124 HIT:   12795345 MISS:      40779
cpu0_DTLB LOAD         ACCESS:   12836124 HIT:   12795345 MISS:      40779
cpu0_DTLB RFO          ACCESS:          0 HIT:          0 MISS:          0
cpu0_DTLB PREFETCH     ACCESS:          0 HIT:          0 MISS:          0
cpu0_DTLB WRITE        ACCESS:          0 HIT:          0 MISS:          0
cpu0_DTLB TRANSLATION  ACCESS:          0 HIT:          0 MISS:          0
cpu0_DTLB PREFETCH REQUESTED:          0 ISSUED:          0 USEFUL:          0 USELESS:          0
cpu0_DTLB AVERAGE MISS LATENCY: 8.327 cycles
cpu0_ITLB TOTAL        ACCESS:     666855 HIT:     653608 MISS:      13247
cpu0_ITLB LOAD         ACCESS:     666855 HIT:     653608 MISS:      13247
cpu0_ITLB RFO          ACCESS:          0 HIT:          0 MISS:          0
cpu0_ITLB PREFETCH     ACCESS:          0 HIT:          0 MISS:          0
cpu0_ITLB WRITE        ACCESS:          0 HIT:          0 MISS:          0
cpu0_ITLB TRANSLATION  ACCESS:          0 HIT:          0 MISS:          0
cpu0_ITLB PREFETCH REQUESTED:          0 ISSUED:          0 USEFUL:          0 USELESS:          0
cpu0_ITLB AVERAGE MISS LATENCY: 17.63 cycles
cpu0_L1D TOTAL        ACCESS:   17964361 HIT:   17363490 MISS:     600871
cpu0_L1D LOAD         ACCESS:   11014047 HIT:   10859124 MISS:     154923
cpu0_L1D RFO          ACCESS:          0 HIT:          0 MISS:          0
cpu0_L1D PREFETCH     ACCESS:     497220 HIT:     407167 MISS:      90053
cpu0_L1D WRITE        ACCESS:    6448420 HIT:    6095365 MISS:     353055
cpu0_L1D TRANSLATION  ACCESS:       4674 HIT:       1834 MISS:       2840
cpu0_L1D PREFETCH REQUESTED:    3982441 ISSUED:     497220 USEFUL:      11672 USELESS:       1475
cpu0_L1D AVERAGE MISS LATENCY: 29.56 cycles
cpu0_L1I TOTAL        ACCESS:     971197 HIT:     811354 MISS:     159843
cpu0_L1I LOAD         ACCESS:     318128 HIT:     281684 MISS:      36444
cpu0_L1I RFO          ACCESS:          0 HIT:          0 MISS:          0
cpu0_L1I PREFETCH     ACCESS:     653069 HIT:     529670 MISS:     123399
cpu0_L1I WRITE        ACCESS:          0 HIT:          0 MISS:          0
cpu0_L1I TRANSLATION  ACCESS:          0 HIT:          0 MISS:          0
cpu0_L1I PREFETCH REQUESTED:    1064216 ISSUED:     653058 USEFUL:      69631 USELESS:      48410
cpu0_L1I AVERAGE MISS LATENCY: 29.19 cycles
cpu0_L2C TOTAL        ACCESS:     929840 HIT:     566700 MISS:     363140
cpu0_L2C LOAD         ACCESS:     124801 HIT:      69826 MISS:      54975
cpu0_L2C RFO          ACCESS:     145254 HIT:      11417 MISS:     133837
cpu0_L2C PREFETCH     ACCESS:     492064 HIT:     319911 MISS:     172153
cpu0_L2C WRITE        ACCESS:     164955 HIT:     164955 MISS:          0
cpu0_L2C TRANSLATION  ACCESS:       2766 HIT:        591 MISS:       2175
cpu0_L2C PREFETCH REQUESTED:     315401 ISSUED:     301464 USEFUL:      25695 USELESS:      24169
cpu0_L2C AVERAGE MISS LATENCY: 63.91 cycles
cpu0_STLB TOTAL        ACCESS:      23464 HIT:      19172 MISS:       4292
cpu0_STLB LOAD         ACCESS:      23464 HIT:      19172 MISS:       4292
cpu0_STLB RFO          ACCESS:          0 HIT:          0 MISS:          0
cpu0_STLB PREFETCH     ACCESS:          0 HIT:          0 MISS:          0
cpu0_STLB WRITE        ACCESS:          0 HIT:          0 MISS:          0
cpu0_STLB TRANSLATION  ACCESS:          0 HIT:          0 MISS:          0
cpu0_STLB PREFETCH REQUESTED:          0 ISSUED:          0 USEFUL:          0 USELESS:          0
cpu0_STLB AVERAGE MISS LATENCY: 109.7 cycles

DRAM Statistics

Channel 0 RQ ROW_BUFFER_HIT:      23782
  ROW_BUFFER_MISS:      23565
 AVG DBUS CONGESTED CYCLE: 3.907
WQ ROW_BUFFER_HIT: Channel 0 
  ROW_BUFFER_MISS:       1981
  FULL:      14702

Channel 1 RQ ROW_BUFFER_HIT:      22870
  ROW_BUFFER_MISS:      23050
 AVG DBUS CONGESTED CYCLE: 3.892
WQ ROW_BUFFER_HIT: Channel 1 
  ROW_BUFFER_MISS:       1917
  FULL:      13855
BERTI TO_L1: 1293615 TO_L2: 3260806 TO_L2_BC_MSHR: 1890547
BERTI AVG_LAT: 67.9331 NUM_TRACK_LATENCY: 155149 NUM_CANT_TRACK_LATENCY: 0
BERTI CROSS_PAGE 918994 NO_CROSS_PAGE: 3635427
BERTI FOUND_BERTI: 1344116 NO_FOUND_BERTI: 13645552
BERTI AVERAGE_ISSUED: 4.15095
CPU 0 L1I Entangling prefetcher final stats
IP accesses: 77e1 1df840 1419 / 319433
IP misses: 25bf 96fc0 133 / 37749
IP hits: 0 0 0 / 0
IP late: 20a3 828c0 51 / 18353
IP wrong: f801 3e0040 116 / 48218
miss rate: 0.118176
coverage: 0
coverage_late: 0.486186
accuracy: 0
accuracy_late: 0.275691
discarded: 0
evicts entangled j table: 0
evicts entangled k table: 6354
max bb size: 53
formats: 1597 0 5147 2591 1008 1845 0 
hist_lookups: 4044 4629 3614 3403 2998 2474 1977 1505 1180 917 691 490 323 186 93 0 3 6491 
hist_lookups_evict: 0.00856703 %
hist_lookups_shortlat: 18.5362 %
bb_found_hist: 0 80609 35105 16376 7863 3701 1891 1393 470 110 8 113 115 98 26 27 4 8 0 0 0 6 0 0 0 0 0 0 0 0 0 4 0 0 4 0 0 0 0 0 0 0 0 0 0 0 0 0 0 0 0 0 0 4 0 0 0 0 0 0 0 0 0 0 
bb_found_summary: 281295 147935 1.90148
entangled_found_hist: 0 43596 32626 59969 11952 1927 348 0 
entangled_found_summary: 348286 150418 2.31546
bb_ent_found_hist: 0 115444 53249 34742 14607 9504 4119 2551 2088 81 0 203 105 38 38 188 192 4 0 0 0 14 0 0 0 0 0 0 0 0 0 4 0 0 7 0 0 0 0 0 0 0 0 0 0 0 0 0 0 0 0 0 0 5 0 0 0 0 0 0 0 0 0 0 
bb_ent_found_summary: 503520 237183 2.12292
