WARNING: physical memory size is smaller than virtual memory size.

*** ChampSim Multicore Out-of-Order Simulator ***
Warmup Instructions: 30000000
Simulation Instructions: 100000000
Number of CPUs: 1
Page size: 4096

BTB:
Basic BTB sets: 1024 ways: 8
Indirect:
history lengths: 0 0 10 16 27 44 60 96 109 219 449 487 714 1313 2146 3881 
ITTAGE tables: 64768 bytes;Region table: 240 bytes;IUM: 384 bytes;Total Storage= 65392 bytes;
RAS:
RAS size: 64
[LLC] INSTR Demand IPV: 1 2 2 1 4 Prefetch IPV: 1 2 1 1 4
[LLC] DATA  Demand IPV: 1 1 1 2 4 Prefetch IPV: 1 1 2 2 4
Berti Prefetcher
CPU 0 Entangling prefetcher
Off-chip DRAM Size: 8 GiB Channels: 2 Width: 64-bit Data Race: 6400 MT/s
[DUEL] Epoch ended. INSTR misses = 36, DATA misses = 41. Winner = INSTR
[DUEL] Epoch ended. INSTR misses = 16, DATA misses = 16. Winner = INSTR
[DUEL] Epoch ended. INSTR misses = 1, DATA misses = 0. Winner = DATA
[DUEL] Epoch ended. INSTR misses = 0, DATA misses = 0. Winner = INSTR
[DUEL] Epoch ended. INSTR misses = 0, DATA misses = 0. Winner = INSTR
[DUEL] Epoch ended. INSTR misses = 0, DATA misses = 0. Winner = INSTR
[DUEL] Epoch ended. INSTR misses = 0, DATA misses = 1. Winner = INSTR
[DUEL] Epoch ended. INSTR misses = 0, DATA misses = 0. Winner = INSTR
[DUEL] Epoch ended. INSTR misses = 0, DATA misses = 0. Winner = INSTR
[DUEL] Epoch ended. INSTR misses = 16, DATA misses = 18. Winner = INSTR
[DUEL] Epoch ended. INSTR misses = 1, DATA misses = 0. Winner = DATA
[DUEL] Epoch ended. INSTR misses = 8, DATA misses = 1. Winner = DATA
[DUEL] Epoch ended. INSTR misses = 16, DATA misses = 16. Winner = INSTR
Heartbeat CPU 0 instructions: 10000000 cycles: 1715456 heartbeat IPC: 5.829 cumulative IPC: 5.829 (Simulation time: 00 hr 00 min 19 sec)
[DUEL] Epoch ended. INSTR misses = 2, DATA misses = 4. Winner = INSTR
[DUEL] Epoch ended. INSTR misses = 37, DATA misses = 40. Winner = INSTR
[DUEL] Epoch ended. INSTR misses = 96, DATA misses = 97. Winner = INSTR
Heartbeat CPU 0 instructions: 20000000 cycles: 3431671 heartbeat IPC: 5.827 cumulative IPC: 5.828 (Simulation time: 00 hr 00 min 37 sec)
[DUEL] Epoch ended. INSTR misses = 34, DATA misses = 33. Winner = DATA
*** Reached end of trace: (0, "../traces/secret_traces/crypto/crypto23.champsimtrace.xz")
[DUEL] Epoch ended. INSTR misses = 12, DATA misses = 22. Winner = INSTR
[DUEL] Epoch ended. INSTR misses = 9, DATA misses = 8. Winner = DATA
[DUEL] Epoch ended. INSTR misses = 3, DATA misses = 0. Winner = DATA
[DUEL] Epoch ended. INSTR misses = 1, DATA misses = 0. Winner = DATA
[DUEL] Epoch ended. INSTR misses = 0, DATA misses = 0. Winner = INSTR
[DUEL] Epoch ended. INSTR misses = 0, DATA misses = 0. Winner = INSTR
[DUEL] Epoch ended. INSTR misses = 0, DATA misses = 0. Winner = INSTR
[DUEL] Epoch ended. INSTR misses = 0, DATA misses = 0. Winner = INSTR
[DUEL] Epoch ended. INSTR misses = 0, DATA misses = 0. Winner = INSTR
[DUEL] Epoch ended. INSTR misses = 0, DATA misses = 0. Winner = INSTR
Heartbeat CPU 0 instructions: 30000007 cycles: 5127480 heartbeat IPC: 5.897 cumulative IPC: 5.851 (Simulation time: 00 hr 00 min 56 sec)
Warmup finished CPU 0 instructions: 30000007 cycles: 5127481 cumulative IPC: 5.851 (Simulation time: 00 hr 00 min 56 sec)
Warmup complete CPU 0 instructions: 30000007 cycles: 5127481 cumulative IPC: 5.851 (Simulation time: 00 hr 00 min 56 sec)
[DUEL] Epoch ended. INSTR misses = 0, DATA misses = 0. Winner = INSTR
[DUEL] Epoch ended. INSTR misses = 4, DATA misses = 1. Winner = DATA
[DUEL] Epoch ended. INSTR misses = 1, DATA misses = 7. Winner = INSTR
Heartbeat CPU 0 instructions: 40000001 cycles: 7199594 heartbeat IPC: 4.826 cumulative IPC: 4.826 (Simulation time: 00 hr 01 min 21 sec)
[DUEL] Epoch ended. INSTR misses = 3, DATA misses = 1. Winner = DATA
[DUEL] Epoch ended. INSTR misses = 1, DATA misses = 11. Winner = INSTR
[DUEL] Epoch ended. INSTR misses = 49, DATA misses = 62. Winner = INSTR
Heartbeat CPU 0 instructions: 50000000 cycles: 9612929 heartbeat IPC: 4.144 cumulative IPC: 4.459 (Simulation time: 00 hr 01 min 48 sec)
[DUEL] Epoch ended. INSTR misses = 17, DATA misses = 24. Winner = INSTR
*** Reached end of trace: (0, "../traces/secret_traces/crypto/crypto23.champsimtrace.xz")
[DUEL] Epoch ended. INSTR misses = 8, DATA misses = 24. Winner = INSTR
[DUEL] Epoch ended. INSTR misses = 9, DATA misses = 6. Winner = DATA
[DUEL] Epoch ended. INSTR misses = 2, DATA misses = 0. Winner = DATA
[DUEL] Epoch ended. INSTR misses = 1, DATA misses = 0. Winner = DATA
[DUEL] Epoch ended. INSTR misses = 0, DATA misses = 0. Winner = INSTR
[DUEL] Epoch ended. INSTR misses = 0, DATA misses = 0. Winner = INSTR
[DUEL] Epoch ended. INSTR misses = 0, DATA misses = 0. Winner = INSTR
[DUEL] Epoch ended. INSTR misses = 0, DATA misses = 0. Winner = INSTR
[DUEL] Epoch ended. INSTR misses = 0, DATA misses = 0. Winner = INSTR
[DUEL] Epoch ended. INSTR misses = 0, DATA misses = 0. Winner = INSTR
[DUEL] Epoch ended. INSTR misses = 0, DATA misses = 0. Winner = INSTR
[DUEL] Epoch ended. INSTR misses = 4, DATA misses = 0. Winner = DATA
Heartbeat CPU 0 instructions: 60000000 cycles: 11944821 heartbeat IPC: 4.288 cumulative IPC: 4.401 (Simulation time: 00 hr 02 min 15 sec)
[DUEL] Epoch ended. INSTR misses = 6, DATA misses = 4. Winner = DATA
Heartbeat CPU 0 instructions: 70000008 cycles: 13896071 heartbeat IPC: 5.125 cumulative IPC: 4.562 (Simulation time: 00 hr 02 min 39 sec)
[DUEL] Epoch ended. INSTR misses = 4, DATA misses = 3. Winner = DATA
[DUEL] Epoch ended. INSTR misses = 1, DATA misses = 7. Winner = INSTR
[DUEL] Epoch ended. INSTR misses = 47, DATA misses = 53. Winner = INSTR
Heartbeat CPU 0 instructions: 80000007 cycles: 16220188 heartbeat IPC: 4.303 cumulative IPC: 4.507 (Simulation time: 00 hr 03 min 05 sec)
[DUEL] Epoch ended. INSTR misses = 13, DATA misses = 19. Winner = INSTR
*** Reached end of trace: (0, "../traces/secret_traces/crypto/crypto23.champsimtrace.xz")
[DUEL] Epoch ended. INSTR misses = 11, DATA misses = 28. Winner = INSTR
[DUEL] Epoch ended. INSTR misses = 10, DATA misses = 5. Winner = DATA
[DUEL] Epoch ended. INSTR misses = 2, DATA misses = 0. Winner = DATA
[DUEL] Epoch ended. INSTR misses = 1, DATA misses = 0. Winner = DATA
[DUEL] Epoch ended. INSTR misses = 0, DATA misses = 0. Winner = INSTR
[DUEL] Epoch ended. INSTR misses = 0, DATA misses = 0. Winner = INSTR
[DUEL] Epoch ended. INSTR misses = 0, DATA misses = 0. Winner = INSTR
[DUEL] Epoch ended. INSTR misses = 0, DATA misses = 0. Winner = INSTR
[DUEL] Epoch ended. INSTR misses = 0, DATA misses = 0. Winner = INSTR
[DUEL] Epoch ended. INSTR misses = 3, DATA misses = 0. Winner = DATA
[DUEL] Epoch ended. INSTR misses = 0, DATA misses = 0. Winner = INSTR
[DUEL] Epoch ended. INSTR misses = 4, DATA misses = 0. Winner = DATA
[DUEL] Epoch ended. INSTR misses = 3, DATA misses = 4. Winner = INSTR
Heartbeat CPU 0 instructions: 90000006 cycles: 18547838 heartbeat IPC: 4.296 cumulative IPC: 4.471 (Simulation time: 00 hr 03 min 32 sec)
[DUEL] Epoch ended. INSTR misses = 4, DATA misses = 4. Winner = INSTR
Heartbeat CPU 0 instructions: 100000002 cycles: 20476119 heartbeat IPC: 5.186 cumulative IPC: 4.561 (Simulation time: 00 hr 03 min 56 sec)
[DUEL] Epoch ended. INSTR misses = 1, DATA misses = 8. Winner = INSTR
[DUEL] Epoch ended. INSTR misses = 48, DATA misses = 50. Winner = INSTR
[DUEL] Epoch ended. INSTR misses = 16, DATA misses = 20. Winner = INSTR
Heartbeat CPU 0 instructions: 110000001 cycles: 22756551 heartbeat IPC: 4.385 cumulative IPC: 4.538 (Simulation time: 00 hr 04 min 22 sec)
*** Reached end of trace: (0, "../traces/secret_traces/crypto/crypto23.champsimtrace.xz")
[DUEL] Epoch ended. INSTR misses = 9, DATA misses = 32. Winner = INSTR
[DUEL] Epoch ended. INSTR misses = 7, DATA misses = 6. Winner = DATA
[DUEL] Epoch ended. INSTR misses = 2, DATA misses = 0. Winner = DATA
[DUEL] Epoch ended. INSTR misses = 1, DATA misses = 0. Winner = DATA
[DUEL] Epoch ended. INSTR misses = 0, DATA misses = 0. Winner = INSTR
[DUEL] Epoch ended. INSTR misses = 0, DATA misses = 0. Winner = INSTR
[DUEL] Epoch ended. INSTR misses = 0, DATA misses = 0. Winner = INSTR
[DUEL] Epoch ended. INSTR misses = 0, DATA misses = 0. Winner = INSTR
[DUEL] Epoch ended. INSTR misses = 0, DATA misses = 0. Winner = INSTR
[DUEL] Epoch ended. INSTR misses = 4, DATA misses = 0. Winner = DATA
[DUEL] Epoch ended. INSTR misses = 0, DATA misses = 0. Winner = INSTR
[DUEL] Epoch ended. INSTR misses = 5, DATA misses = 0. Winner = DATA
[DUEL] Epoch ended. INSTR misses = 3, DATA misses = 2. Winner = DATA
Heartbeat CPU 0 instructions: 120000009 cycles: 25029687 heartbeat IPC: 4.399 cumulative IPC: 4.522 (Simulation time: 00 hr 04 min 49 sec)
[DUEL] Epoch ended. INSTR misses = 3, DATA misses = 3. Winner = INSTR
[DUEL] Epoch ended. INSTR misses = 0, DATA misses = 6. Winner = INSTR
[DUEL] Epoch ended. INSTR misses = 43, DATA misses = 47. Winner = INSTR
Heartbeat CPU 0 instructions: 130000003 cycles: 27315770 heartbeat IPC: 4.374 cumulative IPC: 4.507 (Simulation time: 00 hr 05 min 15 sec)
Simulation finished CPU 0 instructions: 100000007 cycles: 22188291 cumulative IPC: 4.507 (Simulation time: 00 hr 05 min 15 sec)
Simulation complete CPU 0 instructions: 100000007 cycles: 22188291 cumulative IPC: 4.507 (Simulation time: 00 hr 05 min 15 sec)

ChampSim completed all CPUs

=== Simulation ===
CPU 0 runs ../traces/secret_traces/crypto/crypto23.champsimtrace.xz
Region of Interest Statistics

CPU 0 cumulative IPC: 4.507 instructions: 100000007 cycles: 22188291
CPU 0 Branch Prediction Accuracy: 98.48% MPKI: 0.8672 Average ROB Occupancy at Mispredict: 32.86
Branch type MPKI
BRANCH_DIRECT_JUMP: 0.0513
BRANCH_INDIRECT: 0.448
BRANCH_CONDITIONAL: 0.118
BRANCH_DIRECT_CALL: 0.15
BRANCH_INDIRECT_CALL: 0.0189
BRANCH_RETURN: 0.082

LLC TOTAL        ACCESS:     428399 HIT:     314047 MISS:     114352
LLC LOAD         ACCESS:      45785 HIT:      23543 MISS:      22242
LLC RFO          ACCESS:     134093 HIT:     108873 MISS:      25220
LLC PREFETCH     ACCESS:     101350 HIT:      54850 MISS:      46500
LLC WRITE        ACCESS:     144792 HIT:     126188 MISS:      18604
LLC TRANSLATION  ACCESS:       2379 HIT:        593 MISS:       1786
LLC PREFETCH REQUESTED:          0 ISSUED:          0 USEFUL:          0 USELESS:          0
LLC AVERAGE MISS LATENCY: 155.3 cycles
cpu0_DTLB TOTAL        ACCESS:    9680567 HIT:    9638582 MISS:      41985
cpu0_DTLB LOAD         ACCESS:    9680567 HIT:    9638582 MISS:      41985
cpu0_DTLB RFO          ACCESS:          0 HIT:          0 MISS:          0
cpu0_DTLB PREFETCH     ACCESS:          0 HIT:          0 MISS:          0
cpu0_DTLB WRITE        ACCESS:          0 HIT:          0 MISS:          0
cpu0_DTLB TRANSLATION  ACCESS:          0 HIT:          0 MISS:          0
cpu0_DTLB PREFETCH REQUESTED:          0 ISSUED:          0 USEFUL:          0 USELESS:          0
cpu0_DTLB AVERAGE MISS LATENCY: 9.369 cycles
cpu0_ITLB TOTAL        ACCESS:     683777 HIT:     670044 MISS:      13733
cpu0_ITLB LOAD         ACCESS:     683777 HIT:     670044 MISS:      13733
cpu0_ITLB RFO          ACCESS:          0 HIT:          0 MISS:          0
cpu0_ITLB PREFETCH     ACCESS:          0 HIT:          0 MISS:          0
cpu0_ITLB WRITE        ACCESS:          0 HIT:          0 MISS:          0
cpu0_ITLB TRANSLATION  ACCESS:          0 HIT:          0 MISS:          0
cpu0_ITLB PREFETCH REQUESTED:          0 ISSUED:          0 USEFUL:          0 USELESS:          0
cpu0_ITLB AVERAGE MISS LATENCY: 18.49 cycles
cpu0_L1D TOTAL        ACCESS:   12860723 HIT:   12249536 MISS:     611187
cpu0_L1D LOAD         ACCESS:    8720935 HIT:    8561476 MISS:     159459
cpu0_L1D RFO          ACCESS:          0 HIT:          0 MISS:          0
cpu0_L1D PREFETCH     ACCESS:     549411 HIT:     457899 MISS:      91512
cpu0_L1D WRITE        ACCESS:    3585279 HIT:    3228197 MISS:     357082
cpu0_L1D TRANSLATION  ACCESS:       5098 HIT:       1964 MISS:       3134
cpu0_L1D PREFETCH REQUESTED:    3902456 ISSUED:     549411 USEFUL:      10519 USELESS:       1052
cpu0_L1D AVERAGE MISS LATENCY: 27.48 cycles
cpu0_L1I TOTAL        ACCESS:     996416 HIT:     833725 MISS:     162691
cpu0_L1I LOAD         ACCESS:     325994 HIT:     288587 MISS:      37407
cpu0_L1I RFO          ACCESS:          0 HIT:          0 MISS:          0
cpu0_L1I PREFETCH     ACCESS:     670422 HIT:     545138 MISS:     125284
cpu0_L1I WRITE        ACCESS:          0 HIT:          0 MISS:          0
cpu0_L1I TRANSLATION  ACCESS:          0 HIT:          0 MISS:          0
cpu0_L1I PREFETCH REQUESTED:    1083277 ISSUED:     670422 USEFUL:      70414 USELESS:      49517
cpu0_L1I AVERAGE MISS LATENCY: 30.18 cycles
cpu0_L2C TOTAL        ACCESS:     945741 HIT:     574818 MISS:     370923
cpu0_L2C LOAD         ACCESS:     127604 HIT:      70307 MISS:      57297
cpu0_L2C RFO          ACCESS:     146695 HIT:      12557 MISS:     134138
cpu0_L2C PREFETCH     ACCESS:     501937 HIT:     324828 MISS:     177109
cpu0_L2C WRITE        ACCESS:     166444 HIT:     166444 MISS:          0
cpu0_L2C TRANSLATION  ACCESS:       3061 HIT:        682 MISS:       2379
cpu0_L2C PREFETCH REQUESTED:     320986 ISSUED:     308555 USEFUL:      25484 USELESS:      25095
cpu0_L2C AVERAGE MISS LATENCY: 61.02 cycles
cpu0_STLB TOTAL        ACCESS:      24038 HIT:      19341 MISS:       4697
cpu0_STLB LOAD         ACCESS:      24038 HIT:      19341 MISS:       4697
cpu0_STLB RFO          ACCESS:          0 HIT:          0 MISS:          0
cpu0_STLB PREFETCH     ACCESS:          0 HIT:          0 MISS:          0
cpu0_STLB WRITE        ACCESS:          0 HIT:          0 MISS:          0
cpu0_STLB TRANSLATION  ACCESS:          0 HIT:          0 MISS:          0
cpu0_STLB PREFETCH REQUESTED:          0 ISSUED:          0 USEFUL:          0 USELESS:          0
cpu0_STLB AVERAGE MISS LATENCY: 115.3 cycles

DRAM Statistics

Channel 0 RQ ROW_BUFFER_HIT:      24380
  ROW_BUFFER_MISS:      24056
 AVG DBUS CONGESTED CYCLE: 3.894
WQ ROW_BUFFER_HIT: Channel 0 
  ROW_BUFFER_MISS:       1684
  FULL:      12121

Channel 1 RQ ROW_BUFFER_HIT:      23581
  ROW_BUFFER_MISS:      23709
 AVG DBUS CONGESTED CYCLE: 3.877
WQ ROW_BUFFER_HIT: Channel 1 
  ROW_BUFFER_MISS:       1568
  FULL:      11788
BERTI TO_L1: 1316366 TO_L2: 3186718 TO_L2_BC_MSHR: 1814878
BERTI AVG_LAT: 66.2157 NUM_TRACK_LATENCY: 155936 NUM_CANT_TRACK_LATENCY: 0
BERTI CROSS_PAGE 940276 NO_CROSS_PAGE: 3562808
BERTI FOUND_BERTI: 2102313 NO_FOUND_BERTI: 9811670
BERTI AVERAGE_ISSUED: 3.53914
CPU 0 L1I Entangling prefetcher final stats
IP accesses: 6f71 1bdc40 1426 / 326940
IP misses: 5bf1 16fc40 158 / 38353
IP hits: 0 0 0 / 0
IP late: 6e9e 1ba780 53 / 18633
IP wrong: f7ec 3dfb00 108 / 49280
miss rate: 0.117309
coverage: 0
coverage_late: 0.48583
accuracy: 0
accuracy_late: 0.274366
discarded: 0
evicts entangled j table: 0
evicts entangled k table: 6212
max bb size: 53
formats: 1521 0 5213 2537 988 1913 0 
hist_lookups: 4051 4755 3885 3433 3055 2564 1940 1440 1087 949 677 451 287 139 84 0 6 6494 
hist_lookups_evict: 0.0169987 %
hist_lookups_shortlat: 18.3982 %
bb_found_hist: 0 84517 35489 17336 7995 3741 1860 1562 489 77 18 114 115 98 25 0 4 0 0 0 0 7 0 0 0 0 0 0 0 0 0 4 0 0 4 0 0 0 0 0 0 0 0 0 0 0 0 0 0 0 0 0 0 4 0 0 0 0 0 0 0 0 0 0 
bb_found_summary: 290008 153459 1.88981
entangled_found_hist: 0 45850 32211 61657 11209 2124 676 0 
entangled_found_summary: 354755 153727 2.3077
bb_ent_found_hist: 0 117269 56421 35600 16347 8721 4022 2373 1808 36 24 154 161 54 16 0 191 0 0 0 0 15 0 0 0 0 0 0 0 0 0 4 0 0 4 0 0 0 0 0 0 0 0 0 0 0 0 0 0 0 0 0 0 8 0 0 0 0 0 0 0 0 0 0 
bb_ent_found_summary: 510282 243228 2.09796
