WARNING: physical memory size is smaller than virtual memory size.

*** ChampSim Multicore Out-of-Order Simulator ***
Warmup Instructions: 30000000
Simulation Instructions: 100000000
Number of CPUs: 1
Page size: 4096

BTB:
Basic BTB sets: 1024 ways: 8
Indirect:
history lengths: 0 0 10 16 27 44 60 96 109 219 449 487 714 1313 2146 3881 
ITTAGE tables: 64768 bytes;Region table: 240 bytes;IUM: 384 bytes;Total Storage= 65392 bytes;
RAS:
RAS size: 64
[LLC] INSTR Demand IPV: 1 2 2 1 4 Prefetch IPV: 1 2 1 1 4
[LLC] DATA  Demand IPV: 1 1 1 2 4 Prefetch IPV: 1 1 2 2 4
Berti Prefetcher
CPU 0 Entangling prefetcher
Off-chip DRAM Size: 8 GiB Channels: 2 Width: 64-bit Data Race: 6400 MT/s
[DUEL] Epoch ended. INSTR misses = 41, DATA misses = 50. Winner = INSTR
[DUEL] Epoch ended. INSTR misses = 24, DATA misses = 16. Winner = DATA
[DUEL] Epoch ended. INSTR misses = 0, DATA misses = 0. Winner = INSTR
[DUEL] Epoch ended. INSTR misses = 0, DATA misses = 0. Winner = INSTR
[DUEL] Epoch ended. INSTR misses = 0, DATA misses = 0. Winner = INSTR
[DUEL] Epoch ended. INSTR misses = 0, DATA misses = 0. Winner = INSTR
[DUEL] Epoch ended. INSTR misses = 16, DATA misses = 16. Winner = INSTR
[DUEL] Epoch ended. INSTR misses = 0, DATA misses = 0. Winner = INSTR
[DUEL] Epoch ended. INSTR misses = 4, DATA misses = 0. Winner = DATA
[DUEL] Epoch ended. INSTR misses = 8, DATA misses = 4. Winner = DATA
[DUEL] Epoch ended. INSTR misses = 4, DATA misses = 5. Winner = INSTR
[DUEL] Epoch ended. INSTR misses = 0, DATA misses = 0. Winner = INSTR
[DUEL] Epoch ended. INSTR misses = 1, DATA misses = 0. Winner = DATA
Heartbeat CPU 0 instructions: 10000011 cycles: 1715432 heartbeat IPC: 5.829 cumulative IPC: 5.829 (Simulation time: 00 hr 00 min 21 sec)
[DUEL] Epoch ended. INSTR misses = 1, DATA misses = 11. Winner = INSTR
[DUEL] Epoch ended. INSTR misses = 18, DATA misses = 20. Winner = INSTR
[DUEL] Epoch ended. INSTR misses = 97, DATA misses = 122. Winner = INSTR
Heartbeat CPU 0 instructions: 20000007 cycles: 3431851 heartbeat IPC: 5.826 cumulative IPC: 5.828 (Simulation time: 00 hr 00 min 43 sec)
[DUEL] Epoch ended. INSTR misses = 40, DATA misses = 33. Winner = DATA
Heartbeat CPU 0 instructions: 30000007 cycles: 5098607 heartbeat IPC: 6 cumulative IPC: 5.884 (Simulation time: 00 hr 01 min 04 sec)
Warmup finished CPU 0 instructions: 30000007 cycles: 5098608 cumulative IPC: 5.884 (Simulation time: 00 hr 01 min 04 sec)
Warmup complete CPU 0 instructions: 30000007 cycles: 5098608 cumulative IPC: 5.884 (Simulation time: 00 hr 01 min 04 sec)
[DUEL] Epoch ended. INSTR misses = 0, DATA misses = 2. Winner = INSTR
Heartbeat CPU 0 instructions: 40000000 cycles: 6766457 heartbeat IPC: 5.996 cumulative IPC: 5.996 (Simulation time: 00 hr 01 min 28 sec)
Heartbeat CPU 0 instructions: 50000005 cycles: 8433120 heartbeat IPC: 6 cumulative IPC: 5.998 (Simulation time: 00 hr 01 min 52 sec)
[DUEL] Epoch ended. INSTR misses = 2, DATA misses = 0. Winner = DATA
Heartbeat CPU 0 instructions: 60000003 cycles: 10101276 heartbeat IPC: 5.995 cumulative IPC: 5.997 (Simulation time: 00 hr 02 min 17 sec)
[DUEL] Epoch ended. INSTR misses = 0, DATA misses = 0. Winner = INSTR
[DUEL] Epoch ended. INSTR misses = 0, DATA misses = 0. Winner = INSTR
*** Reached end of trace: (0, "../traces/secret_traces/crypto/crypto37.champsimtrace.xz")
[DUEL] Epoch ended. INSTR misses = 20, DATA misses = 21. Winner = INSTR
[DUEL] Epoch ended. INSTR misses = 12, DATA misses = 13. Winner = INSTR
[DUEL] Epoch ended. INSTR misses = 1, DATA misses = 0. Winner = DATA
[DUEL] Epoch ended. INSTR misses = 0, DATA misses = 0. Winner = INSTR
[DUEL] Epoch ended. INSTR misses = 0, DATA misses = 0. Winner = INSTR
[DUEL] Epoch ended. INSTR misses = 0, DATA misses = 0. Winner = INSTR
[DUEL] Epoch ended. INSTR misses = 0, DATA misses = 0. Winner = INSTR
[DUEL] Epoch ended. INSTR misses = 0, DATA misses = 0. Winner = INSTR
[DUEL] Epoch ended. INSTR misses = 0, DATA misses = 0. Winner = INSTR
[DUEL] Epoch ended. INSTR misses = 0, DATA misses = 3. Winner = INSTR
[DUEL] Epoch ended. INSTR misses = 4, DATA misses = 1. Winner = DATA
[DUEL] Epoch ended. INSTR misses = 2, DATA misses = 3. Winner = INSTR
Heartbeat CPU 0 instructions: 70000004 cycles: 12435350 heartbeat IPC: 4.284 cumulative IPC: 5.452 (Simulation time: 00 hr 02 min 44 sec)
[DUEL] Epoch ended. INSTR misses = 1, DATA misses = 0. Winner = DATA
Heartbeat CPU 0 instructions: 80000000 cycles: 14166777 heartbeat IPC: 5.776 cumulative IPC: 5.514 (Simulation time: 00 hr 03 min 09 sec)
[DUEL] Epoch ended. INSTR misses = 2, DATA misses = 5. Winner = INSTR
[DUEL] Epoch ended. INSTR misses = 2, DATA misses = 8. Winner = INSTR
[DUEL] Epoch ended. INSTR misses = 27, DATA misses = 62. Winner = INSTR
Heartbeat CPU 0 instructions: 90000001 cycles: 16342576 heartbeat IPC: 4.596 cumulative IPC: 5.336 (Simulation time: 00 hr 03 min 36 sec)
[DUEL] Epoch ended. INSTR misses = 34, DATA misses = 33. Winner = DATA
Heartbeat CPU 0 instructions: 100000000 cycles: 18022205 heartbeat IPC: 5.954 cumulative IPC: 5.416 (Simulation time: 00 hr 04 min 00 sec)
[DUEL] Epoch ended. INSTR misses = 0, DATA misses = 1. Winner = INSTR
Heartbeat CPU 0 instructions: 110000000 cycles: 19689876 heartbeat IPC: 5.996 cumulative IPC: 5.483 (Simulation time: 00 hr 04 min 24 sec)
[DUEL] Epoch ended. INSTR misses = 0, DATA misses = 0. Winner = INSTR
Heartbeat CPU 0 instructions: 120000001 cycles: 21357815 heartbeat IPC: 5.995 cumulative IPC: 5.535 (Simulation time: 00 hr 04 min 49 sec)
[DUEL] Epoch ended. INSTR misses = 0, DATA misses = 0. Winner = INSTR
[DUEL] Epoch ended. INSTR misses = 0, DATA misses = 0. Winner = INSTR
*** Reached end of trace: (0, "../traces/secret_traces/crypto/crypto37.champsimtrace.xz")
[DUEL] Epoch ended. INSTR misses = 16, DATA misses = 18. Winner = INSTR
[DUEL] Epoch ended. INSTR misses = 2, DATA misses = 5. Winner = INSTR
[DUEL] Epoch ended. INSTR misses = 1, DATA misses = 0. Winner = DATA
[DUEL] Epoch ended. INSTR misses = 0, DATA misses = 0. Winner = INSTR
[DUEL] Epoch ended. INSTR misses = 0, DATA misses = 0. Winner = INSTR
Heartbeat CPU 0 instructions: 130000006 cycles: 23345283 heartbeat IPC: 5.032 cumulative IPC: 5.48 (Simulation time: 00 hr 05 min 14 sec)
Simulation finished CPU 0 instructions: 100000006 cycles: 18246677 cumulative IPC: 5.48 (Simulation time: 00 hr 05 min 14 sec)
Simulation complete CPU 0 instructions: 100000006 cycles: 18246677 cumulative IPC: 5.48 (Simulation time: 00 hr 05 min 14 sec)

ChampSim completed all CPUs

=== Simulation ===
CPU 0 runs ../traces/secret_traces/crypto/crypto37.champsimtrace.xz
Region of Interest Statistics

CPU 0 cumulative IPC: 5.48 instructions: 100000006 cycles: 18246677
CPU 0 Branch Prediction Accuracy: 99.71% MPKI: 0.4045 Average ROB Occupancy at Mispredict: 28.23
Branch type MPKI
BRANCH_DIRECT_JUMP: 0.0209
BRANCH_INDIRECT: 0.193
BRANCH_CONDITIONAL: 0.0902
BRANCH_DIRECT_CALL: 0.0598
BRANCH_INDIRECT_CALL: 0.00745
BRANCH_RETURN: 0.0328

LLC TOTAL        ACCESS:     142591 HIT:     100050 MISS:      42541
LLC LOAD         ACCESS:      15451 HIT:       7593 MISS:       7858
LLC RFO          ACCESS:      41619 HIT:      32941 MISS:       8678
LLC PREFETCH     ACCESS:      35060 HIT:      17967 MISS:      17093
LLC WRITE        ACCESS:      49509 HIT:      41419 MISS:       8090
LLC TRANSLATION  ACCESS:        952 HIT:        130 MISS:        822
LLC PREFETCH REQUESTED:          0 ISSUED:          0 USEFUL:          0 USELESS:          0
LLC AVERAGE MISS LATENCY: 137.4 cycles
cpu0_DTLB TOTAL        ACCESS:   13335480 HIT:   13321793 MISS:      13687
cpu0_DTLB LOAD         ACCESS:   13335480 HIT:   13321793 MISS:      13687
cpu0_DTLB RFO          ACCESS:          0 HIT:          0 MISS:          0
cpu0_DTLB PREFETCH     ACCESS:          0 HIT:          0 MISS:          0
cpu0_DTLB WRITE        ACCESS:          0 HIT:          0 MISS:          0
cpu0_DTLB TRANSLATION  ACCESS:          0 HIT:          0 MISS:          0
cpu0_DTLB PREFETCH REQUESTED:          0 ISSUED:          0 USEFUL:          0 USELESS:          0
cpu0_DTLB AVERAGE MISS LATENCY: 12 cycles
cpu0_ITLB TOTAL        ACCESS:     270139 HIT:     264288 MISS:       5851
cpu0_ITLB LOAD         ACCESS:     270139 HIT:     264288 MISS:       5851
cpu0_ITLB RFO          ACCESS:          0 HIT:          0 MISS:          0
cpu0_ITLB PREFETCH     ACCESS:          0 HIT:          0 MISS:          0
cpu0_ITLB WRITE        ACCESS:          0 HIT:          0 MISS:          0
cpu0_ITLB TRANSLATION  ACCESS:          0 HIT:          0 MISS:          0
cpu0_ITLB PREFETCH REQUESTED:          0 ISSUED:          0 USEFUL:          0 USELESS:          0
cpu0_ITLB AVERAGE MISS LATENCY: 22.23 cycles
cpu0_L1D TOTAL        ACCESS:   21631965 HIT:   21445409 MISS:     186556
cpu0_L1D LOAD         ACCESS:   13936043 HIT:   13886129 MISS:      49914
cpu0_L1D RFO          ACCESS:          0 HIT:          0 MISS:          0
cpu0_L1D PREFETCH     ACCESS:     149961 HIT:     122576 MISS:      27385
cpu0_L1D WRITE        ACCESS:    7544164 HIT:    7436113 MISS:     108051
cpu0_L1D TRANSLATION  ACCESS:       1797 HIT:        591 MISS:       1206
cpu0_L1D PREFETCH REQUESTED:    1025008 ISSUED:     149971 USEFUL:       3414 USELESS:        368
cpu0_L1D AVERAGE MISS LATENCY: 27.34 cycles
cpu0_L1I TOTAL        ACCESS:     392290 HIT:     323048 MISS:      69242
cpu0_L1I LOAD         ACCESS:     130466 HIT:     112406 MISS:      18060
cpu0_L1I RFO          ACCESS:          0 HIT:          0 MISS:          0
cpu0_L1I PREFETCH     ACCESS:     261824 HIT:     210642 MISS:      51182
cpu0_L1I WRITE        ACCESS:          0 HIT:          0 MISS:          0
cpu0_L1I TRANSLATION  ACCESS:          0 HIT:          0 MISS:          0
cpu0_L1I PREFETCH REQUESTED:     404884 ISSUED:     261824 USEFUL:      26777 USELESS:      21656
cpu0_L1I AVERAGE MISS LATENCY: 28.22 cycles
cpu0_L2C TOTAL        ACCESS:     326459 HIT:     204223 MISS:     122236
cpu0_L2C LOAD         ACCESS:      45246 HIT:      26378 MISS:      18868
cpu0_L2C RFO          ACCESS:      45210 HIT:       3577 MISS:      41633
cpu0_L2C PREFETCH     ACCESS:     183093 HIT:     122310 MISS:      60783
cpu0_L2C WRITE        ACCESS:      51732 HIT:      51732 MISS:          0
cpu0_L2C TRANSLATION  ACCESS:       1178 HIT:        226 MISS:        952
cpu0_L2C PREFETCH REQUESTED:     115693 ISSUED:     112646 USEFUL:       8802 USELESS:       7828
cpu0_L2C AVERAGE MISS LATENCY: 61.29 cycles
cpu0_STLB TOTAL        ACCESS:       9049 HIT:       7409 MISS:       1640
cpu0_STLB LOAD         ACCESS:       9049 HIT:       7409 MISS:       1640
cpu0_STLB RFO          ACCESS:          0 HIT:          0 MISS:          0
cpu0_STLB PREFETCH     ACCESS:          0 HIT:          0 MISS:          0
cpu0_STLB WRITE        ACCESS:          0 HIT:          0 MISS:          0
cpu0_STLB TRANSLATION  ACCESS:          0 HIT:          0 MISS:          0
cpu0_STLB PREFETCH REQUESTED:          0 ISSUED:          0 USEFUL:          0 USELESS:          0
cpu0_STLB AVERAGE MISS LATENCY: 154.3 cycles

DRAM Statistics

Channel 0 RQ ROW_BUFFER_HIT:       8307
  ROW_BUFFER_MISS:       9212
 AVG DBUS CONGESTED CYCLE: 3.874
WQ ROW_BUFFER_HIT: Channel 0 
  ROW_BUFFER_MISS:        736
  FULL:       4056

Channel 1 RQ ROW_BUFFER_HIT:       7948
  ROW_BUFFER_MISS:       8976
 AVG DBUS CONGESTED CYCLE: 3.857
WQ ROW_BUFFER_HIT: Channel 1 
  ROW_BUFFER_MISS:        708
  FULL:       3988
BERTI TO_L1: 574829 TO_L2: 947683 TO_L2_BC_MSHR: 459437
BERTI AVG_LAT: 50.4357 NUM_TRACK_LATENCY: 67980 NUM_CANT_TRACK_LATENCY: 0
BERTI CROSS_PAGE 319440 NO_CROSS_PAGE: 1203072
BERTI FOUND_BERTI: 319572 NO_FOUND_BERTI: 18099991
BERTI AVERAGE_ISSUED: 4.28701
CPU 0 L1I Entangling prefetcher final stats
IP accesses: 6f71 1bdc40 889 / 130705
IP misses: 6e9e 1ba780 106 / 18299
IP hits: 0 0 0 / 0
IP late: 6e9e 1ba780 87 / 8692
IP wrong: 251e 94780 113 / 21559
miss rate: 0.140003
coverage: 0
coverage_late: 0.474999
accuracy: 0
accuracy_late: 0.28733
discarded: 0
evicts entangled j table: 0
evicts entangled k table: 2815
max bb size: 53
formats: 717 0 2571 1314 591 1284 0 
hist_lookups: 2630 2508 1810 1606 1385 1217 910 655 450 475 378 201 118 69 34 0 3 3510 
hist_lookups_evict: 0.0167048 %
hist_lookups_shortlat: 19.5446 %
bb_found_hist: 0 31911 12854 7228 3107 1591 655 468 174 49 0 51 32 20 11 13 1 0 0 0 1 3 0 0 0 0 0 0 0 0 0 1 1 0 1 0 0 0 0 0 0 0 0 0 0 0 0 0 0 0 0 0 0 0 0 0 0 0 0 0 0 0 0 0 
bb_found_summary: 110475 58172 1.89911
entangled_found_hist: 0 17273 12510 23306 3974 1016 187 0 
entangled_found_summary: 134309 58266 2.30511
bb_ent_found_hist: 0 44898 20148 14249 5113 3386 1209 486 773 39 0 151 29 8 11 52 131 0 0 0 1 27 0 0 0 0 0 0 0 0 0 1 1 0 1 0 0 0 0 0 0 0 0 0 0 0 0 0 0 0 0 0 0 0 0 0 0 0 0 0 0 0 0 0 
bb_ent_found_summary: 188341 90714 2.07621
