WARNING: physical memory size is smaller than virtual memory size.

*** ChampSim Multicore Out-of-Order Simulator ***
Warmup Instructions: 30000000
Simulation Instructions: 100000000
Number of CPUs: 1
Page size: 4096

BTB:
Basic BTB sets: 1024 ways: 8
Indirect:
history lengths: 0 0 10 16 27 44 60 96 109 219 449 487 714 1313 2146 3881 
ITTAGE tables: 64768 bytes;Region table: 240 bytes;IUM: 384 bytes;Total Storage= 65392 bytes;
RAS:
RAS size: 64
[LLC] INSTR Demand IPV: 1 2 2 1 4 Prefetch IPV: 1 2 1 1 4
[LLC] DATA  Demand IPV: 1 1 1 2 4 Prefetch IPV: 1 1 2 2 4
Berti Prefetcher
CPU 0 Entangling prefetcher
Off-chip DRAM Size: 8 GiB Channels: 2 Width: 64-bit Data Race: 6400 MT/s
[DUEL] Epoch ended. INSTR misses = 36, DATA misses = 41. Winner = INSTR
[DUEL] Epoch ended. INSTR misses = 16, DATA misses = 16. Winner = INSTR
[DUEL] Epoch ended. INSTR misses = 1, DATA misses = 0. Winner = DATA
[DUEL] Epoch ended. INSTR misses = 0, DATA misses = 0. Winner = INSTR
[DUEL] Epoch ended. INSTR misses = 0, DATA misses = 0. Winner = INSTR
[DUEL] Epoch ended. INSTR misses = 0, DATA misses = 0. Winner = INSTR
[DUEL] Epoch ended. INSTR misses = 0, DATA misses = 1. Winner = INSTR
[DUEL] Epoch ended. INSTR misses = 0, DATA misses = 0. Winner = INSTR
[DUEL] Epoch ended. INSTR misses = 0, DATA misses = 0. Winner = INSTR
[DUEL] Epoch ended. INSTR misses = 16, DATA misses = 18. Winner = INSTR
[DUEL] Epoch ended. INSTR misses = 1, DATA misses = 0. Winner = DATA
[DUEL] Epoch ended. INSTR misses = 8, DATA misses = 1. Winner = DATA
[DUEL] Epoch ended. INSTR misses = 16, DATA misses = 16. Winner = INSTR
Heartbeat CPU 0 instructions: 10000004 cycles: 1715450 heartbeat IPC: 5.829 cumulative IPC: 5.829 (Simulation time: 00 hr 00 min 21 sec)
[DUEL] Epoch ended. INSTR misses = 13, DATA misses = 21. Winner = INSTR
[DUEL] Epoch ended. INSTR misses = 21, DATA misses = 24. Winner = INSTR
[DUEL] Epoch ended. INSTR misses = 100, DATA misses = 106. Winner = INSTR
[DUEL] Epoch ended. INSTR misses = 28, DATA misses = 27. Winner = DATA
Heartbeat CPU 0 instructions: 20000005 cycles: 3431540 heartbeat IPC: 5.827 cumulative IPC: 5.828 (Simulation time: 00 hr 00 min 42 sec)
[DUEL] Epoch ended. INSTR misses = 0, DATA misses = 0. Winner = INSTR
*** Reached end of trace: (0, "../traces/secret_traces/crypto/crypto73.champsimtrace.xz")
[DUEL] Epoch ended. INSTR misses = 6, DATA misses = 11. Winner = INSTR
[DUEL] Epoch ended. INSTR misses = 16, DATA misses = 8. Winner = DATA
[DUEL] Epoch ended. INSTR misses = 3, DATA misses = 0. Winner = DATA
[DUEL] Epoch ended. INSTR misses = 1, DATA misses = 0. Winner = DATA
[DUEL] Epoch ended. INSTR misses = 0, DATA misses = 0. Winner = INSTR
[DUEL] Epoch ended. INSTR misses = 0, DATA misses = 0. Winner = INSTR
[DUEL] Epoch ended. INSTR misses = 0, DATA misses = 0. Winner = INSTR
[DUEL] Epoch ended. INSTR misses = 2, DATA misses = 1. Winner = DATA
[DUEL] Epoch ended. INSTR misses = 0, DATA misses = 0. Winner = INSTR
[DUEL] Epoch ended. INSTR misses = 0, DATA misses = 0. Winner = INSTR
[DUEL] Epoch ended. INSTR misses = 0, DATA misses = 0. Winner = INSTR
[DUEL] Epoch ended. INSTR misses = 2, DATA misses = 0. Winner = DATA
Heartbeat CPU 0 instructions: 30000002 cycles: 5149758 heartbeat IPC: 5.82 cumulative IPC: 5.826 (Simulation time: 00 hr 01 min 04 sec)
Warmup finished CPU 0 instructions: 30000002 cycles: 5149759 cumulative IPC: 5.826 (Simulation time: 00 hr 01 min 04 sec)
Warmup complete CPU 0 instructions: 30000002 cycles: 5149759 cumulative IPC: 5.826 (Simulation time: 00 hr 01 min 04 sec)
[DUEL] Epoch ended. INSTR misses = 4, DATA misses = 0. Winner = DATA
Heartbeat CPU 0 instructions: 40000010 cycles: 7246158 heartbeat IPC: 4.77 cumulative IPC: 4.77 (Simulation time: 00 hr 01 min 31 sec)
[DUEL] Epoch ended. INSTR misses = 10, DATA misses = 17. Winner = INSTR
[DUEL] Epoch ended. INSTR misses = 6, DATA misses = 11. Winner = INSTR
[DUEL] Epoch ended. INSTR misses = 55, DATA misses = 59. Winner = INSTR
[DUEL] Epoch ended. INSTR misses = 15, DATA misses = 15. Winner = INSTR
Heartbeat CPU 0 instructions: 50000002 cycles: 9755781 heartbeat IPC: 3.985 cumulative IPC: 4.342 (Simulation time: 00 hr 02 min 01 sec)
[DUEL] Epoch ended. INSTR misses = 0, DATA misses = 0. Winner = INSTR
*** Reached end of trace: (0, "../traces/secret_traces/crypto/crypto73.champsimtrace.xz")
[DUEL] Epoch ended. INSTR misses = 10, DATA misses = 10. Winner = INSTR
[DUEL] Epoch ended. INSTR misses = 6, DATA misses = 3. Winner = DATA
[DUEL] Epoch ended. INSTR misses = 2, DATA misses = 0. Winner = DATA
[DUEL] Epoch ended. INSTR misses = 1, DATA misses = 0. Winner = DATA
[DUEL] Epoch ended. INSTR misses = 0, DATA misses = 0. Winner = INSTR
[DUEL] Epoch ended. INSTR misses = 0, DATA misses = 0. Winner = INSTR
[DUEL] Epoch ended. INSTR misses = 0, DATA misses = 0. Winner = INSTR
[DUEL] Epoch ended. INSTR misses = 0, DATA misses = 0. Winner = INSTR
[DUEL] Epoch ended. INSTR misses = 0, DATA misses = 0. Winner = INSTR
[DUEL] Epoch ended. INSTR misses = 1, DATA misses = 0. Winner = DATA
[DUEL] Epoch ended. INSTR misses = 0, DATA misses = 0. Winner = INSTR
[DUEL] Epoch ended. INSTR misses = 5, DATA misses = 0. Winner = DATA
[DUEL] Epoch ended. INSTR misses = 4, DATA misses = 0. Winner = DATA
Heartbeat CPU 0 instructions: 60000000 cycles: 12254680 heartbeat IPC: 4.002 cumulative IPC: 4.222 (Simulation time: 00 hr 02 min 31 sec)
[DUEL] Epoch ended. INSTR misses = 12, DATA misses = 17. Winner = INSTR
[DUEL] Epoch ended. INSTR misses = 3, DATA misses = 10. Winner = INSTR
Heartbeat CPU 0 instructions: 70000011 cycles: 14479847 heartbeat IPC: 4.494 cumulative IPC: 4.287 (Simulation time: 00 hr 03 min 00 sec)
[DUEL] Epoch ended. INSTR misses = 57, DATA misses = 51. Winner = DATA
[DUEL] Epoch ended. INSTR misses = 16, DATA misses = 10. Winner = DATA
[DUEL] Epoch ended. INSTR misses = 0, DATA misses = 0. Winner = INSTR
*** Reached end of trace: (0, "../traces/secret_traces/crypto/crypto73.champsimtrace.xz")
[DUEL] Epoch ended. INSTR misses = 12, DATA misses = 8. Winner = DATA
[DUEL] Epoch ended. INSTR misses = 6, DATA misses = 2. Winner = DATA
[DUEL] Epoch ended. INSTR misses = 2, DATA misses = 0. Winner = DATA
[DUEL] Epoch ended. INSTR misses = 1, DATA misses = 0. Winner = DATA
[DUEL] Epoch ended. INSTR misses = 0, DATA misses = 0. Winner = INSTR
[DUEL] Epoch ended. INSTR misses = 0, DATA misses = 0. Winner = INSTR
Heartbeat CPU 0 instructions: 80000000 cycles: 17074713 heartbeat IPC: 3.854 cumulative IPC: 4.193 (Simulation time: 00 hr 03 min 30 sec)
[DUEL] Epoch ended. INSTR misses = 0, DATA misses = 0. Winner = INSTR
[DUEL] Epoch ended. INSTR misses = 0, DATA misses = 0. Winner = INSTR
[DUEL] Epoch ended. INSTR misses = 0, DATA misses = 0. Winner = INSTR
[DUEL] Epoch ended. INSTR misses = 2, DATA misses = 0. Winner = DATA
[DUEL] Epoch ended. INSTR misses = 0, DATA misses = 0. Winner = INSTR
[DUEL] Epoch ended. INSTR misses = 3, DATA misses = 0. Winner = DATA
[DUEL] Epoch ended. INSTR misses = 3, DATA misses = 0. Winner = DATA
Heartbeat CPU 0 instructions: 90000000 cycles: 19260904 heartbeat IPC: 4.574 cumulative IPC: 4.252 (Simulation time: 00 hr 03 min 59 sec)
[DUEL] Epoch ended. INSTR misses = 11, DATA misses = 15. Winner = INSTR
[DUEL] Epoch ended. INSTR misses = 3, DATA misses = 8. Winner = INSTR
[DUEL] Epoch ended. INSTR misses = 48, DATA misses = 46. Winner = DATA
[DUEL] Epoch ended. INSTR misses = 12, DATA misses = 11. Winner = DATA
Heartbeat CPU 0 instructions: 100000008 cycles: 21764184 heartbeat IPC: 3.995 cumulative IPC: 4.213 (Simulation time: 00 hr 04 min 29 sec)
[DUEL] Epoch ended. INSTR misses = 0, DATA misses = 0. Winner = INSTR
*** Reached end of trace: (0, "../traces/secret_traces/crypto/crypto73.champsimtrace.xz")
[DUEL] Epoch ended. INSTR misses = 13, DATA misses = 8. Winner = DATA
[DUEL] Epoch ended. INSTR misses = 6, DATA misses = 3. Winner = DATA
[DUEL] Epoch ended. INSTR misses = 1, DATA misses = 0. Winner = DATA
[DUEL] Epoch ended. INSTR misses = 1, DATA misses = 0. Winner = DATA
[DUEL] Epoch ended. INSTR misses = 0, DATA misses = 0. Winner = INSTR
[DUEL] Epoch ended. INSTR misses = 0, DATA misses = 0. Winner = INSTR
[DUEL] Epoch ended. INSTR misses = 0, DATA misses = 0. Winner = INSTR
[DUEL] Epoch ended. INSTR misses = 0, DATA misses = 0. Winner = INSTR
[DUEL] Epoch ended. INSTR misses = 0, DATA misses = 0. Winner = INSTR
[DUEL] Epoch ended. INSTR misses = 0, DATA misses = 0. Winner = INSTR
[DUEL] Epoch ended. INSTR misses = 0, DATA misses = 0. Winner = INSTR
[DUEL] Epoch ended. INSTR misses = 4, DATA misses = 0. Winner = DATA
Heartbeat CPU 0 instructions: 110000003 cycles: 24163763 heartbeat IPC: 4.167 cumulative IPC: 4.207 (Simulation time: 00 hr 04 min 58 sec)
[DUEL] Epoch ended. INSTR misses = 2, DATA misses = 0. Winner = DATA
Heartbeat CPU 0 instructions: 120000001 cycles: 26225122 heartbeat IPC: 4.851 cumulative IPC: 4.27 (Simulation time: 00 hr 05 min 26 sec)
[DUEL] Epoch ended. INSTR misses = 11, DATA misses = 16. Winner = INSTR
[DUEL] Epoch ended. INSTR misses = 3, DATA misses = 8. Winner = INSTR
[DUEL] Epoch ended. INSTR misses = 48, DATA misses = 48. Winner = INSTR
[DUEL] Epoch ended. INSTR misses = 8, DATA misses = 9. Winner = INSTR
Heartbeat CPU 0 instructions: 130000000 cycles: 28701979 heartbeat IPC: 4.037 cumulative IPC: 4.246 (Simulation time: 00 hr 05 min 56 sec)
Simulation finished CPU 0 instructions: 100000000 cycles: 23552222 cumulative IPC: 4.246 (Simulation time: 00 hr 05 min 56 sec)
Simulation complete CPU 0 instructions: 100000000 cycles: 23552222 cumulative IPC: 4.246 (Simulation time: 00 hr 05 min 56 sec)

ChampSim completed all CPUs

=== Simulation ===
CPU 0 runs ../traces/secret_traces/crypto/crypto73.champsimtrace.xz
Region of Interest Statistics

CPU 0 cumulative IPC: 4.246 instructions: 100000000 cycles: 23552222
CPU 0 Branch Prediction Accuracy: 98.31% MPKI: 0.8357 Average ROB Occupancy at Mispredict: 33.41
Branch type MPKI
BRANCH_DIRECT_JUMP: 0.0502
BRANCH_INDIRECT: 0.434
BRANCH_CONDITIONAL: 0.109
BRANCH_DIRECT_CALL: 0.145
BRANCH_INDIRECT_CALL: 0.018
BRANCH_RETURN: 0.0794

LLC TOTAL        ACCESS:     424412 HIT:     305152 MISS:     119260
LLC LOAD         ACCESS:      43715 HIT:      23875 MISS:      19840
LLC RFO          ACCESS:     131241 HIT:     102860 MISS:      28381
LLC PREFETCH     ACCESS:     102463 HIT:      54726 MISS:      47737
LLC WRITE        ACCESS:     144582 HIT:     123109 MISS:      21473
LLC TRANSLATION  ACCESS:       2411 HIT:        582 MISS:       1829
LLC PREFETCH REQUESTED:          0 ISSUED:          0 USEFUL:          0 USELESS:          0
LLC AVERAGE MISS LATENCY: 170.3 cycles
cpu0_DTLB TOTAL        ACCESS:   13697188 HIT:   13656019 MISS:      41169
cpu0_DTLB LOAD         ACCESS:   13697188 HIT:   13656019 MISS:      41169
cpu0_DTLB RFO          ACCESS:          0 HIT:          0 MISS:          0
cpu0_DTLB PREFETCH     ACCESS:          0 HIT:          0 MISS:          0
cpu0_DTLB WRITE        ACCESS:          0 HIT:          0 MISS:          0
cpu0_DTLB TRANSLATION  ACCESS:          0 HIT:          0 MISS:          0
cpu0_DTLB PREFETCH REQUESTED:          0 ISSUED:          0 USEFUL:          0 USELESS:          0
cpu0_DTLB AVERAGE MISS LATENCY: 9.945 cycles
cpu0_ITLB TOTAL        ACCESS:     666168 HIT:     652768 MISS:      13400
cpu0_ITLB LOAD         ACCESS:     666168 HIT:     652768 MISS:      13400
cpu0_ITLB RFO          ACCESS:          0 HIT:          0 MISS:          0
cpu0_ITLB PREFETCH     ACCESS:          0 HIT:          0 MISS:          0
cpu0_ITLB WRITE        ACCESS:          0 HIT:          0 MISS:          0
cpu0_ITLB TRANSLATION  ACCESS:          0 HIT:          0 MISS:          0
cpu0_ITLB PREFETCH REQUESTED:          0 ISSUED:          0 USEFUL:          0 USELESS:          0
cpu0_ITLB AVERAGE MISS LATENCY: 18.8 cycles
cpu0_L1D TOTAL        ACCESS:   27429526 HIT:   26814016 MISS:     615510
cpu0_L1D LOAD         ACCESS:    8183727 HIT:    8025724 MISS:     158003
cpu0_L1D RFO          ACCESS:          0 HIT:          0 MISS:          0
cpu0_L1D PREFETCH     ACCESS:   15998543 HIT:   15896810 MISS:     101733
cpu0_L1D WRITE        ACCESS:    3242199 HIT:    2889602 MISS:     352597
cpu0_L1D TRANSLATION  ACCESS:       5057 HIT:       1880 MISS:       3177
cpu0_L1D PREFETCH REQUESTED:   21847070 ISSUED:   15998555 USEFUL:      12952 USELESS:       1387
cpu0_L1D AVERAGE MISS LATENCY: 29.88 cycles
cpu0_L1I TOTAL        ACCESS:     968023 HIT:     808163 MISS:     159860
cpu0_L1I LOAD         ACCESS:     316919 HIT:     280263 MISS:      36656
cpu0_L1I RFO          ACCESS:          0 HIT:          0 MISS:          0
cpu0_L1I PREFETCH     ACCESS:     651104 HIT:     527900 MISS:     123204
cpu0_L1I WRITE        ACCESS:          0 HIT:          0 MISS:          0
cpu0_L1I TRANSLATION  ACCESS:          0 HIT:          0 MISS:          0
cpu0_L1I PREFETCH REQUESTED:    1060879 ISSUED:     651104 USEFUL:      68995 USELESS:      48997
cpu0_L1I AVERAGE MISS LATENCY: 32.09 cycles
cpu0_L2C TOTAL        ACCESS:     949353 HIT:     586149 MISS:     363204
cpu0_L2C LOAD         ACCESS:     124764 HIT:      70493 MISS:      54271
cpu0_L2C RFO          ACCESS:     143697 HIT:      12416 MISS:     131281
cpu0_L2C PREFETCH     ACCESS:     512950 HIT:     337709 MISS:     175241
cpu0_L2C WRITE        ACCESS:     164863 HIT:     164863 MISS:          0
cpu0_L2C TRANSLATION  ACCESS:       3079 HIT:        668 MISS:       2411
cpu0_L2C PREFETCH REQUESTED:     325958 ISSUED:     311926 USEFUL:      26066 USELESS:      24609
cpu0_L2C AVERAGE MISS LATENCY: 69.1 cycles
cpu0_STLB TOTAL        ACCESS:      23836 HIT:      19199 MISS:       4637
cpu0_STLB LOAD         ACCESS:      23836 HIT:      19199 MISS:       4637
cpu0_STLB RFO          ACCESS:          0 HIT:          0 MISS:          0
cpu0_STLB PREFETCH     ACCESS:          0 HIT:          0 MISS:          0
cpu0_STLB WRITE        ACCESS:          0 HIT:          0 MISS:          0
cpu0_STLB TRANSLATION  ACCESS:          0 HIT:          0 MISS:          0
cpu0_STLB PREFETCH REQUESTED:          0 ISSUED:          0 USEFUL:          0 USELESS:          0
cpu0_STLB AVERAGE MISS LATENCY: 122.2 cycles

DRAM Statistics

Channel 0 RQ ROW_BUFFER_HIT:      23398
  ROW_BUFFER_MISS:      26142
 AVG DBUS CONGESTED CYCLE: 3.909
WQ ROW_BUFFER_HIT: Channel 0 
  ROW_BUFFER_MISS:       1918
  FULL:      15575

Channel 1 RQ ROW_BUFFER_HIT:      22469
  ROW_BUFFER_MISS:      25727
 AVG DBUS CONGESTED CYCLE: 3.895
WQ ROW_BUFFER_HIT: Channel 1 
  ROW_BUFFER_MISS:       1972
  FULL:      14781
BERTI TO_L1: 18168332 TO_L2: 7534781 TO_L2_BC_MSHR: 1884844
BERTI AVG_LAT: 66.389 NUM_TRACK_LATENCY: 158170 NUM_CANT_TRACK_LATENCY: 0
BERTI CROSS_PAGE 3665340 NO_CROSS_PAGE: 22037773
BERTI FOUND_BERTI: 3094163 NO_FOUND_BERTI: 8214045
BERTI AVERAGE_ISSUED: 10.2795
CPU 0 L1I Entangling prefetcher final stats
IP accesses: 6f71 1bdc40 1405 / 318068
IP misses: 7a68 1e9a00 151 / 37805
IP hits: 0 0 0 / 0
IP late: 20a3 828c0 47 / 18361
IP wrong: f801 3e0040 112 / 48817
miss rate: 0.118859
coverage: 0
coverage_late: 0.485677
accuracy: 0
accuracy_late: 0.273319
discarded: 0
evicts entangled j table: 0
evicts entangled k table: 6343
max bb size: 53
formats: 1565 0 5153 2569 1044 1918 0 
hist_lookups: 4061 4704 3753 3326 2950 2653 2084 1510 1132 913 742 479 286 172 94 0 0 6804 
hist_lookups_evict: 0 %
hist_lookups_shortlat: 19.0786 %
bb_found_hist: 0 80722 35112 16597 7621 3751 1758 1541 471 98 6 99 114 98 24 0 3 0 0 0 0 6 0 0 0 0 0 0 0 0 0 3 0 0 3 0 0 0 0 0 0 0 0 0 0 0 0 0 0 0 0 0 0 3 0 0 0 0 0 0 0 0 0 0 
bb_found_summary: 280616 148030 1.89567
entangled_found_hist: 0 42722 31049 62371 11442 2036 381 0 
entangled_found_summary: 350167 150001 2.33444
bb_ent_found_hist: 0 119263 52475 34705 14410 10341 3658 2411 1712 88 0 182 134 35 15 0 195 0 0 0 0 14 0 0 0 0 0 0 0 0 0 6 0 0 3 0 0 0 0 0 0 0 0 0 0 0 0 0 0 0 0 0 0 4 0 0 0 0 0 0 0 0 0 0 
bb_ent_found_summary: 499175 239651 2.08293
