WARNING: physical memory size is smaller than virtual memory size.

*** ChampSim Multicore Out-of-Order Simulator ***
Warmup Instructions: 30000000
Simulation Instructions: 100000000
Number of CPUs: 1
Page size: 4096

BTB:
Basic BTB sets: 1024 ways: 8
Indirect:
history lengths: 0 0 10 16 27 44 60 96 109 219 449 487 714 1313 2146 3881 
ITTAGE tables: 64768 bytes;Region table: 240 bytes;IUM: 384 bytes;Total Storage= 65392 bytes;
RAS:
RAS size: 64
[LLC] INSTR Demand IPV: 1 2 2 1 4 Prefetch IPV: 1 2 1 1 4
[LLC] DATA  Demand IPV: 1 1 1 2 4 Prefetch IPV: 1 1 2 2 4
Berti Prefetcher
CPU 0 Entangling prefetcher
Off-chip DRAM Size: 8 GiB Channels: 2 Width: 64-bit Data Race: 6400 MT/s
[DUEL] Epoch ended. INSTR misses = 53, DATA misses = 60. Winner = INSTR
[DUEL] Epoch ended. INSTR misses = 20, DATA misses = 21. Winner = INSTR
[DUEL] Epoch ended. INSTR misses = 0, DATA misses = 0. Winner = INSTR
[DUEL] Epoch ended. INSTR misses = 0, DATA misses = 0. Winner = INSTR
[DUEL] Epoch ended. INSTR misses = 0, DATA misses = 0. Winner = INSTR
[DUEL] Epoch ended. INSTR misses = 0, DATA misses = 0. Winner = INSTR
[DUEL] Epoch ended. INSTR misses = 16, DATA misses = 16. Winner = INSTR
[DUEL] Epoch ended. INSTR misses = 0, DATA misses = 0. Winner = INSTR
[DUEL] Epoch ended. INSTR misses = 0, DATA misses = 3. Winner = INSTR
[DUEL] Epoch ended. INSTR misses = 9, DATA misses = 4. Winner = DATA
[DUEL] Epoch ended. INSTR misses = 2, DATA misses = 0. Winner = DATA
[DUEL] Epoch ended. INSTR misses = 3, DATA misses = 0. Winner = DATA
[DUEL] Epoch ended. INSTR misses = 12, DATA misses = 1. Winner = DATA
Heartbeat CPU 0 instructions: 10000005 cycles: 1715532 heartbeat IPC: 5.829 cumulative IPC: 5.829 (Simulation time: 00 hr 00 min 22 sec)
[DUEL] Epoch ended. INSTR misses = 1, DATA misses = 10. Winner = INSTR
[DUEL] Epoch ended. INSTR misses = 26, DATA misses = 19. Winner = DATA
[DUEL] Epoch ended. INSTR misses = 95, DATA misses = 117. Winner = INSTR
Heartbeat CPU 0 instructions: 20000002 cycles: 3431904 heartbeat IPC: 5.826 cumulative IPC: 5.828 (Simulation time: 00 hr 00 min 43 sec)
[DUEL] Epoch ended. INSTR misses = 42, DATA misses = 42. Winner = INSTR
Heartbeat CPU 0 instructions: 30000000 cycles: 5098675 heartbeat IPC: 6 cumulative IPC: 5.884 (Simulation time: 00 hr 01 min 04 sec)
Warmup finished CPU 0 instructions: 30000000 cycles: 5098676 cumulative IPC: 5.884 (Simulation time: 00 hr 01 min 04 sec)
Warmup complete CPU 0 instructions: 30000000 cycles: 5098676 cumulative IPC: 5.884 (Simulation time: 00 hr 01 min 04 sec)
[DUEL] Epoch ended. INSTR misses = 0, DATA misses = 3. Winner = INSTR
*** Reached end of trace: (0, "../traces/secret_traces/crypto/crypto75.champsimtrace.xz")
[DUEL] Epoch ended. INSTR misses = 13, DATA misses = 23. Winner = INSTR
[DUEL] Epoch ended. INSTR misses = 38, DATA misses = 22. Winner = DATA
[DUEL] Epoch ended. INSTR misses = 1, DATA misses = 3. Winner = INSTR
[DUEL] Epoch ended. INSTR misses = 0, DATA misses = 0. Winner = INSTR
[DUEL] Epoch ended. INSTR misses = 0, DATA misses = 0. Winner = INSTR
[DUEL] Epoch ended. INSTR misses = 0, DATA misses = 0. Winner = INSTR
[DUEL] Epoch ended. INSTR misses = 0, DATA misses = 0. Winner = INSTR
[DUEL] Epoch ended. INSTR misses = 0, DATA misses = 0. Winner = INSTR
[DUEL] Epoch ended. INSTR misses = 0, DATA misses = 0. Winner = INSTR
[DUEL] Epoch ended. INSTR misses = 4, DATA misses = 7. Winner = INSTR
[DUEL] Epoch ended. INSTR misses = 5, DATA misses = 0. Winner = DATA
[DUEL] Epoch ended. INSTR misses = 2, DATA misses = 0. Winner = DATA
[DUEL] Epoch ended. INSTR misses = 8, DATA misses = 7. Winner = DATA
Heartbeat CPU 0 instructions: 40000002 cycles: 7803469 heartbeat IPC: 3.697 cumulative IPC: 3.697 (Simulation time: 00 hr 01 min 36 sec)
[DUEL] Epoch ended. INSTR misses = 1, DATA misses = 2. Winner = INSTR
[DUEL] Epoch ended. INSTR misses = 7, DATA misses = 10. Winner = INSTR
[DUEL] Epoch ended. INSTR misses = 46, DATA misses = 74. Winner = INSTR
Heartbeat CPU 0 instructions: 50000010 cycles: 10390006 heartbeat IPC: 3.866 cumulative IPC: 3.78 (Simulation time: 00 hr 02 min 09 sec)
[DUEL] Epoch ended. INSTR misses = 30, DATA misses = 31. Winner = INSTR
Heartbeat CPU 0 instructions: 60000006 cycles: 12472217 heartbeat IPC: 4.803 cumulative IPC: 4.069 (Simulation time: 00 hr 02 min 39 sec)
[DUEL] Epoch ended. INSTR misses = 0, DATA misses = 1. Winner = INSTR
*** Reached end of trace: (0, "../traces/secret_traces/crypto/crypto75.champsimtrace.xz")
[DUEL] Epoch ended. INSTR misses = 4, DATA misses = 28. Winner = INSTR
[DUEL] Epoch ended. INSTR misses = 23, DATA misses = 18. Winner = DATA
[DUEL] Epoch ended. INSTR misses = 1, DATA misses = 3. Winner = INSTR
[DUEL] Epoch ended. INSTR misses = 0, DATA misses = 0. Winner = INSTR
[DUEL] Epoch ended. INSTR misses = 0, DATA misses = 0. Winner = INSTR
[DUEL] Epoch ended. INSTR misses = 0, DATA misses = 0. Winner = INSTR
[DUEL] Epoch ended. INSTR misses = 0, DATA misses = 0. Winner = INSTR
[DUEL] Epoch ended. INSTR misses = 0, DATA misses = 0. Winner = INSTR
[DUEL] Epoch ended. INSTR misses = 0, DATA misses = 0. Winner = INSTR
[DUEL] Epoch ended. INSTR misses = 1, DATA misses = 4. Winner = INSTR
[DUEL] Epoch ended. INSTR misses = 5, DATA misses = 0. Winner = DATA
[DUEL] Epoch ended. INSTR misses = 2, DATA misses = 0. Winner = DATA
[DUEL] Epoch ended. INSTR misses = 8, DATA misses = 3. Winner = DATA
Heartbeat CPU 0 instructions: 70000005 cycles: 14990210 heartbeat IPC: 3.971 cumulative IPC: 4.044 (Simulation time: 00 hr 03 min 10 sec)
[DUEL] Epoch ended. INSTR misses = 1, DATA misses = 1. Winner = INSTR
[DUEL] Epoch ended. INSTR misses = 5, DATA misses = 8. Winner = INSTR
[DUEL] Epoch ended. INSTR misses = 33, DATA misses = 67. Winner = INSTR
Heartbeat CPU 0 instructions: 80000011 cycles: 17495987 heartbeat IPC: 3.991 cumulative IPC: 4.033 (Simulation time: 00 hr 03 min 43 sec)
[DUEL] Epoch ended. INSTR misses = 26, DATA misses = 28. Winner = INSTR
Heartbeat CPU 0 instructions: 90000008 cycles: 19576161 heartbeat IPC: 4.807 cumulative IPC: 4.144 (Simulation time: 00 hr 04 min 13 sec)
[DUEL] Epoch ended. INSTR misses = 2, DATA misses = 0. Winner = DATA
*** Reached end of trace: (0, "../traces/secret_traces/crypto/crypto75.champsimtrace.xz")
[DUEL] Epoch ended. INSTR misses = 7, DATA misses = 21. Winner = INSTR
[DUEL] Epoch ended. INSTR misses = 26, DATA misses = 17. Winner = DATA
[DUEL] Epoch ended. INSTR misses = 1, DATA misses = 2. Winner = INSTR
[DUEL] Epoch ended. INSTR misses = 0, DATA misses = 0. Winner = INSTR
[DUEL] Epoch ended. INSTR misses = 0, DATA misses = 0. Winner = INSTR
[DUEL] Epoch ended. INSTR misses = 0, DATA misses = 0. Winner = INSTR
[DUEL] Epoch ended. INSTR misses = 0, DATA misses = 0. Winner = INSTR
[DUEL] Epoch ended. INSTR misses = 0, DATA misses = 0. Winner = INSTR
[DUEL] Epoch ended. INSTR misses = 0, DATA misses = 0. Winner = INSTR
[DUEL] Epoch ended. INSTR misses = 1, DATA misses = 4. Winner = INSTR
[DUEL] Epoch ended. INSTR misses = 5, DATA misses = 0. Winner = DATA
[DUEL] Epoch ended. INSTR misses = 2, DATA misses = 0. Winner = DATA
[DUEL] Epoch ended. INSTR misses = 6, DATA misses = 2. Winner = DATA
Heartbeat CPU 0 instructions: 100000002 cycles: 22051516 heartbeat IPC: 4.04 cumulative IPC: 4.129 (Simulation time: 00 hr 04 min 44 sec)
[DUEL] Epoch ended. INSTR misses = 3, DATA misses = 1. Winner = DATA
[DUEL] Epoch ended. INSTR misses = 5, DATA misses = 4. Winner = DATA
[DUEL] Epoch ended. INSTR misses = 32, DATA misses = 63. Winner = INSTR
Heartbeat CPU 0 instructions: 110000001 cycles: 24606359 heartbeat IPC: 3.914 cumulative IPC: 4.101 (Simulation time: 00 hr 05 min 17 sec)
[DUEL] Epoch ended. INSTR misses = 23, DATA misses = 28. Winner = INSTR
Heartbeat CPU 0 instructions: 120000000 cycles: 26686667 heartbeat IPC: 4.807 cumulative IPC: 4.169 (Simulation time: 00 hr 05 min 47 sec)
[DUEL] Epoch ended. INSTR misses = 0, DATA misses = 0. Winner = INSTR
*** Reached end of trace: (0, "../traces/secret_traces/crypto/crypto75.champsimtrace.xz")
[DUEL] Epoch ended. INSTR misses = 5, DATA misses = 23. Winner = INSTR
[DUEL] Epoch ended. INSTR misses = 23, DATA misses = 17. Winner = DATA
[DUEL] Epoch ended. INSTR misses = 2, DATA misses = 2. Winner = INSTR
[DUEL] Epoch ended. INSTR misses = 0, DATA misses = 0. Winner = INSTR
[DUEL] Epoch ended. INSTR misses = 0, DATA misses = 0. Winner = INSTR
[DUEL] Epoch ended. INSTR misses = 0, DATA misses = 0. Winner = INSTR
[DUEL] Epoch ended. INSTR misses = 0, DATA misses = 0. Winner = INSTR
[DUEL] Epoch ended. INSTR misses = 0, DATA misses = 0. Winner = INSTR
[DUEL] Epoch ended. INSTR misses = 0, DATA misses = 0. Winner = INSTR
[DUEL] Epoch ended. INSTR misses = 1, DATA misses = 4. Winner = INSTR
[DUEL] Epoch ended. INSTR misses = 5, DATA misses = 0. Winner = DATA
[DUEL] Epoch ended. INSTR misses = 2, DATA misses = 0. Winner = DATA
[DUEL] Epoch ended. INSTR misses = 6, DATA misses = 2. Winner = DATA
Heartbeat CPU 0 instructions: 130000009 cycles: 29139234 heartbeat IPC: 4.077 cumulative IPC: 4.16 (Simulation time: 00 hr 06 min 19 sec)
Simulation finished CPU 0 instructions: 100000009 cycles: 24040559 cumulative IPC: 4.16 (Simulation time: 00 hr 06 min 19 sec)
Simulation complete CPU 0 instructions: 100000009 cycles: 24040559 cumulative IPC: 4.16 (Simulation time: 00 hr 06 min 19 sec)

ChampSim completed all CPUs

=== Simulation ===
CPU 0 runs ../traces/secret_traces/crypto/crypto75.champsimtrace.xz
Region of Interest Statistics

CPU 0 cumulative IPC: 4.16 instructions: 100000009 cycles: 24040559
CPU 0 Branch Prediction Accuracy: 99.29% MPKI: 0.9538 Average ROB Occupancy at Mispredict: 33.51
Branch type MPKI
BRANCH_DIRECT_JUMP: 0.0527
BRANCH_INDIRECT: 0.489
BRANCH_CONDITIONAL: 0.153
BRANCH_DIRECT_CALL: 0.155
BRANCH_INDIRECT_CALL: 0.0202
BRANCH_RETURN: 0.0843

LLC TOTAL        ACCESS:     389073 HIT:     277082 MISS:     111991
LLC LOAD         ACCESS:      39414 HIT:      20205 MISS:      19209
LLC RFO          ACCESS:     117276 HIT:      90300 MISS:      26976
LLC PREFETCH     ACCESS:      97342 HIT:      51353 MISS:      45989
LLC WRITE        ACCESS:     132613 HIT:     114679 MISS:      17934
LLC TRANSLATION  ACCESS:       2428 HIT:        545 MISS:       1883
LLC PREFETCH REQUESTED:          0 ISSUED:          0 USEFUL:          0 USELESS:          0
LLC AVERAGE MISS LATENCY: 159.1 cycles
cpu0_DTLB TOTAL        ACCESS:   11075921 HIT:   11038384 MISS:      37537
cpu0_DTLB LOAD         ACCESS:   11075921 HIT:   11038384 MISS:      37537
cpu0_DTLB RFO          ACCESS:          0 HIT:          0 MISS:          0
cpu0_DTLB PREFETCH     ACCESS:          0 HIT:          0 MISS:          0
cpu0_DTLB WRITE        ACCESS:          0 HIT:          0 MISS:          0
cpu0_DTLB TRANSLATION  ACCESS:          0 HIT:          0 MISS:          0
cpu0_DTLB PREFETCH REQUESTED:          0 ISSUED:          0 USEFUL:          0 USELESS:          0
cpu0_DTLB AVERAGE MISS LATENCY: 11 cycles
cpu0_ITLB TOTAL        ACCESS:     679670 HIT:     665719 MISS:      13951
cpu0_ITLB LOAD         ACCESS:     679670 HIT:     665719 MISS:      13951
cpu0_ITLB RFO          ACCESS:          0 HIT:          0 MISS:          0
cpu0_ITLB PREFETCH     ACCESS:          0 HIT:          0 MISS:          0
cpu0_ITLB WRITE        ACCESS:          0 HIT:          0 MISS:          0
cpu0_ITLB TRANSLATION  ACCESS:          0 HIT:          0 MISS:          0
cpu0_ITLB PREFETCH REQUESTED:          0 ISSUED:          0 USEFUL:          0 USELESS:          0
cpu0_ITLB AVERAGE MISS LATENCY: 19.66 cycles
cpu0_L1D TOTAL        ACCESS:   16032215 HIT:   15483075 MISS:     549140
cpu0_L1D LOAD         ACCESS:    7929048 HIT:    7783801 MISS:     145247
cpu0_L1D RFO          ACCESS:          0 HIT:          0 MISS:          0
cpu0_L1D PREFETCH     ACCESS:     542560 HIT:     445098 MISS:      97462
cpu0_L1D WRITE        ACCESS:    7555685 HIT:    7252456 MISS:     303229
cpu0_L1D TRANSLATION  ACCESS:       4922 HIT:       1720 MISS:       3202
cpu0_L1D PREFETCH REQUESTED:    3416686 ISSUED:     542560 USEFUL:      10338 USELESS:       1371
cpu0_L1D AVERAGE MISS LATENCY: 28.94 cycles
cpu0_L1I TOTAL        ACCESS:     990118 HIT:     829804 MISS:     160314
cpu0_L1I LOAD         ACCESS:     323115 HIT:     286844 MISS:      36271
cpu0_L1I RFO          ACCESS:          0 HIT:          0 MISS:          0
cpu0_L1I PREFETCH     ACCESS:     667003 HIT:     542960 MISS:     124043
cpu0_L1I WRITE        ACCESS:          0 HIT:          0 MISS:          0
cpu0_L1I TRANSLATION  ACCESS:          0 HIT:          0 MISS:          0
cpu0_L1I PREFETCH REQUESTED:    1010689 ISSUED:     667003 USEFUL:      69514 USELESS:      49189
cpu0_L1I AVERAGE MISS LATENCY: 30.69 cycles
cpu0_L2C TOTAL        ACCESS:     902844 HIT:     568355 MISS:     334489
cpu0_L2C LOAD         ACCESS:     117400 HIT:      68709 MISS:      48691
cpu0_L2C RFO          ACCESS:     127695 HIT:      10378 MISS:     117317
cpu0_L2C PREFETCH     ACCESS:     507550 HIT:     341497 MISS:     166053
cpu0_L2C WRITE        ACCESS:     147101 HIT:     147101 MISS:          0
cpu0_L2C TRANSLATION  ACCESS:       3098 HIT:        670 MISS:       2428
cpu0_L2C PREFETCH REQUESTED:     318231 ISSUED:     306719 USEFUL:      25417 USELESS:      22627
cpu0_L2C AVERAGE MISS LATENCY: 66.48 cycles
cpu0_STLB TOTAL        ACCESS:      23401 HIT:      18907 MISS:       4494
cpu0_STLB LOAD         ACCESS:      23401 HIT:      18907 MISS:       4494
cpu0_STLB RFO          ACCESS:          0 HIT:          0 MISS:          0
cpu0_STLB PREFETCH     ACCESS:          0 HIT:          0 MISS:          0
cpu0_STLB WRITE        ACCESS:          0 HIT:          0 MISS:          0
cpu0_STLB TRANSLATION  ACCESS:          0 HIT:          0 MISS:          0
cpu0_STLB PREFETCH REQUESTED:          0 ISSUED:          0 USEFUL:          0 USELESS:          0
cpu0_STLB AVERAGE MISS LATENCY: 130.5 cycles

DRAM Statistics

Channel 0 RQ ROW_BUFFER_HIT:      22551
  ROW_BUFFER_MISS:      25255
 AVG DBUS CONGESTED CYCLE: 3.897
WQ ROW_BUFFER_HIT: Channel 0 
  ROW_BUFFER_MISS:       1954
  FULL:      13561

Channel 1 RQ ROW_BUFFER_HIT:      22001
  ROW_BUFFER_MISS:      24207
 AVG DBUS CONGESTED CYCLE: 3.885
WQ ROW_BUFFER_HIT: Channel 1 
  ROW_BUFFER_MISS:       1865
  FULL:      12948
BERTI TO_L1: 1271173 TO_L2: 2642525 TO_L2_BC_MSHR: 1513114
BERTI AVG_LAT: 65.8093 NUM_TRACK_LATENCY: 137925 NUM_CANT_TRACK_LATENCY: 0
BERTI CROSS_PAGE 797861 NO_CROSS_PAGE: 3115837
BERTI FOUND_BERTI: 890520 NO_FOUND_BERTI: 11066105
BERTI AVERAGE_ISSUED: 4.12979
CPU 0 L1I Entangling prefetcher final stats
IP accesses: 6f71 1bdc40 1774 / 323953
IP misses: 25bf 96fc0 176 / 37109
IP hits: 0 0 0 / 0
IP late: 77e3 1df8c0 54 / 18045
IP wrong: f801 3e0040 110 / 48987
miss rate: 0.114551
coverage: 0
coverage_late: 0.486271
accuracy: 0
accuracy_late: 0.2692
discarded: 0
evicts entangled j table: 0
evicts entangled k table: 6130
max bb size: 53
formats: 1652 0 5236 2597 1094 2168 0 
hist_lookups: 4499 4788 3721 3263 2955 2466 1845 1474 1125 915 707 480 309 179 92 0 9 5282 
hist_lookups_evict: 0.026386 %
hist_lookups_shortlat: 15.4857 %
bb_found_hist: 0 80912 33388 17403 7468 3864 1751 1326 452 94 4 110 96 72 26 35 4 0 0 0 0 8 0 0 0 0 0 0 0 0 0 4 0 0 4 0 0 0 0 0 0 0 0 0 0 0 0 0 0 0 0 0 0 4 0 0 0 0 0 0 0 0 0 0 
bb_found_summary: 278270 147025 1.89268
entangled_found_hist: 0 43870 32545 56697 10667 1713 597 0 
entangled_found_summary: 333866 146089 2.28537
bb_ent_found_hist: 0 115346 45877 33422 13793 9181 3424 1341 1420 39 0 109 122 76 33 272 201 0 0 0 0 60 0 0 0 0 0 0 0 0 0 4 0 0 7 0 0 0 0 0 0 0 0 0 0 0 0 0 0 0 0 0 0 6 0 0 0 0 0 0 0 0 0 0 
bb_ent_found_summary: 463434 224733 2.06216
