WARNING: physical memory size is smaller than virtual memory size.

*** ChampSim Multicore Out-of-Order Simulator ***
Warmup Instructions: 30000000
Simulation Instructions: 100000000
Number of CPUs: 1
Page size: 4096

BTB:
Basic BTB sets: 1024 ways: 8
Indirect:
history lengths: 0 0 10 16 27 44 60 96 109 219 449 487 714 1313 2146 3881 
ITTAGE tables: 64768 bytes;Region table: 240 bytes;IUM: 384 bytes;Total Storage= 65392 bytes;
RAS:
RAS size: 64
[LLC] INSTR Demand IPV: 1 2 2 1 4 Prefetch IPV: 1 2 1 1 4
[LLC] DATA  Demand IPV: 1 1 1 2 4 Prefetch IPV: 1 1 2 2 4
Berti Prefetcher
CPU 0 Entangling prefetcher
Off-chip DRAM Size: 8 GiB Channels: 2 Width: 64-bit Data Race: 6400 MT/s
[DUEL] Epoch ended. INSTR misses = 41, DATA misses = 50. Winner = INSTR
[DUEL] Epoch ended. INSTR misses = 24, DATA misses = 16. Winner = DATA
[DUEL] Epoch ended. INSTR misses = 0, DATA misses = 0. Winner = INSTR
[DUEL] Epoch ended. INSTR misses = 0, DATA misses = 0. Winner = INSTR
[DUEL] Epoch ended. INSTR misses = 0, DATA misses = 0. Winner = INSTR
[DUEL] Epoch ended. INSTR misses = 0, DATA misses = 0. Winner = INSTR
[DUEL] Epoch ended. INSTR misses = 16, DATA misses = 16. Winner = INSTR
[DUEL] Epoch ended. INSTR misses = 0, DATA misses = 0. Winner = INSTR
[DUEL] Epoch ended. INSTR misses = 4, DATA misses = 0. Winner = DATA
[DUEL] Epoch ended. INSTR misses = 8, DATA misses = 4. Winner = DATA
[DUEL] Epoch ended. INSTR misses = 4, DATA misses = 5. Winner = INSTR
[DUEL] Epoch ended. INSTR misses = 0, DATA misses = 0. Winner = INSTR
[DUEL] Epoch ended. INSTR misses = 1, DATA misses = 0. Winner = DATA
Heartbeat CPU 0 instructions: 10000004 cycles: 1715445 heartbeat IPC: 5.829 cumulative IPC: 5.829 (Simulation time: 00 hr 00 min 22 sec)
[DUEL] Epoch ended. INSTR misses = 1, DATA misses = 10. Winner = INSTR
[DUEL] Epoch ended. INSTR misses = 16, DATA misses = 19. Winner = INSTR
[DUEL] Epoch ended. INSTR misses = 88, DATA misses = 94. Winner = INSTR
Heartbeat CPU 0 instructions: 20000003 cycles: 3431830 heartbeat IPC: 5.826 cumulative IPC: 5.828 (Simulation time: 00 hr 00 min 45 sec)
[DUEL] Epoch ended. INSTR misses = 32, DATA misses = 15. Winner = DATA
Heartbeat CPU 0 instructions: 30000009 cycles: 5098589 heartbeat IPC: 6 cumulative IPC: 5.884 (Simulation time: 00 hr 01 min 07 sec)
Warmup finished CPU 0 instructions: 30000009 cycles: 5098590 cumulative IPC: 5.884 (Simulation time: 00 hr 01 min 07 sec)
Warmup complete CPU 0 instructions: 30000009 cycles: 5098590 cumulative IPC: 5.884 (Simulation time: 00 hr 01 min 07 sec)
[DUEL] Epoch ended. INSTR misses = 0, DATA misses = 3. Winner = INSTR
Heartbeat CPU 0 instructions: 40000008 cycles: 6766438 heartbeat IPC: 5.996 cumulative IPC: 5.996 (Simulation time: 00 hr 01 min 32 sec)
Heartbeat CPU 0 instructions: 50000008 cycles: 8433105 heartbeat IPC: 6 cumulative IPC: 5.998 (Simulation time: 00 hr 01 min 57 sec)
[DUEL] Epoch ended. INSTR misses = 0, DATA misses = 0. Winner = INSTR
[DUEL] Epoch ended. INSTR misses = 0, DATA misses = 0. Winner = INSTR
*** Reached end of trace: (0, "../traces/secret_traces/crypto/crypto91.champsimtrace.xz")
[DUEL] Epoch ended. INSTR misses = 11, DATA misses = 2. Winner = DATA
[DUEL] Epoch ended. INSTR misses = 7, DATA misses = 4. Winner = DATA
[DUEL] Epoch ended. INSTR misses = 2, DATA misses = 0. Winner = DATA
[DUEL] Epoch ended. INSTR misses = 0, DATA misses = 0. Winner = INSTR
[DUEL] Epoch ended. INSTR misses = 0, DATA misses = 0. Winner = INSTR
[DUEL] Epoch ended. INSTR misses = 0, DATA misses = 0. Winner = INSTR
[DUEL] Epoch ended. INSTR misses = 0, DATA misses = 0. Winner = INSTR
[DUEL] Epoch ended. INSTR misses = 0, DATA misses = 0. Winner = INSTR
[DUEL] Epoch ended. INSTR misses = 0, DATA misses = 0. Winner = INSTR
[DUEL] Epoch ended. INSTR misses = 0, DATA misses = 2. Winner = INSTR
[DUEL] Epoch ended. INSTR misses = 2, DATA misses = 0. Winner = DATA
[DUEL] Epoch ended. INSTR misses = 2, DATA misses = 2. Winner = INSTR
Heartbeat CPU 0 instructions: 60000006 cycles: 10797048 heartbeat IPC: 4.23 cumulative IPC: 5.265 (Simulation time: 00 hr 02 min 25 sec)
[DUEL] Epoch ended. INSTR misses = 1, DATA misses = 0. Winner = DATA
Heartbeat CPU 0 instructions: 70000009 cycles: 12525962 heartbeat IPC: 5.784 cumulative IPC: 5.385 (Simulation time: 00 hr 02 min 50 sec)
[DUEL] Epoch ended. INSTR misses = 1, DATA misses = 3. Winner = INSTR
[DUEL] Epoch ended. INSTR misses = 0, DATA misses = 3. Winner = INSTR
[DUEL] Epoch ended. INSTR misses = 44, DATA misses = 47. Winner = INSTR
Heartbeat CPU 0 instructions: 80000003 cycles: 14734903 heartbeat IPC: 4.527 cumulative IPC: 5.189 (Simulation time: 00 hr 03 min 19 sec)
[DUEL] Epoch ended. INSTR misses = 23, DATA misses = 13. Winner = DATA
Heartbeat CPU 0 instructions: 90000001 cycles: 16414809 heartbeat IPC: 5.953 cumulative IPC: 5.302 (Simulation time: 00 hr 03 min 44 sec)
[DUEL] Epoch ended. INSTR misses = 0, DATA misses = 0. Winner = INSTR
Heartbeat CPU 0 instructions: 100000004 cycles: 18082256 heartbeat IPC: 5.997 cumulative IPC: 5.391 (Simulation time: 00 hr 04 min 08 sec)
[DUEL] Epoch ended. INSTR misses = 0, DATA misses = 0. Winner = INSTR
[DUEL] Epoch ended. INSTR misses = 0, DATA misses = 0. Winner = INSTR
*** Reached end of trace: (0, "../traces/secret_traces/crypto/crypto91.champsimtrace.xz")
[DUEL] Epoch ended. INSTR misses = 7, DATA misses = 2. Winner = DATA
[DUEL] Epoch ended. INSTR misses = 1, DATA misses = 0. Winner = DATA
[DUEL] Epoch ended. INSTR misses = 0, DATA misses = 0. Winner = INSTR
[DUEL] Epoch ended. INSTR misses = 0, DATA misses = 0. Winner = INSTR
[DUEL] Epoch ended. INSTR misses = 0, DATA misses = 0. Winner = INSTR
[DUEL] Epoch ended. INSTR misses = 0, DATA misses = 0. Winner = INSTR
Heartbeat CPU 0 instructions: 110000010 cycles: 20106355 heartbeat IPC: 4.94 cumulative IPC: 5.331 (Simulation time: 00 hr 04 min 35 sec)
[DUEL] Epoch ended. INSTR misses = 0, DATA misses = 0. Winner = INSTR
[DUEL] Epoch ended. INSTR misses = 0, DATA misses = 0. Winner = INSTR
[DUEL] Epoch ended. INSTR misses = 0, DATA misses = 0. Winner = INSTR
[DUEL] Epoch ended. INSTR misses = 0, DATA misses = 2. Winner = INSTR
[DUEL] Epoch ended. INSTR misses = 6, DATA misses = 0. Winner = DATA
[DUEL] Epoch ended. INSTR misses = 3, DATA misses = 2. Winner = DATA
[DUEL] Epoch ended. INSTR misses = 0, DATA misses = 0. Winner = INSTR
Heartbeat CPU 0 instructions: 120000009 cycles: 22011348 heartbeat IPC: 5.249 cumulative IPC: 5.321 (Simulation time: 00 hr 05 min 02 sec)
[DUEL] Epoch ended. INSTR misses = 1, DATA misses = 2. Winner = INSTR
[DUEL] Epoch ended. INSTR misses = 0, DATA misses = 3. Winner = INSTR
[DUEL] Epoch ended. INSTR misses = 31, DATA misses = 38. Winner = INSTR
Heartbeat CPU 0 instructions: 130000002 cycles: 24154334 heartbeat IPC: 4.666 cumulative IPC: 5.248 (Simulation time: 00 hr 05 min 30 sec)
Simulation finished CPU 0 instructions: 100000000 cycles: 19055747 cumulative IPC: 5.248 (Simulation time: 00 hr 05 min 30 sec)
Simulation complete CPU 0 instructions: 100000000 cycles: 19055747 cumulative IPC: 5.248 (Simulation time: 00 hr 05 min 30 sec)

ChampSim completed all CPUs

=== Simulation ===
CPU 0 runs ../traces/secret_traces/crypto/crypto91.champsimtrace.xz
Region of Interest Statistics

CPU 0 cumulative IPC: 5.248 instructions: 100000000 cycles: 19055747
CPU 0 Branch Prediction Accuracy: 99.63% MPKI: 0.5559 Average ROB Occupancy at Mispredict: 30.93
Branch type MPKI
BRANCH_DIRECT_JUMP: 0.0293
BRANCH_INDIRECT: 0.273
BRANCH_CONDITIONAL: 0.111
BRANCH_DIRECT_CALL: 0.0857
BRANCH_INDIRECT_CALL: 0.0108
BRANCH_RETURN: 0.0468

LLC TOTAL        ACCESS:     232328 HIT:     163583 MISS:      68745
LLC LOAD         ACCESS:      24004 HIT:      11599 MISS:      12405
LLC RFO          ACCESS:      71964 HIT:      55664 MISS:      16300
LLC PREFETCH     ACCESS:      56032 HIT:      28719 MISS:      27313
LLC WRITE        ACCESS:      79003 HIT:      67291 MISS:      11712
LLC TRANSLATION  ACCESS:       1325 HIT:        310 MISS:       1015
LLC PREFETCH REQUESTED:          0 ISSUED:          0 USEFUL:          0 USELESS:          0
LLC AVERAGE MISS LATENCY: 158.3 cycles
cpu0_DTLB TOTAL        ACCESS:   13851578 HIT:   13829174 MISS:      22404
cpu0_DTLB LOAD         ACCESS:   13851578 HIT:   13829174 MISS:      22404
cpu0_DTLB RFO          ACCESS:          0 HIT:          0 MISS:          0
cpu0_DTLB PREFETCH     ACCESS:          0 HIT:          0 MISS:          0
cpu0_DTLB WRITE        ACCESS:          0 HIT:          0 MISS:          0
cpu0_DTLB TRANSLATION  ACCESS:          0 HIT:          0 MISS:          0
cpu0_DTLB PREFETCH REQUESTED:          0 ISSUED:          0 USEFUL:          0 USELESS:          0
cpu0_DTLB AVERAGE MISS LATENCY: 10.5 cycles
cpu0_ITLB TOTAL        ACCESS:     386728 HIT:     378741 MISS:       7987
cpu0_ITLB LOAD         ACCESS:     386728 HIT:     378741 MISS:       7987
cpu0_ITLB RFO          ACCESS:          0 HIT:          0 MISS:          0
cpu0_ITLB PREFETCH     ACCESS:          0 HIT:          0 MISS:          0
cpu0_ITLB WRITE        ACCESS:          0 HIT:          0 MISS:          0
cpu0_ITLB TRANSLATION  ACCESS:          0 HIT:          0 MISS:          0
cpu0_ITLB PREFETCH REQUESTED:          0 ISSUED:          0 USEFUL:          0 USELESS:          0
cpu0_ITLB AVERAGE MISS LATENCY: 20.12 cycles
cpu0_L1D TOTAL        ACCESS:   23125183 HIT:   22798639 MISS:     326544
cpu0_L1D LOAD         ACCESS:   14541663 HIT:   14455941 MISS:      85722
cpu0_L1D RFO          ACCESS:          0 HIT:          0 MISS:          0
cpu0_L1D PREFETCH     ACCESS:     281697 HIT:     229820 MISS:      51877
cpu0_L1D WRITE        ACCESS:    8299038 HIT:    8111840 MISS:     187198
cpu0_L1D TRANSLATION  ACCESS:       2785 HIT:       1038 MISS:       1747
cpu0_L1D PREFETCH REQUESTED:    1970312 ISSUED:     281697 USEFUL:       6080 USELESS:        562
cpu0_L1D AVERAGE MISS LATENCY: 29.5 cycles
cpu0_L1I TOTAL        ACCESS:     563202 HIT:     466703 MISS:      96499
cpu0_L1I LOAD         ACCESS:     186436 HIT:     162132 MISS:      24304
cpu0_L1I RFO          ACCESS:          0 HIT:          0 MISS:          0
cpu0_L1I PREFETCH     ACCESS:     376766 HIT:     304571 MISS:      72195
cpu0_L1I WRITE        ACCESS:          0 HIT:          0 MISS:          0
cpu0_L1I TRANSLATION  ACCESS:          0 HIT:          0 MISS:          0
cpu0_L1I PREFETCH REQUESTED:     585060 ISSUED:     376766 USEFUL:      39110 USELESS:      29440
cpu0_L1I AVERAGE MISS LATENCY: 30.68 cycles
cpu0_L2C TOTAL        ACCESS:     526764 HIT:     325940 MISS:     200824
cpu0_L2C LOAD         ACCESS:      71829 HIT:      41909 MISS:      29920
cpu0_L2C RFO          ACCESS:      77527 HIT:       5535 MISS:      71992
cpu0_L2C PREFETCH     ACCESS:     287234 HIT:     189647 MISS:      97587
cpu0_L2C WRITE        ACCESS:      88483 HIT:      88483 MISS:          0
cpu0_L2C TRANSLATION  ACCESS:       1691 HIT:        366 MISS:       1325
cpu0_L2C PREFETCH REQUESTED:     182381 ISSUED:     176682 USEFUL:      14662 USELESS:      13502
cpu0_L2C AVERAGE MISS LATENCY: 67.13 cycles
cpu0_STLB TOTAL        ACCESS:      13473 HIT:      10909 MISS:       2564
cpu0_STLB LOAD         ACCESS:      13473 HIT:      10909 MISS:       2564
cpu0_STLB RFO          ACCESS:          0 HIT:          0 MISS:          0
cpu0_STLB PREFETCH     ACCESS:          0 HIT:          0 MISS:          0
cpu0_STLB WRITE        ACCESS:          0 HIT:          0 MISS:          0
cpu0_STLB TRANSLATION  ACCESS:          0 HIT:          0 MISS:          0
cpu0_STLB PREFETCH REQUESTED:          0 ISSUED:          0 USEFUL:          0 USELESS:          0
cpu0_STLB AVERAGE MISS LATENCY: 131.4 cycles

DRAM Statistics

Channel 0 RQ ROW_BUFFER_HIT:      13928
  ROW_BUFFER_MISS:      15148
 AVG DBUS CONGESTED CYCLE: 3.895
WQ ROW_BUFFER_HIT: Channel 0 
  ROW_BUFFER_MISS:       1140
  FULL:       8305

Channel 1 RQ ROW_BUFFER_HIT:      13275
  ROW_BUFFER_MISS:      14642
 AVG DBUS CONGESTED CYCLE: 3.875
WQ ROW_BUFFER_HIT: Channel 1 
  ROW_BUFFER_MISS:       1228
  FULL:       7680
BERTI TO_L1: 814843 TO_L2: 1666974 TO_L2_BC_MSHR: 959645
BERTI AVG_LAT: 62.7373 NUM_TRACK_LATENCY: 93774 NUM_CANT_TRACK_LATENCY: 0
BERTI CROSS_PAGE 513134 NO_CROSS_PAGE: 1968683
BERTI FOUND_BERTI: 495378 NO_FOUND_BERTI: 18968188
BERTI AVERAGE_ISSUED: 4.21302
CPU 0 L1I Entangling prefetcher final stats
IP accesses: 6f71 1bdc40 893 / 186819
IP misses: 25bf 96fc0 89 / 24687
IP hits: 0 0 0 / 0
IP late: 77e3 1df8c0 28 / 11848
IP wrong: f801 3e0040 60 / 29284
miss rate: 0.132144
coverage: 0
coverage_late: 0.479929
accuracy: 0
accuracy_late: 0.288049
discarded: 0
evicts entangled j table: 0
evicts entangled k table: 4017
max bb size: 53
formats: 968 0 3526 1702 756 1665 0 
hist_lookups: 3182 3381 2459 2225 1907 1639 1278 977 753 548 418 306 193 106 62 0 6 4086 
hist_lookups_evict: 0.0255037 %
hist_lookups_shortlat: 17.3681 %
bb_found_hist: 0 47001 18651 9879 4362 2295 1006 727 263 48 2 70 60 46 15 20 2 0 0 0 1 4 0 0 0 0 0 0 0 0 0 2 2 0 2 0 0 0 0 0 0 0 0 0 0 0 0 0 0 0 0 0 0 1 0 0 0 0 0 0 0 0 0 0 
bb_found_summary: 159525 84459 1.88879
entangled_found_hist: 0 25339 17964 32465 6324 1061 348 0 
entangled_found_summary: 191351 83501 2.29161
bb_ent_found_hist: 0 63983 28527 19972 7517 4984 2414 1060 933 20 0 146 68 39 25 214 126 0 0 0 1 7 0 0 0 0 0 0 0 0 0 2 2 0 3 0 0 0 0 0 0 0 0 0 0 0 0 0 0 0 0 0 0 1 0 0 0 0 0 0 0 0 0 0 
bb_ent_found_summary: 274442 130044 2.11038
