WARNING: physical memory size is smaller than virtual memory size.

*** ChampSim Multicore Out-of-Order Simulator ***
Warmup Instructions: 30000000
Simulation Instructions: 100000000
Number of CPUs: 1
Page size: 4096

BTB:
Basic BTB sets: 1024 ways: 8
Indirect:
history lengths: 0 0 10 16 27 44 60 96 109 219 449 487 714 1313 2146 3881 
ITTAGE tables: 64768 bytes;Region table: 240 bytes;IUM: 384 bytes;Total Storage= 65392 bytes;
RAS:
RAS size: 64
[LLC] INSTR Demand IPV: 1 2 2 1 4 Prefetch IPV: 1 2 1 1 4
[LLC] DATA  Demand IPV: 1 1 1 2 4 Prefetch IPV: 1 1 2 2 4
Berti Prefetcher
CPU 0 Entangling prefetcher
Off-chip DRAM Size: 8 GiB Channels: 2 Width: 64-bit Data Race: 6400 MT/s
[DUEL] Epoch ended. INSTR misses = 41, DATA misses = 50. Winner = INSTR
[DUEL] Epoch ended. INSTR misses = 24, DATA misses = 16. Winner = DATA
[DUEL] Epoch ended. INSTR misses = 0, DATA misses = 0. Winner = INSTR
[DUEL] Epoch ended. INSTR misses = 0, DATA misses = 0. Winner = INSTR
[DUEL] Epoch ended. INSTR misses = 0, DATA misses = 0. Winner = INSTR
[DUEL] Epoch ended. INSTR misses = 0, DATA misses = 0. Winner = INSTR
[DUEL] Epoch ended. INSTR misses = 16, DATA misses = 16. Winner = INSTR
[DUEL] Epoch ended. INSTR misses = 0, DATA misses = 0. Winner = INSTR
[DUEL] Epoch ended. INSTR misses = 4, DATA misses = 0. Winner = DATA
[DUEL] Epoch ended. INSTR misses = 4, DATA misses = 5. Winner = INSTR
[DUEL] Epoch ended. INSTR misses = 0, DATA misses = 0. Winner = INSTR
[DUEL] Epoch ended. INSTR misses = 0, DATA misses = 0. Winner = INSTR
[DUEL] Epoch ended. INSTR misses = 12, DATA misses = 1. Winner = DATA
Heartbeat CPU 0 instructions: 10000000 cycles: 1715429 heartbeat IPC: 5.829 cumulative IPC: 5.829 (Simulation time: 00 hr 00 min 21 sec)
[DUEL] Epoch ended. INSTR misses = 0, DATA misses = 14. Winner = INSTR
[DUEL] Epoch ended. INSTR misses = 19, DATA misses = 18. Winner = DATA
[DUEL] Epoch ended. INSTR misses = 91, DATA misses = 102. Winner = INSTR
Heartbeat CPU 0 instructions: 20000001 cycles: 3431647 heartbeat IPC: 5.827 cumulative IPC: 5.828 (Simulation time: 00 hr 00 min 42 sec)
[DUEL] Epoch ended. INSTR misses = 37, DATA misses = 30. Winner = DATA
Heartbeat CPU 0 instructions: 30000007 cycles: 5098391 heartbeat IPC: 6 cumulative IPC: 5.884 (Simulation time: 00 hr 01 min 03 sec)
Warmup finished CPU 0 instructions: 30000007 cycles: 5098392 cumulative IPC: 5.884 (Simulation time: 00 hr 01 min 03 sec)
Warmup complete CPU 0 instructions: 30000007 cycles: 5098392 cumulative IPC: 5.884 (Simulation time: 00 hr 01 min 03 sec)
[DUEL] Epoch ended. INSTR misses = 0, DATA misses = 2. Winner = INSTR
Heartbeat CPU 0 instructions: 40000010 cycles: 6766466 heartbeat IPC: 5.995 cumulative IPC: 5.995 (Simulation time: 00 hr 01 min 26 sec)
Heartbeat CPU 0 instructions: 50000006 cycles: 8433129 heartbeat IPC: 6 cumulative IPC: 5.997 (Simulation time: 00 hr 01 min 50 sec)
[DUEL] Epoch ended. INSTR misses = 0, DATA misses = 0. Winner = INSTR
[DUEL] Epoch ended. INSTR misses = 0, DATA misses = 0. Winner = INSTR
*** Reached end of trace: (0, "../traces/secret_traces/crypto/crypto67.champsimtrace.xz")
[DUEL] Epoch ended. INSTR misses = 22, DATA misses = 12. Winner = DATA
[DUEL] Epoch ended. INSTR misses = 22, DATA misses = 23. Winner = INSTR
[DUEL] Epoch ended. INSTR misses = 0, DATA misses = 0. Winner = INSTR
[DUEL] Epoch ended. INSTR misses = 0, DATA misses = 0. Winner = INSTR
[DUEL] Epoch ended. INSTR misses = 0, DATA misses = 0. Winner = INSTR
[DUEL] Epoch ended. INSTR misses = 0, DATA misses = 0. Winner = INSTR
[DUEL] Epoch ended. INSTR misses = 0, DATA misses = 0. Winner = INSTR
[DUEL] Epoch ended. INSTR misses = 0, DATA misses = 1. Winner = INSTR
[DUEL] Epoch ended. INSTR misses = 0, DATA misses = 0. Winner = INSTR
[DUEL] Epoch ended. INSTR misses = 3, DATA misses = 3. Winner = INSTR
[DUEL] Epoch ended. INSTR misses = 0, DATA misses = 0. Winner = INSTR
[DUEL] Epoch ended. INSTR misses = 1, DATA misses = 0. Winner = DATA
[DUEL] Epoch ended. INSTR misses = 3, DATA misses = 0. Winner = DATA
Heartbeat CPU 0 instructions: 60000006 cycles: 10878416 heartbeat IPC: 4.089 cumulative IPC: 5.19 (Simulation time: 00 hr 02 min 18 sec)
Heartbeat CPU 0 instructions: 70000001 cycles: 12545087 heartbeat IPC: 6 cumulative IPC: 5.372 (Simulation time: 00 hr 02 min 41 sec)
[DUEL] Epoch ended. INSTR misses = 0, DATA misses = 7. Winner = INSTR
[DUEL] Epoch ended. INSTR misses = 2, DATA misses = 3. Winner = INSTR
[DUEL] Epoch ended. INSTR misses = 36, DATA misses = 47. Winner = INSTR
Heartbeat CPU 0 instructions: 80000005 cycles: 14779427 heartbeat IPC: 4.476 cumulative IPC: 5.165 (Simulation time: 00 hr 03 min 08 sec)
[DUEL] Epoch ended. INSTR misses = 26, DATA misses = 20. Winner = DATA
Heartbeat CPU 0 instructions: 90000003 cycles: 16462979 heartbeat IPC: 5.94 cumulative IPC: 5.28 (Simulation time: 00 hr 03 min 32 sec)
[DUEL] Epoch ended. INSTR misses = 0, DATA misses = 2. Winner = INSTR
Heartbeat CPU 0 instructions: 100000003 cycles: 18130523 heartbeat IPC: 5.997 cumulative IPC: 5.371 (Simulation time: 00 hr 03 min 55 sec)
[DUEL] Epoch ended. INSTR misses = 0, DATA misses = 0. Winner = INSTR
[DUEL] Epoch ended. INSTR misses = 0, DATA misses = 0. Winner = INSTR
*** Reached end of trace: (0, "../traces/secret_traces/crypto/crypto67.champsimtrace.xz")
[DUEL] Epoch ended. INSTR misses = 15, DATA misses = 8. Winner = DATA
[DUEL] Epoch ended. INSTR misses = 9, DATA misses = 14. Winner = INSTR
[DUEL] Epoch ended. INSTR misses = 0, DATA misses = 0. Winner = INSTR
[DUEL] Epoch ended. INSTR misses = 0, DATA misses = 0. Winner = INSTR
[DUEL] Epoch ended. INSTR misses = 0, DATA misses = 0. Winner = INSTR
[DUEL] Epoch ended. INSTR misses = 0, DATA misses = 0. Winner = INSTR
[DUEL] Epoch ended. INSTR misses = 0, DATA misses = 0. Winner = INSTR
[DUEL] Epoch ended. INSTR misses = 0, DATA misses = 0. Winner = INSTR
[DUEL] Epoch ended. INSTR misses = 0, DATA misses = 0. Winner = INSTR
[DUEL] Epoch ended. INSTR misses = 6, DATA misses = 2. Winner = DATA
[DUEL] Epoch ended. INSTR misses = 0, DATA misses = 0. Winner = INSTR
[DUEL] Epoch ended. INSTR misses = 1, DATA misses = 0. Winner = DATA
Heartbeat CPU 0 instructions: 110000002 cycles: 20369398 heartbeat IPC: 4.467 cumulative IPC: 5.239 (Simulation time: 00 hr 04 min 23 sec)
[DUEL] Epoch ended. INSTR misses = 2, DATA misses = 0. Winner = DATA
Heartbeat CPU 0 instructions: 120000010 cycles: 22089213 heartbeat IPC: 5.815 cumulative IPC: 5.297 (Simulation time: 00 hr 04 min 46 sec)
[DUEL] Epoch ended. INSTR misses = 0, DATA misses = 8. Winner = INSTR
[DUEL] Epoch ended. INSTR misses = 5, DATA misses = 8. Winner = INSTR
[DUEL] Epoch ended. INSTR misses = 32, DATA misses = 41. Winner = INSTR
Heartbeat CPU 0 instructions: 130000002 cycles: 24233362 heartbeat IPC: 4.664 cumulative IPC: 5.226 (Simulation time: 00 hr 05 min 13 sec)
Simulation finished CPU 0 instructions: 100000001 cycles: 19134972 cumulative IPC: 5.226 (Simulation time: 00 hr 05 min 13 sec)
Simulation complete CPU 0 instructions: 100000001 cycles: 19134972 cumulative IPC: 5.226 (Simulation time: 00 hr 05 min 13 sec)

ChampSim completed all CPUs

=== Simulation ===
CPU 0 runs ../traces/secret_traces/crypto/crypto67.champsimtrace.xz
Region of Interest Statistics

CPU 0 cumulative IPC: 5.226 instructions: 100000001 cycles: 19134972
CPU 0 Branch Prediction Accuracy: 99.49% MPKI: 0.5572 Average ROB Occupancy at Mispredict: 31.98
Branch type MPKI
BRANCH_DIRECT_JUMP: 0.0294
BRANCH_INDIRECT: 0.273
BRANCH_CONDITIONAL: 0.11
BRANCH_DIRECT_CALL: 0.0859
BRANCH_INDIRECT_CALL: 0.0111
BRANCH_RETURN: 0.047

LLC TOTAL        ACCESS:     230250 HIT:     158184 MISS:      72066
LLC LOAD         ACCESS:      24014 HIT:      11991 MISS:      12023
LLC RFO          ACCESS:      70217 HIT:      51096 MISS:      19121
LLC PREFETCH     ACCESS:      57006 HIT:      29076 MISS:      27930
LLC WRITE        ACCESS:      77670 HIT:      65787 MISS:      11883
LLC TRANSLATION  ACCESS:       1343 HIT:        234 MISS:       1109
LLC PREFETCH REQUESTED:          0 ISSUED:          0 USEFUL:          0 USELESS:          0
LLC AVERAGE MISS LATENCY: 162.5 cycles
cpu0_DTLB TOTAL        ACCESS:   12328212 HIT:   12305868 MISS:      22344
cpu0_DTLB LOAD         ACCESS:   12328212 HIT:   12305868 MISS:      22344
cpu0_DTLB RFO          ACCESS:          0 HIT:          0 MISS:          0
cpu0_DTLB PREFETCH     ACCESS:          0 HIT:          0 MISS:          0
cpu0_DTLB WRITE        ACCESS:          0 HIT:          0 MISS:          0
cpu0_DTLB TRANSLATION  ACCESS:          0 HIT:          0 MISS:          0
cpu0_DTLB PREFETCH REQUESTED:          0 ISSUED:          0 USEFUL:          0 USELESS:          0
cpu0_DTLB AVERAGE MISS LATENCY: 10.87 cycles
cpu0_ITLB TOTAL        ACCESS:     389690 HIT:     381316 MISS:       8374
cpu0_ITLB LOAD         ACCESS:     389690 HIT:     381316 MISS:       8374
cpu0_ITLB RFO          ACCESS:          0 HIT:          0 MISS:          0
cpu0_ITLB PREFETCH     ACCESS:          0 HIT:          0 MISS:          0
cpu0_ITLB WRITE        ACCESS:          0 HIT:          0 MISS:          0
cpu0_ITLB TRANSLATION  ACCESS:          0 HIT:          0 MISS:          0
cpu0_ITLB PREFETCH REQUESTED:          0 ISSUED:          0 USEFUL:          0 USELESS:          0
cpu0_ITLB AVERAGE MISS LATENCY: 20.44 cycles
cpu0_L1D TOTAL        ACCESS:   18050750 HIT:   17726203 MISS:     324547
cpu0_L1D LOAD         ACCESS:   12089349 HIT:   12003780 MISS:      85569
cpu0_L1D RFO          ACCESS:          0 HIT:          0 MISS:          0
cpu0_L1D PREFETCH     ACCESS:     275769 HIT:     225794 MISS:      49975
cpu0_L1D WRITE        ACCESS:    5682792 HIT:    5495579 MISS:     187213
cpu0_L1D TRANSLATION  ACCESS:       2840 HIT:       1050 MISS:       1790
cpu0_L1D PREFETCH REQUESTED:    2124491 ISSUED:     275769 USEFUL:       6130 USELESS:        832
cpu0_L1D AVERAGE MISS LATENCY: 32.2 cycles
cpu0_L1I TOTAL        ACCESS:     566957 HIT:     468973 MISS:      97984
cpu0_L1I LOAD         ACCESS:     187089 HIT:     162547 MISS:      24542
cpu0_L1I RFO          ACCESS:          0 HIT:          0 MISS:          0
cpu0_L1I PREFETCH     ACCESS:     379868 HIT:     306426 MISS:      73442
cpu0_L1I WRITE        ACCESS:          0 HIT:          0 MISS:          0
cpu0_L1I TRANSLATION  ACCESS:          0 HIT:          0 MISS:          0
cpu0_L1I PREFETCH REQUESTED:     591465 ISSUED:     379868 USEFUL:      39396 USELESS:      30314
cpu0_L1I AVERAGE MISS LATENCY: 30.14 cycles
cpu0_L2C TOTAL        ACCESS:     528412 HIT:     328318 MISS:     200094
cpu0_L2C LOAD         ACCESS:      71957 HIT:      42108 MISS:      29849
cpu0_L2C RFO          ACCESS:      77505 HIT:       7265 MISS:      70240
cpu0_L2C PREFETCH     ACCESS:     288652 HIT:     189990 MISS:      98662
cpu0_L2C WRITE        ACCESS:      88563 HIT:      88563 MISS:          0
cpu0_L2C TRANSLATION  ACCESS:       1735 HIT:        392 MISS:       1343
cpu0_L2C PREFETCH REQUESTED:     182784 ISSUED:     177825 USEFUL:      15342 USELESS:      13609
cpu0_L2C AVERAGE MISS LATENCY: 71.53 cycles
cpu0_STLB TOTAL        ACCESS:      13722 HIT:      11135 MISS:       2587
cpu0_STLB LOAD         ACCESS:      13722 HIT:      11135 MISS:       2587
cpu0_STLB RFO          ACCESS:          0 HIT:          0 MISS:          0
cpu0_STLB PREFETCH     ACCESS:          0 HIT:          0 MISS:          0
cpu0_STLB WRITE        ACCESS:          0 HIT:          0 MISS:          0
cpu0_STLB TRANSLATION  ACCESS:          0 HIT:          0 MISS:          0
cpu0_STLB PREFETCH REQUESTED:          0 ISSUED:          0 USEFUL:          0 USELESS:          0
cpu0_STLB AVERAGE MISS LATENCY: 136.8 cycles

DRAM Statistics

Channel 0 RQ ROW_BUFFER_HIT:      14753
  ROW_BUFFER_MISS:      15894
 AVG DBUS CONGESTED CYCLE: 3.901
WQ ROW_BUFFER_HIT: Channel 0 
  ROW_BUFFER_MISS:       1248
  FULL:       8858

Channel 1 RQ ROW_BUFFER_HIT:      14042
  ROW_BUFFER_MISS:      15475
 AVG DBUS CONGESTED CYCLE: 3.883
WQ ROW_BUFFER_HIT: Channel 1 
  ROW_BUFFER_MISS:       1190
  FULL:       8376
BERTI TO_L1: 829049 TO_L2: 1798259 TO_L2_BC_MSHR: 1071588
BERTI AVG_LAT: 63.6871 NUM_TRACK_LATENCY: 94195 NUM_CANT_TRACK_LATENCY: 0
BERTI CROSS_PAGE 535904 NO_CROSS_PAGE: 2091404
BERTI FOUND_BERTI: 497048 NO_FOUND_BERTI: 15434846
BERTI AVERAGE_ISSUED: 4.14985
CPU 0 L1I Entangling prefetcher final stats
IP accesses: 77e1 1df840 808 / 187397
IP misses: 25bf 96fc0 89 / 24850
IP hits: 0 0 0 / 0
IP late: 4e9e 13a780 42 / 11981
IP wrong: 251e 94780 112 / 30130
miss rate: 0.132607
coverage: 0
coverage_late: 0.482133
accuracy: 0
accuracy_late: 0.28451
discarded: 0
evicts entangled j table: 0
evicts entangled k table: 3955
max bb size: 53
formats: 978 0 3519 1872 746 1631 0 
hist_lookups: 3286 3489 2496 2246 2041 1710 1244 946 704 559 396 297 200 101 59 0 6 4062 
hist_lookups_evict: 0.0251657 %
hist_lookups_shortlat: 17.0372 %
bb_found_hist: 0 46070 19261 9859 4256 2356 998 718 276 48 13 70 60 46 15 20 2 4 0 0 0 2 0 0 0 0 0 0 0 0 0 2 0 0 2 0 0 0 0 0 0 0 0 0 0 0 0 0 0 0 0 0 0 2 0 0 0 0 0 0 0 0 0 0 
bb_found_summary: 159733 84080 1.89978
entangled_found_hist: 0 25222 17626 34773 5616 1093 156 0 
entangled_found_summary: 193658 84486 2.2922
bb_ent_found_hist: 0 63715 29693 19984 7731 5604 2239 1040 1013 30 50 93 68 18 33 100 131 2 0 0 0 5 0 0 0 0 0 0 0 0 0 2 0 0 3 0 0 0 0 0 0 0 0 0 0 0 0 0 0 0 0 0 0 2 0 0 0 0 0 0 0 0 0 0 
bb_ent_found_summary: 278125 131556 2.11412
