WARNING: physical memory size is smaller than virtual memory size.

*** ChampSim Multicore Out-of-Order Simulator ***
Warmup Instructions: 30000000
Simulation Instructions: 100000000
Number of CPUs: 1
Page size: 4096

BTB:
Basic BTB sets: 1024 ways: 8
Indirect:
history lengths: 0 0 10 16 27 44 60 96 109 219 449 487 714 1313 2146 3881 
ITTAGE tables: 64768 bytes;Region table: 240 bytes;IUM: 384 bytes;Total Storage= 65392 bytes;
RAS:
RAS size: 64
[LLC] INSTR Demand IPV: 1 2 2 1 4 Prefetch IPV: 1 2 1 1 4
[LLC] DATA  Demand IPV: 1 1 1 2 4 Prefetch IPV: 1 1 2 2 4
Berti Prefetcher
CPU 0 Entangling prefetcher
Off-chip DRAM Size: 8 GiB Channels: 2 Width: 64-bit Data Race: 6400 MT/s
[DUEL] Epoch ended. INSTR misses = 53, DATA misses = 45. Winner = DATA
[DUEL] Epoch ended. INSTR misses = 16, DATA misses = 16. Winner = INSTR
[DUEL] Epoch ended. INSTR misses = 1, DATA misses = 0. Winner = DATA
[DUEL] Epoch ended. INSTR misses = 0, DATA misses = 0. Winner = INSTR
[DUEL] Epoch ended. INSTR misses = 0, DATA misses = 0. Winner = INSTR
[DUEL] Epoch ended. INSTR misses = 0, DATA misses = 0. Winner = INSTR
[DUEL] Epoch ended. INSTR misses = 0, DATA misses = 0. Winner = INSTR
[DUEL] Epoch ended. INSTR misses = 0, DATA misses = 0. Winner = INSTR
[DUEL] Epoch ended. INSTR misses = 0, DATA misses = 0. Winner = INSTR
[DUEL] Epoch ended. INSTR misses = 5, DATA misses = 10. Winner = INSTR
[DUEL] Epoch ended. INSTR misses = 0, DATA misses = 0. Winner = INSTR
[DUEL] Epoch ended. INSTR misses = 8, DATA misses = 1. Winner = DATA
[DUEL] Epoch ended. INSTR misses = 16, DATA misses = 18. Winner = INSTR
Heartbeat CPU 0 instructions: 10000004 cycles: 1715480 heartbeat IPC: 5.829 cumulative IPC: 5.829 (Simulation time: 00 hr 00 min 19 sec)
[DUEL] Epoch ended. INSTR misses = 7, DATA misses = 2. Winner = DATA
[DUEL] Epoch ended. INSTR misses = 25, DATA misses = 32. Winner = INSTR
[DUEL] Epoch ended. INSTR misses = 88, DATA misses = 81. Winner = DATA
[DUEL] Epoch ended. INSTR misses = 36, DATA misses = 19. Winner = DATA
*** Reached end of trace: (0, "../traces/secret_traces/crypto/crypto43.champsimtrace.xz")
[DUEL] Epoch ended. INSTR misses = 3, DATA misses = 11. Winner = INSTR
[DUEL] Epoch ended. INSTR misses = 21, DATA misses = 16. Winner = DATA
[DUEL] Epoch ended. INSTR misses = 3, DATA misses = 0. Winner = DATA
Heartbeat CPU 0 instructions: 20000001 cycles: 3456505 heartbeat IPC: 5.744 cumulative IPC: 5.786 (Simulation time: 00 hr 00 min 39 sec)
[DUEL] Epoch ended. INSTR misses = 1, DATA misses = 0. Winner = DATA
[DUEL] Epoch ended. INSTR misses = 0, DATA misses = 0. Winner = INSTR
[DUEL] Epoch ended. INSTR misses = 0, DATA misses = 0. Winner = INSTR
[DUEL] Epoch ended. INSTR misses = 0, DATA misses = 0. Winner = INSTR
[DUEL] Epoch ended. INSTR misses = 1, DATA misses = 0. Winner = DATA
[DUEL] Epoch ended. INSTR misses = 0, DATA misses = 0. Winner = INSTR
[DUEL] Epoch ended. INSTR misses = 8, DATA misses = 2. Winner = DATA
[DUEL] Epoch ended. INSTR misses = 0, DATA misses = 0. Winner = INSTR
[DUEL] Epoch ended. INSTR misses = 1, DATA misses = 1. Winner = INSTR
[DUEL] Epoch ended. INSTR misses = 3, DATA misses = 5. Winner = INSTR
Heartbeat CPU 0 instructions: 30000004 cycles: 5152173 heartbeat IPC: 5.897 cumulative IPC: 5.823 (Simulation time: 00 hr 00 min 59 sec)
Warmup finished CPU 0 instructions: 30000004 cycles: 5152174 cumulative IPC: 5.823 (Simulation time: 00 hr 00 min 59 sec)
Warmup complete CPU 0 instructions: 30000004 cycles: 5152174 cumulative IPC: 5.823 (Simulation time: 00 hr 00 min 59 sec)
[DUEL] Epoch ended. INSTR misses = 3, DATA misses = 2. Winner = DATA
[DUEL] Epoch ended. INSTR misses = 5, DATA misses = 3. Winner = DATA
[DUEL] Epoch ended. INSTR misses = 53, DATA misses = 36. Winner = DATA
[DUEL] Epoch ended. INSTR misses = 17, DATA misses = 5. Winner = DATA
*** Reached end of trace: (0, "../traces/secret_traces/crypto/crypto43.champsimtrace.xz")
[DUEL] Epoch ended. INSTR misses = 9, DATA misses = 7. Winner = DATA
[DUEL] Epoch ended. INSTR misses = 12, DATA misses = 8. Winner = DATA
[DUEL] Epoch ended. INSTR misses = 0, DATA misses = 0. Winner = INSTR
[DUEL] Epoch ended. INSTR misses = 1, DATA misses = 0. Winner = DATA
[DUEL] Epoch ended. INSTR misses = 0, DATA misses = 0. Winner = INSTR
[DUEL] Epoch ended. INSTR misses = 0, DATA misses = 0. Winner = INSTR
[DUEL] Epoch ended. INSTR misses = 0, DATA misses = 0. Winner = INSTR
Heartbeat CPU 0 instructions: 40000001 cycles: 9206492 heartbeat IPC: 2.467 cumulative IPC: 2.467 (Simulation time: 00 hr 01 min 38 sec)
[DUEL] Epoch ended. INSTR misses = 1, DATA misses = 0. Winner = DATA
[DUEL] Epoch ended. INSTR misses = 0, DATA misses = 0. Winner = INSTR
[DUEL] Epoch ended. INSTR misses = 4, DATA misses = 2. Winner = DATA
[DUEL] Epoch ended. INSTR misses = 0, DATA misses = 0. Winner = INSTR
[DUEL] Epoch ended. INSTR misses = 2, DATA misses = 0. Winner = DATA
[DUEL] Epoch ended. INSTR misses = 2, DATA misses = 3. Winner = INSTR
Heartbeat CPU 0 instructions: 50000002 cycles: 12797660 heartbeat IPC: 2.785 cumulative IPC: 2.616 (Simulation time: 00 hr 02 min 16 sec)
[DUEL] Epoch ended. INSTR misses = 3, DATA misses = 2. Winner = DATA
[DUEL] Epoch ended. INSTR misses = 5, DATA misses = 1. Winner = DATA
[DUEL] Epoch ended. INSTR misses = 48, DATA misses = 31. Winner = DATA
[DUEL] Epoch ended. INSTR misses = 12, DATA misses = 3. Winner = DATA
*** Reached end of trace: (0, "../traces/secret_traces/crypto/crypto43.champsimtrace.xz")
[DUEL] Epoch ended. INSTR misses = 9, DATA misses = 8. Winner = DATA
[DUEL] Epoch ended. INSTR misses = 12, DATA misses = 8. Winner = DATA
[DUEL] Epoch ended. INSTR misses = 0, DATA misses = 0. Winner = INSTR
[DUEL] Epoch ended. INSTR misses = 1, DATA misses = 0. Winner = DATA
[DUEL] Epoch ended. INSTR misses = 0, DATA misses = 0. Winner = INSTR
[DUEL] Epoch ended. INSTR misses = 0, DATA misses = 0. Winner = INSTR
[DUEL] Epoch ended. INSTR misses = 0, DATA misses = 0. Winner = INSTR
[DUEL] Epoch ended. INSTR misses = 1, DATA misses = 0. Winner = DATA
[DUEL] Epoch ended. INSTR misses = 0, DATA misses = 0. Winner = INSTR
[DUEL] Epoch ended. INSTR misses = 4, DATA misses = 3. Winner = DATA
Heartbeat CPU 0 instructions: 60000008 cycles: 16572494 heartbeat IPC: 2.649 cumulative IPC: 2.627 (Simulation time: 00 hr 02 min 54 sec)
[DUEL] Epoch ended. INSTR misses = 1, DATA misses = 0. Winner = DATA
[DUEL] Epoch ended. INSTR misses = 4, DATA misses = 0. Winner = DATA
[DUEL] Epoch ended. INSTR misses = 2, DATA misses = 2. Winner = INSTR
Heartbeat CPU 0 instructions: 70000006 cycles: 20222236 heartbeat IPC: 2.74 cumulative IPC: 2.654 (Simulation time: 00 hr 03 min 33 sec)
[DUEL] Epoch ended. INSTR misses = 5, DATA misses = 2. Winner = DATA
[DUEL] Epoch ended. INSTR misses = 2, DATA misses = 2. Winner = INSTR
[DUEL] Epoch ended. INSTR misses = 44, DATA misses = 30. Winner = DATA
[DUEL] Epoch ended. INSTR misses = 10, DATA misses = 2. Winner = DATA
*** Reached end of trace: (0, "../traces/secret_traces/crypto/crypto43.champsimtrace.xz")
[DUEL] Epoch ended. INSTR misses = 8, DATA misses = 4. Winner = DATA
[DUEL] Epoch ended. INSTR misses = 10, DATA misses = 8. Winner = DATA
[DUEL] Epoch ended. INSTR misses = 0, DATA misses = 1. Winner = INSTR
[DUEL] Epoch ended. INSTR misses = 1, DATA misses = 0. Winner = DATA
[DUEL] Epoch ended. INSTR misses = 0, DATA misses = 0. Winner = INSTR
[DUEL] Epoch ended. INSTR misses = 0, DATA misses = 0. Winner = INSTR
[DUEL] Epoch ended. INSTR misses = 0, DATA misses = 0. Winner = INSTR
[DUEL] Epoch ended. INSTR misses = 0, DATA misses = 0. Winner = INSTR
[DUEL] Epoch ended. INSTR misses = 0, DATA misses = 0. Winner = INSTR
[DUEL] Epoch ended. INSTR misses = 3, DATA misses = 2. Winner = DATA
[DUEL] Epoch ended. INSTR misses = 1, DATA misses = 0. Winner = DATA
[DUEL] Epoch ended. INSTR misses = 3, DATA misses = 0. Winner = DATA
Heartbeat CPU 0 instructions: 80000002 cycles: 24016932 heartbeat IPC: 2.635 cumulative IPC: 2.65 (Simulation time: 00 hr 04 min 11 sec)
[DUEL] Epoch ended. INSTR misses = 2, DATA misses = 2. Winner = INSTR
Heartbeat CPU 0 instructions: 90000010 cycles: 27682036 heartbeat IPC: 2.728 cumulative IPC: 2.663 (Simulation time: 00 hr 04 min 49 sec)
[DUEL] Epoch ended. INSTR misses = 3, DATA misses = 1. Winner = DATA
[DUEL] Epoch ended. INSTR misses = 2, DATA misses = 2. Winner = INSTR
[DUEL] Epoch ended. INSTR misses = 40, DATA misses = 30. Winner = DATA
[DUEL] Epoch ended. INSTR misses = 11, DATA misses = 2. Winner = DATA
*** Reached end of trace: (0, "../traces/secret_traces/crypto/crypto43.champsimtrace.xz")
[DUEL] Epoch ended. INSTR misses = 4, DATA misses = 3. Winner = DATA
[DUEL] Epoch ended. INSTR misses = 10, DATA misses = 7. Winner = DATA
[DUEL] Epoch ended. INSTR misses = 0, DATA misses = 0. Winner = INSTR
[DUEL] Epoch ended. INSTR misses = 1, DATA misses = 0. Winner = DATA
[DUEL] Epoch ended. INSTR misses = 0, DATA misses = 0. Winner = INSTR
[DUEL] Epoch ended. INSTR misses = 0, DATA misses = 0. Winner = INSTR
[DUEL] Epoch ended. INSTR misses = 0, DATA misses = 0. Winner = INSTR
[DUEL] Epoch ended. INSTR misses = 0, DATA misses = 0. Winner = INSTR
[DUEL] Epoch ended. INSTR misses = 0, DATA misses = 0. Winner = INSTR
[DUEL] Epoch ended. INSTR misses = 8, DATA misses = 3. Winner = DATA
[DUEL] Epoch ended. INSTR misses = 1, DATA misses = 0. Winner = DATA
[DUEL] Epoch ended. INSTR misses = 0, DATA misses = 0. Winner = INSTR
Heartbeat CPU 0 instructions: 100000000 cycles: 31428032 heartbeat IPC: 2.67 cumulative IPC: 2.664 (Simulation time: 00 hr 05 min 27 sec)
[DUEL] Epoch ended. INSTR misses = 2, DATA misses = 2. Winner = INSTR
Heartbeat CPU 0 instructions: 110000002 cycles: 35091608 heartbeat IPC: 2.73 cumulative IPC: 2.672 (Simulation time: 00 hr 06 min 06 sec)
[DUEL] Epoch ended. INSTR misses = 3, DATA misses = 1. Winner = DATA
[DUEL] Epoch ended. INSTR misses = 1, DATA misses = 2. Winner = INSTR
[DUEL] Epoch ended. INSTR misses = 38, DATA misses = 28. Winner = DATA
[DUEL] Epoch ended. INSTR misses = 10, DATA misses = 2. Winner = DATA
*** Reached end of trace: (0, "../traces/secret_traces/crypto/crypto43.champsimtrace.xz")
[DUEL] Epoch ended. INSTR misses = 6, DATA misses = 4. Winner = DATA
[DUEL] Epoch ended. INSTR misses = 9, DATA misses = 6. Winner = DATA
[DUEL] Epoch ended. INSTR misses = 0, DATA misses = 0. Winner = INSTR
[DUEL] Epoch ended. INSTR misses = 1, DATA misses = 0. Winner = DATA
[DUEL] Epoch ended. INSTR misses = 0, DATA misses = 0. Winner = INSTR
[DUEL] Epoch ended. INSTR misses = 0, DATA misses = 0. Winner = INSTR
[DUEL] Epoch ended. INSTR misses = 0, DATA misses = 0. Winner = INSTR
[DUEL] Epoch ended. INSTR misses = 0, DATA misses = 0. Winner = INSTR
[DUEL] Epoch ended. INSTR misses = 0, DATA misses = 0. Winner = INSTR
[DUEL] Epoch ended. INSTR misses = 4, DATA misses = 5. Winner = INSTR
[DUEL] Epoch ended. INSTR misses = 1, DATA misses = 0. Winner = DATA
[DUEL] Epoch ended. INSTR misses = 2, DATA misses = 0. Winner = DATA
Heartbeat CPU 0 instructions: 120000000 cycles: 38813873 heartbeat IPC: 2.687 cumulative IPC: 2.674 (Simulation time: 00 hr 06 min 44 sec)
[DUEL] Epoch ended. INSTR misses = 3, DATA misses = 2. Winner = DATA
Heartbeat CPU 0 instructions: 130000006 cycles: 42478094 heartbeat IPC: 2.729 cumulative IPC: 2.679 (Simulation time: 00 hr 07 min 22 sec)
Simulation finished CPU 0 instructions: 100000002 cycles: 37325921 cumulative IPC: 2.679 (Simulation time: 00 hr 07 min 22 sec)
Simulation complete CPU 0 instructions: 100000002 cycles: 37325921 cumulative IPC: 2.679 (Simulation time: 00 hr 07 min 22 sec)

ChampSim completed all CPUs

=== Simulation ===
CPU 0 runs ../traces/secret_traces/crypto/crypto43.champsimtrace.xz
Region of Interest Statistics

CPU 0 cumulative IPC: 2.679 instructions: 100000002 cycles: 37325921
CPU 0 Branch Prediction Accuracy: 98.76% MPKI: 1.195 Average ROB Occupancy at Mispredict: 34.54
Branch type MPKI
BRANCH_DIRECT_JUMP: 0.0718
BRANCH_INDIRECT: 0.637
BRANCH_CONDITIONAL: 0.138
BRANCH_DIRECT_CALL: 0.209
BRANCH_INDIRECT_CALL: 0.0256
BRANCH_RETURN: 0.113

LLC TOTAL        ACCESS:     571409 HIT:     418746 MISS:     152663
LLC LOAD         ACCESS:      57791 HIT:      31789 MISS:      26002
LLC RFO          ACCESS:     176291 HIT:     142742 MISS:      33549
LLC PREFETCH     ACCESS:     139591 HIT:      72078 MISS:      67513
LLC WRITE        ACCESS:     194356 HIT:     171191 MISS:      23165
LLC TRANSLATION  ACCESS:       3380 HIT:        946 MISS:       2434
LLC PREFETCH REQUESTED:          0 ISSUED:          0 USEFUL:          0 USELESS:          0
LLC AVERAGE MISS LATENCY: 155.7 cycles
cpu0_DTLB TOTAL        ACCESS:   11205881 HIT:   11149884 MISS:      55997
cpu0_DTLB LOAD         ACCESS:   11205881 HIT:   11149884 MISS:      55997
cpu0_DTLB RFO          ACCESS:          0 HIT:          0 MISS:          0
cpu0_DTLB PREFETCH     ACCESS:          0 HIT:          0 MISS:          0
cpu0_DTLB WRITE        ACCESS:          0 HIT:          0 MISS:          0
cpu0_DTLB TRANSLATION  ACCESS:          0 HIT:          0 MISS:          0
cpu0_DTLB PREFETCH REQUESTED:          0 ISSUED:          0 USEFUL:          0 USELESS:          0
cpu0_DTLB AVERAGE MISS LATENCY: 9.46 cycles
cpu0_ITLB TOTAL        ACCESS:     950179 HIT:     931112 MISS:      19067
cpu0_ITLB LOAD         ACCESS:     950179 HIT:     931112 MISS:      19067
cpu0_ITLB RFO          ACCESS:          0 HIT:          0 MISS:          0
cpu0_ITLB PREFETCH     ACCESS:          0 HIT:          0 MISS:          0
cpu0_ITLB WRITE        ACCESS:          0 HIT:          0 MISS:          0
cpu0_ITLB TRANSLATION  ACCESS:          0 HIT:          0 MISS:          0
cpu0_ITLB PREFETCH REQUESTED:          0 ISSUED:          0 USEFUL:          0 USELESS:          0
cpu0_ITLB AVERAGE MISS LATENCY: 18.41 cycles
cpu0_L1D TOTAL        ACCESS:   15717965 HIT:   14899930 MISS:     818035
cpu0_L1D LOAD         ACCESS:    8630841 HIT:    8419070 MISS:     211771
cpu0_L1D RFO          ACCESS:          0 HIT:          0 MISS:          0
cpu0_L1D PREFETCH     ACCESS:     704549 HIT:     570534 MISS:     134015
cpu0_L1D WRITE        ACCESS:    6375679 HIT:    5907866 MISS:     467813
cpu0_L1D TRANSLATION  ACCESS:       6896 HIT:       2460 MISS:       4436
cpu0_L1D PREFETCH REQUESTED:    4432946 ISSUED:     704549 USEFUL:      16904 USELESS:       1716
cpu0_L1D AVERAGE MISS LATENCY: 25.9 cycles
cpu0_L1I TOTAL        ACCESS:    1385506 HIT:    1163077 MISS:     222429
cpu0_L1I LOAD         ACCESS:     451776 HIT:     402048 MISS:      49728
cpu0_L1I RFO          ACCESS:          0 HIT:          0 MISS:          0
cpu0_L1I PREFETCH     ACCESS:     933730 HIT:     761029 MISS:     172701
cpu0_L1I WRITE        ACCESS:          0 HIT:          0 MISS:          0
cpu0_L1I TRANSLATION  ACCESS:          0 HIT:          0 MISS:          0
cpu0_L1I PREFETCH REQUESTED:    1502237 ISSUED:     933730 USEFUL:      97746 USELESS:      68147
cpu0_L1I AVERAGE MISS LATENCY: 33.84 cycles
cpu0_L2C TOTAL        ACCESS:    1288794 HIT:     799224 MISS:     489570
cpu0_L2C LOAD         ACCESS:     168441 HIT:      97153 MISS:      71288
cpu0_L2C RFO          ACCESS:     193483 HIT:      17113 MISS:     176370
cpu0_L2C PREFETCH     ACCESS:     701698 HIT:     463166 MISS:     238532
cpu0_L2C WRITE        ACCESS:     220863 HIT:     220863 MISS:          0
cpu0_L2C TRANSLATION  ACCESS:       4309 HIT:        929 MISS:       3380
cpu0_L2C PREFETCH REQUESTED:     443749 ISSUED:     426390 USEFUL:      35100 USELESS:      33315
cpu0_L2C AVERAGE MISS LATENCY: 61.95 cycles
cpu0_STLB TOTAL        ACCESS:      32914 HIT:      26635 MISS:       6279
cpu0_STLB LOAD         ACCESS:      32914 HIT:      26635 MISS:       6279
cpu0_STLB RFO          ACCESS:          0 HIT:          0 MISS:          0
cpu0_STLB PREFETCH     ACCESS:          0 HIT:          0 MISS:          0
cpu0_STLB WRITE        ACCESS:          0 HIT:          0 MISS:          0
cpu0_STLB TRANSLATION  ACCESS:          0 HIT:          0 MISS:          0
cpu0_STLB PREFETCH REQUESTED:          0 ISSUED:          0 USEFUL:          0 USELESS:          0
cpu0_STLB AVERAGE MISS LATENCY: 119.3 cycles

DRAM Statistics

Channel 0 RQ ROW_BUFFER_HIT:      31181
  ROW_BUFFER_MISS:      34873
 AVG DBUS CONGESTED CYCLE: 3.883
WQ ROW_BUFFER_HIT: Channel 0 
  ROW_BUFFER_MISS:       2443
  FULL:      15779

Channel 1 RQ ROW_BUFFER_HIT:      29862
  ROW_BUFFER_MISS:      33538
 AVG DBUS CONGESTED CYCLE: 3.864
WQ ROW_BUFFER_HIT: Channel 1 
  ROW_BUFFER_MISS:       2491
  FULL:      14662
BERTI TO_L1: 1748942 TO_L2: 3500880 TO_L2_BC_MSHR: 1955988
BERTI AVG_LAT: 63.0236 NUM_TRACK_LATENCY: 199165 NUM_CANT_TRACK_LATENCY: 0
BERTI CROSS_PAGE 1042770 NO_CROSS_PAGE: 4207052
BERTI FOUND_BERTI: 3459739 NO_FOUND_BERTI: 8289165
BERTI AVERAGE_ISSUED: 4.25627
CPU 0 L1I Entangling prefetcher final stats
IP accesses: 6f71 1bdc40 2298 / 453397
IP misses: 25bf 96fc0 198 / 51349
IP hits: 0 0 0 / 0
IP late: 20b7 82dc0 59 / 24673
IP wrong: f801 3e0040 159 / 67855
miss rate: 0.113254
coverage: 0
coverage_late: 0.480497
accuracy: 0
accuracy_late: 0.266655
discarded: 0
evicts entangled j table: 0
evicts entangled k table: 8691
max bb size: 53
formats: 2174 0 6884 3355 1305 2448 0 
hist_lookups: 5227 6057 4990 4695 4256 3482 2690 2007 1543 1206 948 648 431 259 112 0 9 7881 
hist_lookups_evict: 0.0193795 %
hist_lookups_shortlat: 16.97 %
bb_found_hist: 0 116248 49397 23620 11509 5261 2835 2173 647 133 8 140 150 124 35 0 5 0 0 0 0 10 0 0 0 0 0 0 0 0 0 5 5 0 5 0 0 0 0 0 0 0 0 0 0 0 0 0 0 0 0 0 0 5 0 0 0 0 0 0 0 0 0 0 
bb_found_summary: 403399 212315 1.90001
entangled_found_hist: 0 60636 47021 85391 16880 2489 781 0 
entangled_found_summary: 495502 213198 2.32415
bb_ent_found_hist: 0 167822 74524 49953 24149 12066 4539 3100 2105 91 0 299 190 46 20 0 5 0 0 0 0 29 0 0 0 0 0 0 0 0 0 10 5 0 10 0 0 0 0 0 0 0 0 0 0 0 0 0 0 0 0 0 0 12 0 0 0 0 0 0 0 0 0 0 
bb_ent_found_summary: 698830 338975 2.0616
