WARNING: physical memory size is smaller than virtual memory size.

*** ChampSim Multicore Out-of-Order Simulator ***
Warmup Instructions: 30000000
Simulation Instructions: 100000000
Number of CPUs: 1
Page size: 4096

BTB:
Basic BTB sets: 1024 ways: 8
Indirect:
history lengths: 0 0 10 16 27 44 60 96 109 219 449 487 714 1313 2146 3881 
ITTAGE tables: 64768 bytes;Region table: 240 bytes;IUM: 384 bytes;Total Storage= 65392 bytes;
RAS:
RAS size: 64
[LLC] INSTR Demand IPV: 1 2 2 1 4 Prefetch IPV: 1 2 1 1 4
[LLC] DATA  Demand IPV: 1 1 1 2 4 Prefetch IPV: 1 1 2 2 4
Berti Prefetcher
CPU 0 Entangling prefetcher
Off-chip DRAM Size: 8 GiB Channels: 2 Width: 64-bit Data Race: 6400 MT/s
[DUEL] Epoch ended. INSTR misses = 50, DATA misses = 50. Winner = INSTR
[DUEL] Epoch ended. INSTR misses = 19, DATA misses = 17. Winner = DATA
[DUEL] Epoch ended. INSTR misses = 0, DATA misses = 0. Winner = INSTR
[DUEL] Epoch ended. INSTR misses = 0, DATA misses = 0. Winner = INSTR
[DUEL] Epoch ended. INSTR misses = 0, DATA misses = 0. Winner = INSTR
[DUEL] Epoch ended. INSTR misses = 0, DATA misses = 0. Winner = INSTR
[DUEL] Epoch ended. INSTR misses = 16, DATA misses = 16. Winner = INSTR
[DUEL] Epoch ended. INSTR misses = 0, DATA misses = 0. Winner = INSTR
[DUEL] Epoch ended. INSTR misses = 0, DATA misses = 0. Winner = INSTR
[DUEL] Epoch ended. INSTR misses = 10, DATA misses = 9. Winner = DATA
[DUEL] Epoch ended. INSTR misses = 16, DATA misses = 16. Winner = INSTR
[DUEL] Epoch ended. INSTR misses = 18, DATA misses = 16. Winner = DATA
[DUEL] Epoch ended. INSTR misses = 0, DATA misses = 0. Winner = INSTR
[DUEL] Epoch ended. INSTR misses = 0, DATA misses = 1. Winner = INSTR
[DUEL] Epoch ended. INSTR misses = 16, DATA misses = 16. Winner = INSTR
Heartbeat CPU 0 instructions: 10000000 cycles: 1726461 heartbeat IPC: 5.792 cumulative IPC: 5.792 (Simulation time: 00 hr 00 min 20 sec)
[DUEL] Epoch ended. INSTR misses = 0, DATA misses = 0. Winner = INSTR
[DUEL] Epoch ended. INSTR misses = 0, DATA misses = 0. Winner = INSTR
[DUEL] Epoch ended. INSTR misses = 0, DATA misses = 0. Winner = INSTR
[DUEL] Epoch ended. INSTR misses = 0, DATA misses = 0. Winner = INSTR
[DUEL] Epoch ended. INSTR misses = 18, DATA misses = 17. Winner = DATA
[DUEL] Epoch ended. INSTR misses = 101, DATA misses = 92. Winner = DATA
[DUEL] Epoch ended. INSTR misses = 53, DATA misses = 36. Winner = DATA
[DUEL] Epoch ended. INSTR misses = 0, DATA misses = 0. Winner = INSTR
Heartbeat CPU 0 instructions: 20000004 cycles: 3458068 heartbeat IPC: 5.775 cumulative IPC: 5.784 (Simulation time: 00 hr 00 min 39 sec)
[DUEL] Epoch ended. INSTR misses = 20, DATA misses = 16. Winner = DATA
[DUEL] Epoch ended. INSTR misses = 0, DATA misses = 0. Winner = INSTR
[DUEL] Epoch ended. INSTR misses = 0, DATA misses = 0. Winner = INSTR
[DUEL] Epoch ended. INSTR misses = 0, DATA misses = 0. Winner = INSTR
[DUEL] Epoch ended. INSTR misses = 0, DATA misses = 0. Winner = INSTR
[DUEL] Epoch ended. INSTR misses = 0, DATA misses = 0. Winner = INSTR
Heartbeat CPU 0 instructions: 30000003 cycles: 5139788 heartbeat IPC: 5.946 cumulative IPC: 5.837 (Simulation time: 00 hr 00 min 58 sec)
Warmup finished CPU 0 instructions: 30000003 cycles: 5139789 cumulative IPC: 5.837 (Simulation time: 00 hr 00 min 58 sec)
Warmup complete CPU 0 instructions: 30000003 cycles: 5139789 cumulative IPC: 5.837 (Simulation time: 00 hr 00 min 58 sec)
[DUEL] Epoch ended. INSTR misses = 0, DATA misses = 0. Winner = INSTR
[DUEL] Epoch ended. INSTR misses = 0, DATA misses = 0. Winner = INSTR
[DUEL] Epoch ended. INSTR misses = 0, DATA misses = 0. Winner = INSTR
[DUEL] Epoch ended. INSTR misses = 9, DATA misses = 13. Winner = INSTR
[DUEL] Epoch ended. INSTR misses = 0, DATA misses = 0. Winner = INSTR
[DUEL] Epoch ended. INSTR misses = 0, DATA misses = 0. Winner = INSTR
Heartbeat CPU 0 instructions: 40000001 cycles: 6905187 heartbeat IPC: 5.664 cumulative IPC: 5.664 (Simulation time: 00 hr 01 min 19 sec)
[DUEL] Epoch ended. INSTR misses = 0, DATA misses = 0. Winner = INSTR
[DUEL] Epoch ended. INSTR misses = 0, DATA misses = 0. Winner = INSTR
Heartbeat CPU 0 instructions: 50000000 cycles: 8602694 heartbeat IPC: 5.891 cumulative IPC: 5.775 (Simulation time: 00 hr 01 min 39 sec)
[DUEL] Epoch ended. INSTR misses = 0, DATA misses = 0. Winner = INSTR
*** Reached end of trace: (0, "../traces/secret_traces/crypto/crypto39.champsimtrace.xz")
[DUEL] Epoch ended. INSTR misses = 6, DATA misses = 27. Winner = INSTR
[DUEL] Epoch ended. INSTR misses = 0, DATA misses = 1. Winner = INSTR
[DUEL] Epoch ended. INSTR misses = 0, DATA misses = 1. Winner = INSTR
[DUEL] Epoch ended. INSTR misses = 0, DATA misses = 0. Winner = INSTR
[DUEL] Epoch ended. INSTR misses = 0, DATA misses = 0. Winner = INSTR
[DUEL] Epoch ended. INSTR misses = 0, DATA misses = 0. Winner = INSTR
[DUEL] Epoch ended. INSTR misses = 0, DATA misses = 0. Winner = INSTR
[DUEL] Epoch ended. INSTR misses = 1, DATA misses = 3. Winner = INSTR
[DUEL] Epoch ended. INSTR misses = 0, DATA misses = 0. Winner = INSTR
[DUEL] Epoch ended. INSTR misses = 3, DATA misses = 1. Winner = DATA
[DUEL] Epoch ended. INSTR misses = 15, DATA misses = 17. Winner = INSTR
[DUEL] Epoch ended. INSTR misses = 5, DATA misses = 8. Winner = INSTR
[DUEL] Epoch ended. INSTR misses = 0, DATA misses = 0. Winner = INSTR
[DUEL] Epoch ended. INSTR misses = 0, DATA misses = 3. Winner = INSTR
Heartbeat CPU 0 instructions: 60000003 cycles: 11048762 heartbeat IPC: 4.088 cumulative IPC: 5.077 (Simulation time: 00 hr 02 min 04 sec)
[DUEL] Epoch ended. INSTR misses = 11, DATA misses = 9. Winner = DATA
[DUEL] Epoch ended. INSTR misses = 0, DATA misses = 0. Winner = INSTR
[DUEL] Epoch ended. INSTR misses = 0, DATA misses = 0. Winner = INSTR
[DUEL] Epoch ended. INSTR misses = 0, DATA misses = 0. Winner = INSTR
Heartbeat CPU 0 instructions: 70000000 cycles: 12820382 heartbeat IPC: 5.645 cumulative IPC: 5.208 (Simulation time: 00 hr 02 min 25 sec)
[DUEL] Epoch ended. INSTR misses = 0, DATA misses = 4. Winner = INSTR
[DUEL] Epoch ended. INSTR misses = 59, DATA misses = 56. Winner = DATA
[DUEL] Epoch ended. INSTR misses = 35, DATA misses = 30. Winner = DATA
[DUEL] Epoch ended. INSTR misses = 0, DATA misses = 0. Winner = INSTR
[DUEL] Epoch ended. INSTR misses = 13, DATA misses = 9. Winner = DATA
[DUEL] Epoch ended. INSTR misses = 0, DATA misses = 0. Winner = INSTR
Heartbeat CPU 0 instructions: 80000005 cycles: 15066139 heartbeat IPC: 4.453 cumulative IPC: 5.037 (Simulation time: 00 hr 02 min 49 sec)
[DUEL] Epoch ended. INSTR misses = 0, DATA misses = 0. Winner = INSTR
[DUEL] Epoch ended. INSTR misses = 0, DATA misses = 0. Winner = INSTR
[DUEL] Epoch ended. INSTR misses = 0, DATA misses = 0. Winner = INSTR
[DUEL] Epoch ended. INSTR misses = 0, DATA misses = 0. Winner = INSTR
[DUEL] Epoch ended. INSTR misses = 0, DATA misses = 0. Winner = INSTR
[DUEL] Epoch ended. INSTR misses = 5, DATA misses = 13. Winner = INSTR
Heartbeat CPU 0 instructions: 90000005 cycles: 16802229 heartbeat IPC: 5.76 cumulative IPC: 5.145 (Simulation time: 00 hr 03 min 10 sec)
[DUEL] Epoch ended. INSTR misses = 0, DATA misses = 0. Winner = INSTR
[DUEL] Epoch ended. INSTR misses = 0, DATA misses = 0. Winner = INSTR
[DUEL] Epoch ended. INSTR misses = 0, DATA misses = 0. Winner = INSTR
[DUEL] Epoch ended. INSTR misses = 0, DATA misses = 0. Winner = INSTR
[DUEL] Epoch ended. INSTR misses = 0, DATA misses = 0. Winner = INSTR
Heartbeat CPU 0 instructions: 100000005 cycles: 18498602 heartbeat IPC: 5.895 cumulative IPC: 5.24 (Simulation time: 00 hr 03 min 30 sec)
[DUEL] Epoch ended. INSTR misses = 0, DATA misses = 0. Winner = INSTR
[DUEL] Epoch ended. INSTR misses = 0, DATA misses = 0. Winner = INSTR
*** Reached end of trace: (0, "../traces/secret_traces/crypto/crypto39.champsimtrace.xz")
[DUEL] Epoch ended. INSTR misses = 3, DATA misses = 21. Winner = INSTR
[DUEL] Epoch ended. INSTR misses = 1, DATA misses = 1. Winner = INSTR
[DUEL] Epoch ended. INSTR misses = 0, DATA misses = 0. Winner = INSTR
[DUEL] Epoch ended. INSTR misses = 0, DATA misses = 0. Winner = INSTR
[DUEL] Epoch ended. INSTR misses = 0, DATA misses = 0. Winner = INSTR
[DUEL] Epoch ended. INSTR misses = 0, DATA misses = 0. Winner = INSTR
[DUEL] Epoch ended. INSTR misses = 0, DATA misses = 0. Winner = INSTR
[DUEL] Epoch ended. INSTR misses = 1, DATA misses = 0. Winner = DATA
[DUEL] Epoch ended. INSTR misses = 0, DATA misses = 0. Winner = INSTR
[DUEL] Epoch ended. INSTR misses = 2, DATA misses = 1. Winner = DATA
[DUEL] Epoch ended. INSTR misses = 15, DATA misses = 16. Winner = INSTR
Heartbeat CPU 0 instructions: 110000010 cycles: 20698643 heartbeat IPC: 4.545 cumulative IPC: 5.142 (Simulation time: 00 hr 03 min 54 sec)
[DUEL] Epoch ended. INSTR misses = 2, DATA misses = 5. Winner = INSTR
[DUEL] Epoch ended. INSTR misses = 0, DATA misses = 0. Winner = INSTR
[DUEL] Epoch ended. INSTR misses = 0, DATA misses = 0. Winner = INSTR
[DUEL] Epoch ended. INSTR misses = 11, DATA misses = 9. Winner = DATA
[DUEL] Epoch ended. INSTR misses = 0, DATA misses = 0. Winner = INSTR
Heartbeat CPU 0 instructions: 120000004 cycles: 22467673 heartbeat IPC: 5.653 cumulative IPC: 5.194 (Simulation time: 00 hr 04 min 14 sec)
[DUEL] Epoch ended. INSTR misses = 0, DATA misses = 0. Winner = INSTR
[DUEL] Epoch ended. INSTR misses = 0, DATA misses = 0. Winner = INSTR
[DUEL] Epoch ended. INSTR misses = 0, DATA misses = 3. Winner = INSTR
[DUEL] Epoch ended. INSTR misses = 54, DATA misses = 44. Winner = DATA
[DUEL] Epoch ended. INSTR misses = 33, DATA misses = 24. Winner = DATA
[DUEL] Epoch ended. INSTR misses = 3, DATA misses = 0. Winner = DATA
[DUEL] Epoch ended. INSTR misses = 6, DATA misses = 6. Winner = INSTR
[DUEL] Epoch ended. INSTR misses = 0, DATA misses = 0. Winner = INSTR
Heartbeat CPU 0 instructions: 130000009 cycles: 24657448 heartbeat IPC: 4.567 cumulative IPC: 5.124 (Simulation time: 00 hr 04 min 38 sec)
Simulation finished CPU 0 instructions: 100000006 cycles: 19517660 cumulative IPC: 5.124 (Simulation time: 00 hr 04 min 38 sec)
Simulation complete CPU 0 instructions: 100000006 cycles: 19517660 cumulative IPC: 5.124 (Simulation time: 00 hr 04 min 38 sec)

ChampSim completed all CPUs

=== Simulation ===
CPU 0 runs ../traces/secret_traces/crypto/crypto39.champsimtrace.xz
Region of Interest Statistics

CPU 0 cumulative IPC: 5.124 instructions: 100000006 cycles: 19517660
CPU 0 Branch Prediction Accuracy: 98.75% MPKI: 0.7163 Average ROB Occupancy at Mispredict: 28.58
Branch type MPKI
BRANCH_DIRECT_JUMP: 0.0342
BRANCH_INDIRECT: 0.353
BRANCH_CONDITIONAL: 0.172
BRANCH_DIRECT_CALL: 0.0964
BRANCH_INDIRECT_CALL: 0.0105
BRANCH_RETURN: 0.0503

LLC TOTAL        ACCESS:     232765 HIT:     160790 MISS:      71975
LLC LOAD         ACCESS:      24163 HIT:      13079 MISS:      11084
LLC RFO          ACCESS:      71219 HIT:      52041 MISS:      19178
LLC PREFETCH     ACCESS:      57879 HIT:      30411 MISS:      27468
LLC WRITE        ACCESS:      78178 HIT:      64985 MISS:      13193
LLC TRANSLATION  ACCESS:       1326 HIT:        274 MISS:       1052
LLC PREFETCH REQUESTED:          0 ISSUED:          0 USEFUL:          0 USELESS:          0
LLC AVERAGE MISS LATENCY: 168 cycles
cpu0_DTLB TOTAL        ACCESS:    8704991 HIT:    8682369 MISS:      22622
cpu0_DTLB LOAD         ACCESS:    8704991 HIT:    8682369 MISS:      22622
cpu0_DTLB RFO          ACCESS:          0 HIT:          0 MISS:          0
cpu0_DTLB PREFETCH     ACCESS:          0 HIT:          0 MISS:          0
cpu0_DTLB WRITE        ACCESS:          0 HIT:          0 MISS:          0
cpu0_DTLB TRANSLATION  ACCESS:          0 HIT:          0 MISS:          0
cpu0_DTLB PREFETCH REQUESTED:          0 ISSUED:          0 USEFUL:          0 USELESS:          0
cpu0_DTLB AVERAGE MISS LATENCY: 10.58 cycles
cpu0_ITLB TOTAL        ACCESS:    2475539 HIT:    2466194 MISS:       9345
cpu0_ITLB LOAD         ACCESS:    2475539 HIT:    2466194 MISS:       9345
cpu0_ITLB RFO          ACCESS:          0 HIT:          0 MISS:          0
cpu0_ITLB PREFETCH     ACCESS:          0 HIT:          0 MISS:          0
cpu0_ITLB WRITE        ACCESS:          0 HIT:          0 MISS:          0
cpu0_ITLB TRANSLATION  ACCESS:          0 HIT:          0 MISS:          0
cpu0_ITLB PREFETCH REQUESTED:          0 ISSUED:          0 USEFUL:          0 USELESS:          0
cpu0_ITLB AVERAGE MISS LATENCY: 17.97 cycles
cpu0_L1D TOTAL        ACCESS:   12198940 HIT:   11875610 MISS:     323330
cpu0_L1D LOAD         ACCESS:    6843962 HIT:    6757664 MISS:      86298
cpu0_L1D RFO          ACCESS:          0 HIT:          0 MISS:          0
cpu0_L1D PREFETCH     ACCESS:     633730 HIT:     585081 MISS:      48649
cpu0_L1D WRITE        ACCESS:    4718577 HIT:    4531888 MISS:     186689
cpu0_L1D TRANSLATION  ACCESS:       2671 HIT:        977 MISS:       1694
cpu0_L1D PREFETCH REQUESTED:    3096332 ISSUED:     633730 USEFUL:       6492 USELESS:        787
cpu0_L1D AVERAGE MISS LATENCY: 33.09 cycles
cpu0_L1I TOTAL        ACCESS:    3786262 HIT:    3652574 MISS:     133688
cpu0_L1I LOAD         ACCESS:    1186934 HIT:    1150208 MISS:      36726
cpu0_L1I RFO          ACCESS:          0 HIT:          0 MISS:          0
cpu0_L1I PREFETCH     ACCESS:    2599328 HIT:    2502366 MISS:      96962
cpu0_L1I WRITE        ACCESS:          0 HIT:          0 MISS:          0
cpu0_L1I TRANSLATION  ACCESS:          0 HIT:          0 MISS:          0
cpu0_L1I PREFETCH REQUESTED:    5982542 ISSUED:    2599356 USEFUL:      54760 USELESS:      37383
cpu0_L1I AVERAGE MISS LATENCY: 25.51 cycles
cpu0_L2C TOTAL        ACCESS:     584861 HIT:     383683 MISS:     201178
cpu0_L2C LOAD         ACCESS:      79993 HIT:      50300 MISS:      29693
cpu0_L2C RFO          ACCESS:      77658 HIT:       6403 MISS:      71255
cpu0_L2C PREFETCH     ACCESS:     336245 HIT:     237341 MISS:      98904
cpu0_L2C WRITE        ACCESS:      89312 HIT:      89312 MISS:          0
cpu0_L2C TRANSLATION  ACCESS:       1653 HIT:        327 MISS:       1326
cpu0_L2C PREFETCH REQUESTED:     211809 ISSUED:     204429 USEFUL:      15099 USELESS:      13740
cpu0_L2C AVERAGE MISS LATENCY: 73.26 cycles
cpu0_STLB TOTAL        ACCESS:      14573 HIT:      12107 MISS:       2466
cpu0_STLB LOAD         ACCESS:      14573 HIT:      12107 MISS:       2466
cpu0_STLB RFO          ACCESS:          0 HIT:          0 MISS:          0
cpu0_STLB PREFETCH     ACCESS:          0 HIT:          0 MISS:          0
cpu0_STLB WRITE        ACCESS:          0 HIT:          0 MISS:          0
cpu0_STLB TRANSLATION  ACCESS:          0 HIT:          0 MISS:          0
cpu0_STLB PREFETCH REQUESTED:          0 ISSUED:          0 USEFUL:          0 USELESS:          0
cpu0_STLB AVERAGE MISS LATENCY: 138.9 cycles

DRAM Statistics

Channel 0 RQ ROW_BUFFER_HIT:      14071
  ROW_BUFFER_MISS:      15661
 AVG DBUS CONGESTED CYCLE: 3.903
WQ ROW_BUFFER_HIT: Channel 0 
  ROW_BUFFER_MISS:       1343
  FULL:       9744

Channel 1 RQ ROW_BUFFER_HIT:      13667
  ROW_BUFFER_MISS:      15351
 AVG DBUS CONGESTED CYCLE: 3.894
WQ ROW_BUFFER_HIT: Channel 1 
  ROW_BUFFER_MISS:       1292
  FULL:       9076
BERTI TO_L1: 1952584 TO_L2: 2301131 TO_L2_BC_MSHR: 1083705
BERTI AVG_LAT: 62.669 NUM_TRACK_LATENCY: 95421 NUM_CANT_TRACK_LATENCY: 0
BERTI CROSS_PAGE 870786 NO_CROSS_PAGE: 3382929
BERTI FOUND_BERTI: 922798 NO_FOUND_BERTI: 8364176
BERTI AVERAGE_ISSUED: 4.64389
CPU 0 L1I Entangling prefetcher final stats
IP accesses: 5f3d 17cf40 28859 / 1187935
IP misses: 28d2 a3480 215 / 37727
IP hits: 0 0 0 / 0
IP late: 7b5e 1ed780 67 / 16591
IP wrong: 2b5e ad780 166 / 37167
miss rate: 0.0317585
coverage: 0
coverage_late: 0.439765
accuracy: 0
accuracy_late: 0.308624
discarded: 0
evicts entangled j table: 0
evicts entangled k table: 5188
max bb size: 56
formats: 1062 0 4606 2150 926 1923 0 
hist_lookups: 3793 4081 3193 2900 2592 2367 1915 1408 1075 761 545 360 240 124 50 0 9 5317 
hist_lookups_evict: 0.0292874 %
hist_lookups_shortlat: 17.3024 %
bb_found_hist: 0 143213 122034 57947 22242 65656 47392 5464 267 6010 392 15086 17 52 8811 20 4 16206 12647 0 0 2 1989 1872 3273 14426 1807 0 0 0 661 2 0 0 2 0 1905 0 0 0 0 0 0 0 0 0 0 0 0 30 0 0 0 2 0 0 30 0 0 0 0 0 0 0 
bb_found_summary: 2819644 549461 5.13166
entangled_found_hist: 0 110866 80904 194262 23256 3546 472 0 
entangled_found_summary: 969046 413306 2.34463
bb_ent_found_hist: 0 336358 149934 107563 39526 42990 54248 11037 665 28 483 1661 71 36 20337 127 134 0 8 0 0 6 0 0 4306 0 0 0 0 0 0 2 0 0 2 0 2666 0 0 0 0 0 0 0 0 0 0 0 0 64 0 0 0 2 0 0 112 0 0 0 0 0 0 0 
bb_ent_found_summary: 2262710 772366 2.92959
