WARNING: physical memory size is smaller than virtual memory size.

*** ChampSim Multicore Out-of-Order Simulator ***
Warmup Instructions: 30000000
Simulation Instructions: 100000000
Number of CPUs: 1
Page size: 4096

BTB:
Basic BTB sets: 1024 ways: 8
Indirect:
history lengths: 0 0 10 16 27 44 60 96 109 219 449 487 714 1313 2146 3881 
ITTAGE tables: 64768 bytes;Region table: 240 bytes;IUM: 384 bytes;Total Storage= 65392 bytes;
RAS:
RAS size: 64
[LLC] INSTR Demand IPV: 1 2 2 1 4 Prefetch IPV: 1 2 1 1 4
[LLC] DATA  Demand IPV: 1 1 1 2 4 Prefetch IPV: 1 1 2 2 4
Berti Prefetcher
CPU 0 Entangling prefetcher
Off-chip DRAM Size: 8 GiB Channels: 2 Width: 64-bit Data Race: 6400 MT/s
[DUEL] Epoch ended. INSTR misses = 53, DATA misses = 60. Winner = INSTR
[DUEL] Epoch ended. INSTR misses = 20, DATA misses = 21. Winner = INSTR
[DUEL] Epoch ended. INSTR misses = 0, DATA misses = 0. Winner = INSTR
[DUEL] Epoch ended. INSTR misses = 0, DATA misses = 0. Winner = INSTR
[DUEL] Epoch ended. INSTR misses = 0, DATA misses = 0. Winner = INSTR
[DUEL] Epoch ended. INSTR misses = 0, DATA misses = 0. Winner = INSTR
[DUEL] Epoch ended. INSTR misses = 16, DATA misses = 16. Winner = INSTR
[DUEL] Epoch ended. INSTR misses = 0, DATA misses = 0. Winner = INSTR
[DUEL] Epoch ended. INSTR misses = 0, DATA misses = 3. Winner = INSTR
[DUEL] Epoch ended. INSTR misses = 6, DATA misses = 4. Winner = DATA
[DUEL] Epoch ended. INSTR misses = 0, DATA misses = 5. Winner = INSTR
[DUEL] Epoch ended. INSTR misses = 3, DATA misses = 0. Winner = DATA
[DUEL] Epoch ended. INSTR misses = 0, DATA misses = 0. Winner = INSTR
Heartbeat CPU 0 instructions: 10000002 cycles: 1715574 heartbeat IPC: 5.829 cumulative IPC: 5.829 (Simulation time: 00 hr 00 min 21 sec)
[DUEL] Epoch ended. INSTR misses = 0, DATA misses = 14. Winner = INSTR
[DUEL] Epoch ended. INSTR misses = 23, DATA misses = 20. Winner = DATA
[DUEL] Epoch ended. INSTR misses = 92, DATA misses = 87. Winner = DATA
Heartbeat CPU 0 instructions: 20000004 cycles: 3431715 heartbeat IPC: 5.827 cumulative IPC: 5.828 (Simulation time: 00 hr 00 min 43 sec)
[DUEL] Epoch ended. INSTR misses = 48, DATA misses = 59. Winner = INSTR
Heartbeat CPU 0 instructions: 30000000 cycles: 5098447 heartbeat IPC: 6 cumulative IPC: 5.884 (Simulation time: 00 hr 01 min 04 sec)
Warmup finished CPU 0 instructions: 30000000 cycles: 5098448 cumulative IPC: 5.884 (Simulation time: 00 hr 01 min 04 sec)
Warmup complete CPU 0 instructions: 30000000 cycles: 5098448 cumulative IPC: 5.884 (Simulation time: 00 hr 01 min 04 sec)
[DUEL] Epoch ended. INSTR misses = 0, DATA misses = 3. Winner = INSTR
[DUEL] Epoch ended. INSTR misses = 0, DATA misses = 0. Winner = INSTR
*** Reached end of trace: (0, "../traces/secret_traces/crypto/crypto48.champsimtrace.xz")
Heartbeat CPU 0 instructions: 40000001 cycles: 6916302 heartbeat IPC: 5.501 cumulative IPC: 5.501 (Simulation time: 00 hr 01 min 29 sec)
[DUEL] Epoch ended. INSTR misses = 5, DATA misses = 14. Winner = INSTR
[DUEL] Epoch ended. INSTR misses = 13, DATA misses = 20. Winner = INSTR
[DUEL] Epoch ended. INSTR misses = 1, DATA misses = 2. Winner = INSTR
[DUEL] Epoch ended. INSTR misses = 0, DATA misses = 0. Winner = INSTR
[DUEL] Epoch ended. INSTR misses = 0, DATA misses = 0. Winner = INSTR
[DUEL] Epoch ended. INSTR misses = 0, DATA misses = 0. Winner = INSTR
[DUEL] Epoch ended. INSTR misses = 0, DATA misses = 0. Winner = INSTR
[DUEL] Epoch ended. INSTR misses = 0, DATA misses = 0. Winner = INSTR
[DUEL] Epoch ended. INSTR misses = 0, DATA misses = 0. Winner = INSTR
[DUEL] Epoch ended. INSTR misses = 1, DATA misses = 3. Winner = INSTR
[DUEL] Epoch ended. INSTR misses = 0, DATA misses = 0. Winner = INSTR
[DUEL] Epoch ended. INSTR misses = 0, DATA misses = 5. Winner = INSTR
[DUEL] Epoch ended. INSTR misses = 4, DATA misses = 0. Winner = DATA
Heartbeat CPU 0 instructions: 50000004 cycles: 9230367 heartbeat IPC: 4.321 cumulative IPC: 4.84 (Simulation time: 00 hr 01 min 57 sec)
[DUEL] Epoch ended. INSTR misses = 0, DATA misses = 6. Winner = INSTR
[DUEL] Epoch ended. INSTR misses = 5, DATA misses = 6. Winner = INSTR
[DUEL] Epoch ended. INSTR misses = 31, DATA misses = 36. Winner = INSTR
Heartbeat CPU 0 instructions: 60000008 cycles: 11466132 heartbeat IPC: 4.473 cumulative IPC: 4.711 (Simulation time: 00 hr 02 min 25 sec)
[DUEL] Epoch ended. INSTR misses = 31, DATA misses = 38. Winner = INSTR
Heartbeat CPU 0 instructions: 70000010 cycles: 13146615 heartbeat IPC: 5.951 cumulative IPC: 4.97 (Simulation time: 00 hr 02 min 49 sec)
[DUEL] Epoch ended. INSTR misses = 0, DATA misses = 0. Winner = INSTR
[DUEL] Epoch ended. INSTR misses = 0, DATA misses = 0. Winner = INSTR
*** Reached end of trace: (0, "../traces/secret_traces/crypto/crypto48.champsimtrace.xz")
Heartbeat CPU 0 instructions: 80000004 cycles: 14897415 heartbeat IPC: 5.712 cumulative IPC: 5.103 (Simulation time: 00 hr 03 min 14 sec)
[DUEL] Epoch ended. INSTR misses = 4, DATA misses = 9. Winner = INSTR
[DUEL] Epoch ended. INSTR misses = 11, DATA misses = 17. Winner = INSTR
[DUEL] Epoch ended. INSTR misses = 1, DATA misses = 1. Winner = INSTR
[DUEL] Epoch ended. INSTR misses = 0, DATA misses = 0. Winner = INSTR
[DUEL] Epoch ended. INSTR misses = 0, DATA misses = 0. Winner = INSTR
[DUEL] Epoch ended. INSTR misses = 0, DATA misses = 0. Winner = INSTR
[DUEL] Epoch ended. INSTR misses = 0, DATA misses = 0. Winner = INSTR
[DUEL] Epoch ended. INSTR misses = 0, DATA misses = 0. Winner = INSTR
[DUEL] Epoch ended. INSTR misses = 0, DATA misses = 0. Winner = INSTR
[DUEL] Epoch ended. INSTR misses = 0, DATA misses = 3. Winner = INSTR
[DUEL] Epoch ended. INSTR misses = 0, DATA misses = 0. Winner = INSTR
[DUEL] Epoch ended. INSTR misses = 1, DATA misses = 6. Winner = INSTR
[DUEL] Epoch ended. INSTR misses = 2, DATA misses = 0. Winner = DATA
Heartbeat CPU 0 instructions: 90000005 cycles: 17051149 heartbeat IPC: 4.643 cumulative IPC: 5.02 (Simulation time: 00 hr 03 min 41 sec)
[DUEL] Epoch ended. INSTR misses = 0, DATA misses = 5. Winner = INSTR
[DUEL] Epoch ended. INSTR misses = 4, DATA misses = 3. Winner = DATA
[DUEL] Epoch ended. INSTR misses = 23, DATA misses = 29. Winner = INSTR
Heartbeat CPU 0 instructions: 100000009 cycles: 19246131 heartbeat IPC: 4.556 cumulative IPC: 4.948 (Simulation time: 00 hr 04 min 08 sec)
[DUEL] Epoch ended. INSTR misses = 27, DATA misses = 34. Winner = INSTR
Heartbeat CPU 0 instructions: 110000004 cycles: 20924370 heartbeat IPC: 5.959 cumulative IPC: 5.055 (Simulation time: 00 hr 04 min 33 sec)
[DUEL] Epoch ended. INSTR misses = 0, DATA misses = 0. Winner = INSTR
[DUEL] Epoch ended. INSTR misses = 0, DATA misses = 0. Winner = INSTR
*** Reached end of trace: (0, "../traces/secret_traces/crypto/crypto48.champsimtrace.xz")
Heartbeat CPU 0 instructions: 120000003 cycles: 22687684 heartbeat IPC: 5.671 cumulative IPC: 5.117 (Simulation time: 00 hr 04 min 58 sec)
[DUEL] Epoch ended. INSTR misses = 1, DATA misses = 8. Winner = INSTR
[DUEL] Epoch ended. INSTR misses = 10, DATA misses = 16. Winner = INSTR
[DUEL] Epoch ended. INSTR misses = 2, DATA misses = 1. Winner = DATA
[DUEL] Epoch ended. INSTR misses = 0, DATA misses = 0. Winner = INSTR
[DUEL] Epoch ended. INSTR misses = 0, DATA misses = 0. Winner = INSTR
[DUEL] Epoch ended. INSTR misses = 0, DATA misses = 0. Winner = INSTR
[DUEL] Epoch ended. INSTR misses = 0, DATA misses = 0. Winner = INSTR
[DUEL] Epoch ended. INSTR misses = 0, DATA misses = 0. Winner = INSTR
[DUEL] Epoch ended. INSTR misses = 0, DATA misses = 0. Winner = INSTR
[DUEL] Epoch ended. INSTR misses = 1, DATA misses = 3. Winner = INSTR
[DUEL] Epoch ended. INSTR misses = 0, DATA misses = 0. Winner = INSTR
[DUEL] Epoch ended. INSTR misses = 1, DATA misses = 4. Winner = INSTR
[DUEL] Epoch ended. INSTR misses = 2, DATA misses = 0. Winner = DATA
Heartbeat CPU 0 instructions: 130000006 cycles: 24809047 heartbeat IPC: 4.714 cumulative IPC: 5.073 (Simulation time: 00 hr 05 min 25 sec)
Simulation finished CPU 0 instructions: 100000006 cycles: 19710600 cumulative IPC: 5.073 (Simulation time: 00 hr 05 min 25 sec)
Simulation complete CPU 0 instructions: 100000006 cycles: 19710600 cumulative IPC: 5.073 (Simulation time: 00 hr 05 min 25 sec)

ChampSim completed all CPUs

=== Simulation ===
CPU 0 runs ../traces/secret_traces/crypto/crypto48.champsimtrace.xz
Region of Interest Statistics

CPU 0 cumulative IPC: 5.073 instructions: 100000006 cycles: 19710600
CPU 0 Branch Prediction Accuracy: 99.58% MPKI: 0.7147 Average ROB Occupancy at Mispredict: 32.44
Branch type MPKI
BRANCH_DIRECT_JUMP: 0.0381
BRANCH_INDIRECT: 0.359
BRANCH_CONDITIONAL: 0.13
BRANCH_DIRECT_CALL: 0.112
BRANCH_INDIRECT_CALL: 0.0149
BRANCH_RETURN: 0.0609

LLC TOTAL        ACCESS:     272291 HIT:     189264 MISS:      83027
LLC LOAD         ACCESS:      27725 HIT:      14622 MISS:      13103
LLC RFO          ACCESS:      80259 HIT:      59088 MISS:      21171
LLC PREFETCH     ACCESS:      69839 HIT:      35896 MISS:      33943
LLC WRITE        ACCESS:      92805 HIT:      79300 MISS:      13505
LLC TRANSLATION  ACCESS:       1663 HIT:        358 MISS:       1305
LLC PREFETCH REQUESTED:          0 ISSUED:          0 USEFUL:          0 USELESS:          0
LLC AVERAGE MISS LATENCY: 168.1 cycles
cpu0_DTLB TOTAL        ACCESS:   14074093 HIT:   14047775 MISS:      26318
cpu0_DTLB LOAD         ACCESS:   14074093 HIT:   14047775 MISS:      26318
cpu0_DTLB RFO          ACCESS:          0 HIT:          0 MISS:          0
cpu0_DTLB PREFETCH     ACCESS:          0 HIT:          0 MISS:          0
cpu0_DTLB WRITE        ACCESS:          0 HIT:          0 MISS:          0
cpu0_DTLB TRANSLATION  ACCESS:          0 HIT:          0 MISS:          0
cpu0_DTLB PREFETCH REQUESTED:          0 ISSUED:          0 USEFUL:          0 USELESS:          0
cpu0_DTLB AVERAGE MISS LATENCY: 10.85 cycles
cpu0_ITLB TOTAL        ACCESS:     493027 HIT:     483112 MISS:       9915
cpu0_ITLB LOAD         ACCESS:     493027 HIT:     483112 MISS:       9915
cpu0_ITLB RFO          ACCESS:          0 HIT:          0 MISS:          0
cpu0_ITLB PREFETCH     ACCESS:          0 HIT:          0 MISS:          0
cpu0_ITLB WRITE        ACCESS:          0 HIT:          0 MISS:          0
cpu0_ITLB TRANSLATION  ACCESS:          0 HIT:          0 MISS:          0
cpu0_ITLB PREFETCH REQUESTED:          0 ISSUED:          0 USEFUL:          0 USELESS:          0
cpu0_ITLB AVERAGE MISS LATENCY: 19.37 cycles
cpu0_L1D TOTAL        ACCESS:   23709655 HIT:   23323111 MISS:     386544
cpu0_L1D LOAD         ACCESS:   14593590 HIT:   14491221 MISS:     102369
cpu0_L1D RFO          ACCESS:          0 HIT:          0 MISS:          0
cpu0_L1D PREFETCH     ACCESS:     398322 HIT:     325738 MISS:      72584
cpu0_L1D WRITE        ACCESS:    8714325 HIT:    8504925 MISS:     209400
cpu0_L1D TRANSLATION  ACCESS:       3418 HIT:       1227 MISS:       2191
cpu0_L1D PREFETCH REQUESTED:    2691109 ISSUED:     398322 USEFUL:       7450 USELESS:        830
cpu0_L1D AVERAGE MISS LATENCY: 31.33 cycles
cpu0_L1I TOTAL        ACCESS:     717076 HIT:     599837 MISS:     117239
cpu0_L1I LOAD         ACCESS:     235075 HIT:     207338 MISS:      27737
cpu0_L1I RFO          ACCESS:          0 HIT:          0 MISS:          0
cpu0_L1I PREFETCH     ACCESS:     482001 HIT:     392499 MISS:      89502
cpu0_L1I WRITE        ACCESS:          0 HIT:          0 MISS:          0
cpu0_L1I TRANSLATION  ACCESS:          0 HIT:          0 MISS:          0
cpu0_L1I PREFETCH REQUESTED:     741957 ISSUED:     482001 USEFUL:      49483 USELESS:      35872
cpu0_L1I AVERAGE MISS LATENCY: 31.27 cycles
cpu0_L2C TOTAL        ACCESS:     647138 HIT:     414116 MISS:     233022
cpu0_L2C LOAD         ACCESS:      84522 HIT:      50230 MISS:      34292
cpu0_L2C RFO          ACCESS:      88922 HIT:       8638 MISS:      80284
cpu0_L2C PREFETCH     ACCESS:     368761 HIT:     251978 MISS:     116783
cpu0_L2C WRITE        ACCESS:     102815 HIT:     102815 MISS:          0
cpu0_L2C TRANSLATION  ACCESS:       2118 HIT:        455 MISS:       1663
cpu0_L2C PREFETCH REQUESTED:     231367 ISSUED:     221916 USEFUL:      18825 USELESS:      15992
cpu0_L2C AVERAGE MISS LATENCY: 73.16 cycles
cpu0_STLB TOTAL        ACCESS:      16729 HIT:      13600 MISS:       3129
cpu0_STLB LOAD         ACCESS:      16729 HIT:      13600 MISS:       3129
cpu0_STLB RFO          ACCESS:          0 HIT:          0 MISS:          0
cpu0_STLB PREFETCH     ACCESS:          0 HIT:          0 MISS:          0
cpu0_STLB WRITE        ACCESS:          0 HIT:          0 MISS:          0
cpu0_STLB TRANSLATION  ACCESS:          0 HIT:          0 MISS:          0
cpu0_STLB PREFETCH REQUESTED:          0 ISSUED:          0 USEFUL:          0 USELESS:          0
cpu0_STLB AVERAGE MISS LATENCY: 129.1 cycles

DRAM Statistics

Channel 0 RQ ROW_BUFFER_HIT:      16268
  ROW_BUFFER_MISS:      18998
 AVG DBUS CONGESTED CYCLE: 3.903
WQ ROW_BUFFER_HIT: Channel 0 
  ROW_BUFFER_MISS:       1475
  FULL:      10760

Channel 1 RQ ROW_BUFFER_HIT:      15828
  ROW_BUFFER_MISS:      18406
 AVG DBUS CONGESTED CYCLE: 3.89
WQ ROW_BUFFER_HIT: Channel 1 
  ROW_BUFFER_MISS:       1492
  FULL:      10171
BERTI TO_L1: 1031768 TO_L2: 2148488 TO_L2_BC_MSHR: 1279408
BERTI AVG_LAT: 64.7523 NUM_TRACK_LATENCY: 106188 NUM_CANT_TRACK_LATENCY: 0
BERTI CROSS_PAGE 597709 NO_CROSS_PAGE: 2582547
BERTI FOUND_BERTI: 626722 NO_FOUND_BERTI: 19003977
BERTI AVERAGE_ISSUED: 4.11891
CPU 0 L1I Entangling prefetcher final stats
IP accesses: 6f71 1bdc40 1327 / 235546
IP misses: 25bf 96fc0 127 / 28208
IP hits: 0 0 0 / 0
IP late: 77e3 1df8c0 38 / 13714
IP wrong: f7ed 3dfb40 85 / 35716
miss rate: 0.119756
coverage: 0
coverage_late: 0.486175
accuracy: 0
accuracy_late: 0.277443
discarded: 0
evicts entangled j table: 0
evicts entangled k table: 4613
max bb size: 53
formats: 1213 0 4010 1915 881 1798 0 
hist_lookups: 3626 3884 2962 2582 2289 1890 1398 1067 770 622 462 336 204 141 59 0 9 4276 
hist_lookups_evict: 0.0338639 %
hist_lookups_shortlat: 16.0891 %
bb_found_hist: 0 59005 23613 12668 5696 2765 1170 910 320 70 2 85 66 46 19 26 3 0 0 0 0 6 0 0 0 0 0 0 0 0 0 3 0 0 3 0 0 0 0 0 0 0 0 0 0 0 0 0 0 0 0 0 0 3 0 0 0 0 0 0 0 0 0 0 
bb_found_summary: 200953 106479 1.88726
entangled_found_hist: 0 31049 22583 42574 8107 1378 322 0 
entangled_found_summary: 245187 106013 2.31281
bb_ent_found_hist: 0 84225 33749 24678 9502 7187 2630 1095 1136 27 0 208 96 18 14 170 152 0 0 0 0 44 0 0 0 0 0 0 0 0 0 3 0 0 5 0 0 0 0 0 0 0 0 0 0 0 0 0 0 0 0 0 0 3 0 0 0 0 0 0 0 0 0 0 
bb_ent_found_summary: 342674 164942 2.07755
