WARNING: physical memory size is smaller than virtual memory size.

*** ChampSim Multicore Out-of-Order Simulator ***
Warmup Instructions: 30000000
Simulation Instructions: 100000000
Number of CPUs: 1
Page size: 4096

BTB:
Basic BTB sets: 1024 ways: 8
Indirect:
history lengths: 0 0 10 16 27 44 60 96 109 219 449 487 714 1313 2146 3881 
ITTAGE tables: 64768 bytes;Region table: 240 bytes;IUM: 384 bytes;Total Storage= 65392 bytes;
RAS:
RAS size: 64
[LLC] INSTR Demand IPV: 1 2 2 1 4 Prefetch IPV: 1 2 1 1 4
[LLC] DATA  Demand IPV: 1 1 1 2 4 Prefetch IPV: 1 1 2 2 4
Berti Prefetcher
CPU 0 Entangling prefetcher
Off-chip DRAM Size: 8 GiB Channels: 2 Width: 64-bit Data Race: 6400 MT/s
[DUEL] Epoch ended. INSTR misses = 36, DATA misses = 41. Winner = INSTR
[DUEL] Epoch ended. INSTR misses = 16, DATA misses = 16. Winner = INSTR
[DUEL] Epoch ended. INSTR misses = 1, DATA misses = 0. Winner = DATA
[DUEL] Epoch ended. INSTR misses = 0, DATA misses = 0. Winner = INSTR
[DUEL] Epoch ended. INSTR misses = 0, DATA misses = 0. Winner = INSTR
[DUEL] Epoch ended. INSTR misses = 0, DATA misses = 0. Winner = INSTR
[DUEL] Epoch ended. INSTR misses = 0, DATA misses = 1. Winner = INSTR
[DUEL] Epoch ended. INSTR misses = 0, DATA misses = 0. Winner = INSTR
[DUEL] Epoch ended. INSTR misses = 0, DATA misses = 0. Winner = INSTR
[DUEL] Epoch ended. INSTR misses = 16, DATA misses = 18. Winner = INSTR
[DUEL] Epoch ended. INSTR misses = 1, DATA misses = 0. Winner = DATA
[DUEL] Epoch ended. INSTR misses = 8, DATA misses = 1. Winner = DATA
[DUEL] Epoch ended. INSTR misses = 16, DATA misses = 16. Winner = INSTR
Heartbeat CPU 0 instructions: 10000005 cycles: 1715449 heartbeat IPC: 5.829 cumulative IPC: 5.829 (Simulation time: 00 hr 00 min 20 sec)
[DUEL] Epoch ended. INSTR misses = 12, DATA misses = 4. Winner = DATA
[DUEL] Epoch ended. INSTR misses = 30, DATA misses = 38. Winner = INSTR
[DUEL] Epoch ended. INSTR misses = 90, DATA misses = 97. Winner = INSTR
Heartbeat CPU 0 instructions: 20000003 cycles: 3431820 heartbeat IPC: 5.826 cumulative IPC: 5.828 (Simulation time: 00 hr 00 min 39 sec)
[DUEL] Epoch ended. INSTR misses = 52, DATA misses = 47. Winner = DATA
*** Reached end of trace: (0, "../traces/secret_traces/crypto/crypto83.champsimtrace.xz")
[DUEL] Epoch ended. INSTR misses = 5, DATA misses = 9. Winner = INSTR
[DUEL] Epoch ended. INSTR misses = 13, DATA misses = 20. Winner = INSTR
[DUEL] Epoch ended. INSTR misses = 1, DATA misses = 0. Winner = DATA
[DUEL] Epoch ended. INSTR misses = 1, DATA misses = 0. Winner = DATA
[DUEL] Epoch ended. INSTR misses = 0, DATA misses = 0. Winner = INSTR
[DUEL] Epoch ended. INSTR misses = 0, DATA misses = 0. Winner = INSTR
[DUEL] Epoch ended. INSTR misses = 0, DATA misses = 0. Winner = INSTR
[DUEL] Epoch ended. INSTR misses = 0, DATA misses = 0. Winner = INSTR
[DUEL] Epoch ended. INSTR misses = 0, DATA misses = 0. Winner = INSTR
[DUEL] Epoch ended. INSTR misses = 1, DATA misses = 1. Winner = INSTR
[DUEL] Epoch ended. INSTR misses = 0, DATA misses = 0. Winner = INSTR
[DUEL] Epoch ended. INSTR misses = 4, DATA misses = 0. Winner = DATA
[DUEL] Epoch ended. INSTR misses = 3, DATA misses = 1. Winner = DATA
Heartbeat CPU 0 instructions: 30000003 cycles: 5151703 heartbeat IPC: 5.814 cumulative IPC: 5.823 (Simulation time: 00 hr 01 min 00 sec)
Warmup finished CPU 0 instructions: 30000003 cycles: 5151704 cumulative IPC: 5.823 (Simulation time: 00 hr 01 min 00 sec)
Warmup complete CPU 0 instructions: 30000003 cycles: 5151704 cumulative IPC: 5.823 (Simulation time: 00 hr 01 min 00 sec)
Heartbeat CPU 0 instructions: 40000004 cycles: 6818376 heartbeat IPC: 6 cumulative IPC: 6 (Simulation time: 00 hr 01 min 21 sec)
[DUEL] Epoch ended. INSTR misses = 8, DATA misses = 3. Winner = DATA
[DUEL] Epoch ended. INSTR misses = 9, DATA misses = 12. Winner = INSTR
[DUEL] Epoch ended. INSTR misses = 45, DATA misses = 52. Winner = INSTR
[DUEL] Epoch ended. INSTR misses = 31, DATA misses = 41. Winner = INSTR
*** Reached end of trace: (0, "../traces/secret_traces/crypto/crypto83.champsimtrace.xz")
[DUEL] Epoch ended. INSTR misses = 11, DATA misses = 14. Winner = INSTR
[DUEL] Epoch ended. INSTR misses = 7, DATA misses = 11. Winner = INSTR
[DUEL] Epoch ended. INSTR misses = 3, DATA misses = 1. Winner = DATA
[DUEL] Epoch ended. INSTR misses = 1, DATA misses = 0. Winner = DATA
[DUEL] Epoch ended. INSTR misses = 0, DATA misses = 0. Winner = INSTR
[DUEL] Epoch ended. INSTR misses = 0, DATA misses = 0. Winner = INSTR
[DUEL] Epoch ended. INSTR misses = 0, DATA misses = 0. Winner = INSTR
[DUEL] Epoch ended. INSTR misses = 0, DATA misses = 0. Winner = INSTR
Heartbeat CPU 0 instructions: 50000011 cycles: 9420145 heartbeat IPC: 3.844 cumulative IPC: 4.686 (Simulation time: 00 hr 01 min 49 sec)
[DUEL] Epoch ended. INSTR misses = 0, DATA misses = 0. Winner = INSTR
[DUEL] Epoch ended. INSTR misses = 0, DATA misses = 1. Winner = INSTR
[DUEL] Epoch ended. INSTR misses = 0, DATA misses = 0. Winner = INSTR
[DUEL] Epoch ended. INSTR misses = 5, DATA misses = 0. Winner = DATA
[DUEL] Epoch ended. INSTR misses = 2, DATA misses = 0. Winner = DATA
Heartbeat CPU 0 instructions: 60000009 cycles: 11321289 heartbeat IPC: 5.26 cumulative IPC: 4.863 (Simulation time: 00 hr 02 min 11 sec)
[DUEL] Epoch ended. INSTR misses = 8, DATA misses = 3. Winner = DATA
[DUEL] Epoch ended. INSTR misses = 5, DATA misses = 10. Winner = INSTR
[DUEL] Epoch ended. INSTR misses = 41, DATA misses = 46. Winner = INSTR
Heartbeat CPU 0 instructions: 70000001 cycles: 13455295 heartbeat IPC: 4.686 cumulative IPC: 4.817 (Simulation time: 00 hr 02 min 35 sec)
[DUEL] Epoch ended. INSTR misses = 30, DATA misses = 37. Winner = INSTR
*** Reached end of trace: (0, "../traces/secret_traces/crypto/crypto83.champsimtrace.xz")
[DUEL] Epoch ended. INSTR misses = 8, DATA misses = 10. Winner = INSTR
[DUEL] Epoch ended. INSTR misses = 3, DATA misses = 10. Winner = INSTR
[DUEL] Epoch ended. INSTR misses = 1, DATA misses = 0. Winner = DATA
[DUEL] Epoch ended. INSTR misses = 1, DATA misses = 0. Winner = DATA
[DUEL] Epoch ended. INSTR misses = 0, DATA misses = 0. Winner = INSTR
[DUEL] Epoch ended. INSTR misses = 0, DATA misses = 0. Winner = INSTR
[DUEL] Epoch ended. INSTR misses = 0, DATA misses = 0. Winner = INSTR
[DUEL] Epoch ended. INSTR misses = 0, DATA misses = 0. Winner = INSTR
[DUEL] Epoch ended. INSTR misses = 0, DATA misses = 0. Winner = INSTR
[DUEL] Epoch ended. INSTR misses = 0, DATA misses = 0. Winner = INSTR
[DUEL] Epoch ended. INSTR misses = 0, DATA misses = 0. Winner = INSTR
[DUEL] Epoch ended. INSTR misses = 4, DATA misses = 0. Winner = DATA
[DUEL] Epoch ended. INSTR misses = 3, DATA misses = 1. Winner = DATA
Heartbeat CPU 0 instructions: 80000001 cycles: 15651148 heartbeat IPC: 4.554 cumulative IPC: 4.762 (Simulation time: 00 hr 03 min 01 sec)
[DUEL] Epoch ended. INSTR misses = 8, DATA misses = 2. Winner = DATA
[DUEL] Epoch ended. INSTR misses = 5, DATA misses = 9. Winner = INSTR
Heartbeat CPU 0 instructions: 90000000 cycles: 17624890 heartbeat IPC: 5.067 cumulative IPC: 4.81 (Simulation time: 00 hr 03 min 24 sec)
[DUEL] Epoch ended. INSTR misses = 35, DATA misses = 47. Winner = INSTR
[DUEL] Epoch ended. INSTR misses = 27, DATA misses = 36. Winner = INSTR
*** Reached end of trace: (0, "../traces/secret_traces/crypto/crypto83.champsimtrace.xz")
[DUEL] Epoch ended. INSTR misses = 6, DATA misses = 10. Winner = INSTR
[DUEL] Epoch ended. INSTR misses = 3, DATA misses = 12. Winner = INSTR
[DUEL] Epoch ended. INSTR misses = 1, DATA misses = 0. Winner = DATA
[DUEL] Epoch ended. INSTR misses = 1, DATA misses = 0. Winner = DATA
[DUEL] Epoch ended. INSTR misses = 0, DATA misses = 0. Winner = INSTR
[DUEL] Epoch ended. INSTR misses = 0, DATA misses = 0. Winner = INSTR
[DUEL] Epoch ended. INSTR misses = 0, DATA misses = 0. Winner = INSTR
[DUEL] Epoch ended. INSTR misses = 0, DATA misses = 0. Winner = INSTR
[DUEL] Epoch ended. INSTR misses = 0, DATA misses = 0. Winner = INSTR
[DUEL] Epoch ended. INSTR misses = 0, DATA misses = 0. Winner = INSTR
[DUEL] Epoch ended. INSTR misses = 0, DATA misses = 0. Winner = INSTR
[DUEL] Epoch ended. INSTR misses = 5, DATA misses = 0. Winner = DATA
Heartbeat CPU 0 instructions: 100000010 cycles: 19887859 heartbeat IPC: 4.419 cumulative IPC: 4.75 (Simulation time: 00 hr 03 min 50 sec)
[DUEL] Epoch ended. INSTR misses = 3, DATA misses = 1. Winner = DATA
Heartbeat CPU 0 instructions: 110000004 cycles: 21593315 heartbeat IPC: 5.864 cumulative IPC: 4.866 (Simulation time: 00 hr 04 min 12 sec)
[DUEL] Epoch ended. INSTR misses = 9, DATA misses = 4. Winner = DATA
[DUEL] Epoch ended. INSTR misses = 6, DATA misses = 9. Winner = INSTR
[DUEL] Epoch ended. INSTR misses = 37, DATA misses = 46. Winner = INSTR
[DUEL] Epoch ended. INSTR misses = 28, DATA misses = 36. Winner = INSTR
*** Reached end of trace: (0, "../traces/secret_traces/crypto/crypto83.champsimtrace.xz")
[DUEL] Epoch ended. INSTR misses = 6, DATA misses = 8. Winner = INSTR
Heartbeat CPU 0 instructions: 120000000 cycles: 23878256 heartbeat IPC: 4.376 cumulative IPC: 4.806 (Simulation time: 00 hr 04 min 37 sec)
[DUEL] Epoch ended. INSTR misses = 3, DATA misses = 13. Winner = INSTR
[DUEL] Epoch ended. INSTR misses = 1, DATA misses = 0. Winner = DATA
[DUEL] Epoch ended. INSTR misses = 1, DATA misses = 0. Winner = DATA
[DUEL] Epoch ended. INSTR misses = 0, DATA misses = 0. Winner = INSTR
[DUEL] Epoch ended. INSTR misses = 0, DATA misses = 0. Winner = INSTR
[DUEL] Epoch ended. INSTR misses = 0, DATA misses = 0. Winner = INSTR
[DUEL] Epoch ended. INSTR misses = 0, DATA misses = 0. Winner = INSTR
[DUEL] Epoch ended. INSTR misses = 0, DATA misses = 0. Winner = INSTR
[DUEL] Epoch ended. INSTR misses = 1, DATA misses = 0. Winner = DATA
[DUEL] Epoch ended. INSTR misses = 0, DATA misses = 0. Winner = INSTR
[DUEL] Epoch ended. INSTR misses = 5, DATA misses = 0. Winner = DATA
[DUEL] Epoch ended. INSTR misses = 5, DATA misses = 1. Winner = DATA
Heartbeat CPU 0 instructions: 130000001 cycles: 25848575 heartbeat IPC: 5.075 cumulative IPC: 4.832 (Simulation time: 00 hr 05 min 01 sec)
Simulation finished CPU 0 instructions: 100000010 cycles: 20696873 cumulative IPC: 4.832 (Simulation time: 00 hr 05 min 01 sec)
Simulation complete CPU 0 instructions: 100000010 cycles: 20696873 cumulative IPC: 4.832 (Simulation time: 00 hr 05 min 01 sec)

ChampSim completed all CPUs

=== Simulation ===
CPU 0 runs ../traces/secret_traces/crypto/crypto83.champsimtrace.xz
Region of Interest Statistics

CPU 0 cumulative IPC: 4.832 instructions: 100000010 cycles: 20696873
CPU 0 Branch Prediction Accuracy: 98.58% MPKI: 0.9674 Average ROB Occupancy at Mispredict: 33.63
Branch type MPKI
BRANCH_DIRECT_JUMP: 0.0576
BRANCH_INDIRECT: 0.513
BRANCH_CONDITIONAL: 0.119
BRANCH_DIRECT_CALL: 0.167
BRANCH_INDIRECT_CALL: 0.0201
BRANCH_RETURN: 0.0907

LLC TOTAL        ACCESS:     459953 HIT:     340504 MISS:     119449
LLC LOAD         ACCESS:      46149 HIT:      24254 MISS:      21895
LLC RFO          ACCESS:     141235 HIT:     115303 MISS:      25932
LLC PREFETCH     ACCESS:     112716 HIT:      60767 MISS:      51949
LLC WRITE        ACCESS:     157206 HIT:     139498 MISS:      17708
LLC TRANSLATION  ACCESS:       2647 HIT:        682 MISS:       1965
LLC PREFETCH REQUESTED:          0 ISSUED:          0 USEFUL:          0 USELESS:          0
LLC AVERAGE MISS LATENCY: 159 cycles
cpu0_DTLB TOTAL        ACCESS:   12186173 HIT:   12141249 MISS:      44924
cpu0_DTLB LOAD         ACCESS:   12186173 HIT:   12141249 MISS:      44924
cpu0_DTLB RFO          ACCESS:          0 HIT:          0 MISS:          0
cpu0_DTLB PREFETCH     ACCESS:          0 HIT:          0 MISS:          0
cpu0_DTLB WRITE        ACCESS:          0 HIT:          0 MISS:          0
cpu0_DTLB TRANSLATION  ACCESS:          0 HIT:          0 MISS:          0
cpu0_DTLB PREFETCH REQUESTED:          0 ISSUED:          0 USEFUL:          0 USELESS:          0
cpu0_DTLB AVERAGE MISS LATENCY: 9.216 cycles
cpu0_ITLB TOTAL        ACCESS:     763349 HIT:     748135 MISS:      15214
cpu0_ITLB LOAD         ACCESS:     763349 HIT:     748135 MISS:      15214
cpu0_ITLB RFO          ACCESS:          0 HIT:          0 MISS:          0
cpu0_ITLB PREFETCH     ACCESS:          0 HIT:          0 MISS:          0
cpu0_ITLB WRITE        ACCESS:          0 HIT:          0 MISS:          0
cpu0_ITLB TRANSLATION  ACCESS:          0 HIT:          0 MISS:          0
cpu0_ITLB PREFETCH REQUESTED:          0 ISSUED:          0 USEFUL:          0 USELESS:          0
cpu0_ITLB AVERAGE MISS LATENCY: 18.48 cycles
cpu0_L1D TOTAL        ACCESS:   15245268 HIT:   14585304 MISS:     659964
cpu0_L1D LOAD         ACCESS:   10548389 HIT:   10376870 MISS:     171519
cpu0_L1D RFO          ACCESS:          0 HIT:          0 MISS:          0
cpu0_L1D PREFETCH     ACCESS:     576540 HIT:     466480 MISS:     110060
cpu0_L1D WRITE        ACCESS:    4114975 HIT:    3740042 MISS:     374933
cpu0_L1D TRANSLATION  ACCESS:       5364 HIT:       1912 MISS:       3452
cpu0_L1D PREFETCH REQUESTED:    3917729 ISSUED:     576540 USEFUL:      12510 USELESS:       1421
cpu0_L1D AVERAGE MISS LATENCY: 26.25 cycles
cpu0_L1I TOTAL        ACCESS:    1112745 HIT:     934467 MISS:     178278
cpu0_L1I LOAD         ACCESS:     361135 HIT:     321165 MISS:      39970
cpu0_L1I RFO          ACCESS:          0 HIT:          0 MISS:          0
cpu0_L1I PREFETCH     ACCESS:     751610 HIT:     613302 MISS:     138308
cpu0_L1I WRITE        ACCESS:          0 HIT:          0 MISS:          0
cpu0_L1I TRANSLATION  ACCESS:          0 HIT:          0 MISS:          0
cpu0_L1I PREFETCH REQUESTED:    1201417 ISSUED:     751610 USEFUL:      78046 USELESS:      54607
cpu0_L1I AVERAGE MISS LATENCY: 31.25 cycles
cpu0_L2C TOTAL        ACCESS:    1040258 HIT:     645191 MISS:     395067
cpu0_L2C LOAD         ACCESS:     136453 HIT:      78396 MISS:      58057
cpu0_L2C RFO          ACCESS:     154976 HIT:      13684 MISS:     141292
cpu0_L2C PREFETCH     ACCESS:     568511 HIT:     375440 MISS:     193071
cpu0_L2C WRITE        ACCESS:     176934 HIT:     176934 MISS:          0
cpu0_L2C TRANSLATION  ACCESS:       3384 HIT:        737 MISS:       2647
cpu0_L2C PREFETCH REQUESTED:     359484 ISSUED:     345480 USEFUL:      29121 USELESS:      26498
cpu0_L2C AVERAGE MISS LATENCY: 60.99 cycles
cpu0_STLB TOTAL        ACCESS:      26292 HIT:      21364 MISS:       4928
cpu0_STLB LOAD         ACCESS:      26292 HIT:      21364 MISS:       4928
cpu0_STLB RFO          ACCESS:          0 HIT:          0 MISS:          0
cpu0_STLB PREFETCH     ACCESS:          0 HIT:          0 MISS:          0
cpu0_STLB WRITE        ACCESS:          0 HIT:          0 MISS:          0
cpu0_STLB TRANSLATION  ACCESS:          0 HIT:          0 MISS:          0
cpu0_STLB PREFETCH REQUESTED:          0 ISSUED:          0 USEFUL:          0 USELESS:          0
cpu0_STLB AVERAGE MISS LATENCY: 119.1 cycles

DRAM Statistics

Channel 0 RQ ROW_BUFFER_HIT:      25404
  ROW_BUFFER_MISS:      26259
 AVG DBUS CONGESTED CYCLE: 3.885
WQ ROW_BUFFER_HIT: Channel 0 
  ROW_BUFFER_MISS:       1905
  FULL:      12641

Channel 1 RQ ROW_BUFFER_HIT:      24209
  ROW_BUFFER_MISS:      25849
 AVG DBUS CONGESTED CYCLE: 3.879
WQ ROW_BUFFER_HIT: Channel 1 
  ROW_BUFFER_MISS:       1751
  FULL:      12298
BERTI TO_L1: 1546373 TO_L2: 3184006 TO_L2_BC_MSHR: 1793690
BERTI AVG_LAT: 64.0354 NUM_TRACK_LATENCY: 168429 NUM_CANT_TRACK_LATENCY: 0
BERTI CROSS_PAGE 940035 NO_CROSS_PAGE: 3790344
BERTI FOUND_BERTI: 2931300 NO_FOUND_BERTI: 11336510
BERTI AVERAGE_ISSUED: 4.25665
CPU 0 L1I Entangling prefetcher final stats
IP accesses: 6f71 1bdc40 1844 / 362207
IP misses: f7cb 3df2c0 151 / 41042
IP hits: 0 0 0 / 0
IP late: 91b9 246e40 48 / 19915
IP wrong: f801 3e0040 133 / 54372
miss rate: 0.113311
coverage: 0
coverage_late: 0.485235
accuracy: 0
accuracy_late: 0.268082
discarded: 0
evicts entangled j table: 0
evicts entangled k table: 6914
max bb size: 53
formats: 1740 0 5503 2727 1146 1974 0 
hist_lookups: 4392 5110 3980 3567 3320 2919 2207 1578 1223 951 757 517 322 181 75 0 3 7081 
hist_lookups_evict: 0.0078569 %
hist_lookups_shortlat: 18.545 %
bb_found_hist: 0 93312 39443 19355 8782 4294 2125 1709 570 129 6 109 120 98 28 0 4 0 0 0 0 8 0 0 0 0 0 0 0 0 0 4 0 0 4 0 0 0 0 0 0 0 0 0 0 0 0 0 0 0 0 0 0 4 0 0 0 0 0 0 0 0 0 0 
bb_found_summary: 322364 170104 1.8951
entangled_found_hist: 0 48380 37781 67558 12612 2242 537 0 
entangled_found_summary: 391496 169110 2.31504
bb_ent_found_hist: 0 132189 58382 38886 17066 11092 4018 2570 2644 91 0 153 110 174 16 0 267 0 0 0 0 21 0 0 0 0 0 0 0 0 0 8 0 0 4 0 0 0 0 0 0 0 0 0 0 0 0 0 0 0 0 0 0 7 0 0 0 0 0 0 0 0 0 0 
bb_ent_found_summary: 564361 267698 2.10821
