WARNING: physical memory size is smaller than virtual memory size.

*** ChampSim Multicore Out-of-Order Simulator ***
Warmup Instructions: 30000000
Simulation Instructions: 100000000
Number of CPUs: 1
Page size: 4096

BTB:
Basic BTB sets: 1024 ways: 8
Indirect:
history lengths: 0 0 10 16 27 44 60 96 109 219 449 487 714 1313 2146 3881 
ITTAGE tables: 64768 bytes;Region table: 240 bytes;IUM: 384 bytes;Total Storage= 65392 bytes;
RAS:
RAS size: 64
[LLC] INSTR Demand IPV: 1 2 2 1 4 Prefetch IPV: 1 2 1 1 4
[LLC] DATA  Demand IPV: 1 1 1 2 4 Prefetch IPV: 1 1 2 2 4
Berti Prefetcher
CPU 0 Entangling prefetcher
Off-chip DRAM Size: 8 GiB Channels: 2 Width: 64-bit Data Race: 6400 MT/s
[DUEL] Epoch ended. INSTR misses = 41, DATA misses = 50. Winner = INSTR
[DUEL] Epoch ended. INSTR misses = 24, DATA misses = 16. Winner = DATA
[DUEL] Epoch ended. INSTR misses = 0, DATA misses = 0. Winner = INSTR
[DUEL] Epoch ended. INSTR misses = 0, DATA misses = 0. Winner = INSTR
[DUEL] Epoch ended. INSTR misses = 0, DATA misses = 0. Winner = INSTR
[DUEL] Epoch ended. INSTR misses = 0, DATA misses = 0. Winner = INSTR
[DUEL] Epoch ended. INSTR misses = 16, DATA misses = 16. Winner = INSTR
[DUEL] Epoch ended. INSTR misses = 0, DATA misses = 0. Winner = INSTR
[DUEL] Epoch ended. INSTR misses = 4, DATA misses = 0. Winner = DATA
[DUEL] Epoch ended. INSTR misses = 4, DATA misses = 5. Winner = INSTR
[DUEL] Epoch ended. INSTR misses = 0, DATA misses = 0. Winner = INSTR
[DUEL] Epoch ended. INSTR misses = 0, DATA misses = 0. Winner = INSTR
[DUEL] Epoch ended. INSTR misses = 12, DATA misses = 1. Winner = DATA
Heartbeat CPU 0 instructions: 10000005 cycles: 1715455 heartbeat IPC: 5.829 cumulative IPC: 5.829 (Simulation time: 00 hr 00 min 21 sec)
[DUEL] Epoch ended. INSTR misses = 10, DATA misses = 11. Winner = INSTR
[DUEL] Epoch ended. INSTR misses = 20, DATA misses = 18. Winner = DATA
[DUEL] Epoch ended. INSTR misses = 57, DATA misses = 68. Winner = INSTR
Heartbeat CPU 0 instructions: 20000000 cycles: 3431543 heartbeat IPC: 5.827 cumulative IPC: 5.828 (Simulation time: 00 hr 00 min 41 sec)
[DUEL] Epoch ended. INSTR misses = 27, DATA misses = 26. Winner = DATA
Heartbeat CPU 0 instructions: 30000002 cycles: 5098314 heartbeat IPC: 6 cumulative IPC: 5.884 (Simulation time: 00 hr 01 min 01 sec)
Warmup finished CPU 0 instructions: 30000002 cycles: 5098315 cumulative IPC: 5.884 (Simulation time: 00 hr 01 min 01 sec)
Warmup complete CPU 0 instructions: 30000002 cycles: 5098315 cumulative IPC: 5.884 (Simulation time: 00 hr 01 min 01 sec)
Heartbeat CPU 0 instructions: 40000001 cycles: 6764989 heartbeat IPC: 6 cumulative IPC: 6 (Simulation time: 00 hr 01 min 24 sec)
[DUEL] Epoch ended. INSTR misses = 0, DATA misses = 0. Winner = INSTR
*** Reached end of trace: (0, "../traces/secret_traces/crypto/crypto21.champsimtrace.xz")
[DUEL] Epoch ended. INSTR misses = 11, DATA misses = 2. Winner = DATA
[DUEL] Epoch ended. INSTR misses = 4, DATA misses = 2. Winner = DATA
[DUEL] Epoch ended. INSTR misses = 0, DATA misses = 0. Winner = INSTR
[DUEL] Epoch ended. INSTR misses = 0, DATA misses = 0. Winner = INSTR
[DUEL] Epoch ended. INSTR misses = 0, DATA misses = 0. Winner = INSTR
[DUEL] Epoch ended. INSTR misses = 0, DATA misses = 0. Winner = INSTR
[DUEL] Epoch ended. INSTR misses = 0, DATA misses = 0. Winner = INSTR
[DUEL] Epoch ended. INSTR misses = 0, DATA misses = 0. Winner = INSTR
[DUEL] Epoch ended. INSTR misses = 0, DATA misses = 0. Winner = INSTR
[DUEL] Epoch ended. INSTR misses = 2, DATA misses = 1. Winner = DATA
[DUEL] Epoch ended. INSTR misses = 0, DATA misses = 0. Winner = INSTR
[DUEL] Epoch ended. INSTR misses = 0, DATA misses = 0. Winner = INSTR
[DUEL] Epoch ended. INSTR misses = 2, DATA misses = 2. Winner = INSTR
Heartbeat CPU 0 instructions: 50000001 cycles: 9207302 heartbeat IPC: 4.094 cumulative IPC: 4.867 (Simulation time: 00 hr 01 min 51 sec)
[DUEL] Epoch ended. INSTR misses = 0, DATA misses = 2. Winner = INSTR
[DUEL] Epoch ended. INSTR misses = 0, DATA misses = 4. Winner = INSTR
[DUEL] Epoch ended. INSTR misses = 28, DATA misses = 25. Winner = DATA
Heartbeat CPU 0 instructions: 60000008 cycles: 11463893 heartbeat IPC: 4.431 cumulative IPC: 4.713 (Simulation time: 00 hr 02 min 17 sec)
[DUEL] Epoch ended. INSTR misses = 12, DATA misses = 7. Winner = DATA
Heartbeat CPU 0 instructions: 70000000 cycles: 13145764 heartbeat IPC: 5.946 cumulative IPC: 4.971 (Simulation time: 00 hr 02 min 40 sec)
Heartbeat CPU 0 instructions: 80000001 cycles: 14812431 heartbeat IPC: 6 cumulative IPC: 5.147 (Simulation time: 00 hr 03 min 03 sec)
[DUEL] Epoch ended. INSTR misses = 0, DATA misses = 0. Winner = INSTR
*** Reached end of trace: (0, "../traces/secret_traces/crypto/crypto21.champsimtrace.xz")
[DUEL] Epoch ended. INSTR misses = 10, DATA misses = 2. Winner = DATA
[DUEL] Epoch ended. INSTR misses = 3, DATA misses = 1. Winner = DATA
[DUEL] Epoch ended. INSTR misses = 0, DATA misses = 0. Winner = INSTR
[DUEL] Epoch ended. INSTR misses = 0, DATA misses = 0. Winner = INSTR
[DUEL] Epoch ended. INSTR misses = 0, DATA misses = 0. Winner = INSTR
[DUEL] Epoch ended. INSTR misses = 0, DATA misses = 0. Winner = INSTR
[DUEL] Epoch ended. INSTR misses = 0, DATA misses = 0. Winner = INSTR
[DUEL] Epoch ended. INSTR misses = 0, DATA misses = 0. Winner = INSTR
[DUEL] Epoch ended. INSTR misses = 0, DATA misses = 0. Winner = INSTR
[DUEL] Epoch ended. INSTR misses = 2, DATA misses = 1. Winner = DATA
[DUEL] Epoch ended. INSTR misses = 0, DATA misses = 0. Winner = INSTR
[DUEL] Epoch ended. INSTR misses = 0, DATA misses = 0. Winner = INSTR
[DUEL] Epoch ended. INSTR misses = 1, DATA misses = 1. Winner = INSTR
Heartbeat CPU 0 instructions: 90000001 cycles: 17084465 heartbeat IPC: 4.401 cumulative IPC: 5.006 (Simulation time: 00 hr 03 min 30 sec)
[DUEL] Epoch ended. INSTR misses = 0, DATA misses = 3. Winner = INSTR
[DUEL] Epoch ended. INSTR misses = 1, DATA misses = 3. Winner = INSTR
[DUEL] Epoch ended. INSTR misses = 26, DATA misses = 24. Winner = DATA
Heartbeat CPU 0 instructions: 100000002 cycles: 19230681 heartbeat IPC: 4.659 cumulative IPC: 4.953 (Simulation time: 00 hr 03 min 55 sec)
[DUEL] Epoch ended. INSTR misses = 10, DATA misses = 7. Winner = DATA
Heartbeat CPU 0 instructions: 110000001 cycles: 20909285 heartbeat IPC: 5.957 cumulative IPC: 5.06 (Simulation time: 00 hr 04 min 18 sec)
Heartbeat CPU 0 instructions: 120000008 cycles: 22575954 heartbeat IPC: 6 cumulative IPC: 5.149 (Simulation time: 00 hr 04 min 41 sec)
[DUEL] Epoch ended. INSTR misses = 0, DATA misses = 0. Winner = INSTR
*** Reached end of trace: (0, "../traces/secret_traces/crypto/crypto21.champsimtrace.xz")
[DUEL] Epoch ended. INSTR misses = 6, DATA misses = 1. Winner = DATA
[DUEL] Epoch ended. INSTR misses = 6, DATA misses = 1. Winner = DATA
[DUEL] Epoch ended. INSTR misses = 0, DATA misses = 0. Winner = INSTR
[DUEL] Epoch ended. INSTR misses = 0, DATA misses = 0. Winner = INSTR
[DUEL] Epoch ended. INSTR misses = 0, DATA misses = 0. Winner = INSTR
[DUEL] Epoch ended. INSTR misses = 0, DATA misses = 0. Winner = INSTR
[DUEL] Epoch ended. INSTR misses = 0, DATA misses = 0. Winner = INSTR
[DUEL] Epoch ended. INSTR misses = 0, DATA misses = 0. Winner = INSTR
[DUEL] Epoch ended. INSTR misses = 0, DATA misses = 0. Winner = INSTR
[DUEL] Epoch ended. INSTR misses = 3, DATA misses = 1. Winner = DATA
[DUEL] Epoch ended. INSTR misses = 0, DATA misses = 0. Winner = INSTR
[DUEL] Epoch ended. INSTR misses = 0, DATA misses = 0. Winner = INSTR
[DUEL] Epoch ended. INSTR misses = 3, DATA misses = 0. Winner = DATA
Heartbeat CPU 0 instructions: 130000001 cycles: 24792355 heartbeat IPC: 4.512 cumulative IPC: 5.078 (Simulation time: 00 hr 05 min 07 sec)
Simulation finished CPU 0 instructions: 100000011 cycles: 19694042 cumulative IPC: 5.078 (Simulation time: 00 hr 05 min 07 sec)
Simulation complete CPU 0 instructions: 100000011 cycles: 19694042 cumulative IPC: 5.078 (Simulation time: 00 hr 05 min 07 sec)

ChampSim completed all CPUs

=== Simulation ===
CPU 0 runs ../traces/secret_traces/crypto/crypto21.champsimtrace.xz
Region of Interest Statistics

CPU 0 cumulative IPC: 5.078 instructions: 100000011 cycles: 19694042
CPU 0 Branch Prediction Accuracy: 99.41% MPKI: 0.715 Average ROB Occupancy at Mispredict: 32.73
Branch type MPKI
BRANCH_DIRECT_JUMP: 0.038
BRANCH_INDIRECT: 0.36
BRANCH_CONDITIONAL: 0.129
BRANCH_DIRECT_CALL: 0.112
BRANCH_INDIRECT_CALL: 0.0146
BRANCH_RETURN: 0.0609

LLC TOTAL        ACCESS:     272797 HIT:     189737 MISS:      83060
LLC LOAD         ACCESS:      27758 HIT:      14150 MISS:      13608
LLC RFO          ACCESS:      79774 HIT:      59851 MISS:      19923
LLC PREFETCH     ACCESS:      70965 HIT:      36122 MISS:      34843
LLC WRITE        ACCESS:      92596 HIT:      79181 MISS:      13415
LLC TRANSLATION  ACCESS:       1704 HIT:        433 MISS:       1271
LLC PREFETCH REQUESTED:          0 ISSUED:          0 USEFUL:          0 USELESS:          0
LLC AVERAGE MISS LATENCY: 166.4 cycles
cpu0_DTLB TOTAL        ACCESS:   12906934 HIT:   12880185 MISS:      26749
cpu0_DTLB LOAD         ACCESS:   12906934 HIT:   12880185 MISS:      26749
cpu0_DTLB RFO          ACCESS:          0 HIT:          0 MISS:          0
cpu0_DTLB PREFETCH     ACCESS:          0 HIT:          0 MISS:          0
cpu0_DTLB WRITE        ACCESS:          0 HIT:          0 MISS:          0
cpu0_DTLB TRANSLATION  ACCESS:          0 HIT:          0 MISS:          0
cpu0_DTLB PREFETCH REQUESTED:          0 ISSUED:          0 USEFUL:          0 USELESS:          0
cpu0_DTLB AVERAGE MISS LATENCY: 11.52 cycles
cpu0_ITLB TOTAL        ACCESS:     495744 HIT:     485249 MISS:      10495
cpu0_ITLB LOAD         ACCESS:     495744 HIT:     485249 MISS:      10495
cpu0_ITLB RFO          ACCESS:          0 HIT:          0 MISS:          0
cpu0_ITLB PREFETCH     ACCESS:          0 HIT:          0 MISS:          0
cpu0_ITLB WRITE        ACCESS:          0 HIT:          0 MISS:          0
cpu0_ITLB TRANSLATION  ACCESS:          0 HIT:          0 MISS:          0
cpu0_ITLB PREFETCH REQUESTED:          0 ISSUED:          0 USEFUL:          0 USELESS:          0
cpu0_ITLB AVERAGE MISS LATENCY: 19.61 cycles
cpu0_L1D TOTAL        ACCESS:   20346029 HIT:   19953391 MISS:     392638
cpu0_L1D LOAD         ACCESS:   12964652 HIT:   12862832 MISS:     101820
cpu0_L1D RFO          ACCESS:          0 HIT:          0 MISS:          0
cpu0_L1D PREFETCH     ACCESS:     419275 HIT:     341189 MISS:      78086
cpu0_L1D WRITE        ACCESS:    6958553 HIT:    6748106 MISS:     210447
cpu0_L1D TRANSLATION  ACCESS:       3549 HIT:       1264 MISS:       2285
cpu0_L1D PREFETCH REQUESTED:    2444764 ISSUED:     419275 USEFUL:       8020 USELESS:       1102
cpu0_L1D AVERAGE MISS LATENCY: 29.73 cycles
cpu0_L1I TOTAL        ACCESS:     722240 HIT:     601828 MISS:     120412
cpu0_L1I LOAD         ACCESS:     235774 HIT:     206922 MISS:      28852
cpu0_L1I RFO          ACCESS:          0 HIT:          0 MISS:          0
cpu0_L1I PREFETCH     ACCESS:     486466 HIT:     394906 MISS:      91560
cpu0_L1I WRITE        ACCESS:          0 HIT:          0 MISS:          0
cpu0_L1I TRANSLATION  ACCESS:          0 HIT:          0 MISS:          0
cpu0_L1I PREFETCH REQUESTED:     753801 ISSUED:     486466 USEFUL:      49875 USELESS:      37335
cpu0_L1I AVERAGE MISS LATENCY: 31.28 cycles
cpu0_L2C TOTAL        ACCESS:     661633 HIT:     426535 MISS:     235098
cpu0_L2C LOAD         ACCESS:      84956 HIT:      51071 MISS:      33885
cpu0_L2C RFO          ACCESS:      89070 HIT:       9251 MISS:      79819
cpu0_L2C PREFETCH     ACCESS:     382454 HIT:     262764 MISS:     119690
cpu0_L2C WRITE        ACCESS:     102967 HIT:     102967 MISS:          0
cpu0_L2C TRANSLATION  ACCESS:       2186 HIT:        482 MISS:       1704
cpu0_L2C PREFETCH REQUESTED:     238771 ISSUED:     228643 USEFUL:      19319 USELESS:      16136
cpu0_L2C AVERAGE MISS LATENCY: 72 cycles
cpu0_STLB TOTAL        ACCESS:      17133 HIT:      13856 MISS:       3277
cpu0_STLB LOAD         ACCESS:      17133 HIT:      13856 MISS:       3277
cpu0_STLB RFO          ACCESS:          0 HIT:          0 MISS:          0
cpu0_STLB PREFETCH     ACCESS:          0 HIT:          0 MISS:          0
cpu0_STLB WRITE        ACCESS:          0 HIT:          0 MISS:          0
cpu0_STLB TRANSLATION  ACCESS:          0 HIT:          0 MISS:          0
cpu0_STLB PREFETCH REQUESTED:          0 ISSUED:          0 USEFUL:          0 USELESS:          0
cpu0_STLB AVERAGE MISS LATENCY: 132.9 cycles

DRAM Statistics

Channel 0 RQ ROW_BUFFER_HIT:      16177
  ROW_BUFFER_MISS:      19239
 AVG DBUS CONGESTED CYCLE: 3.901
WQ ROW_BUFFER_HIT: Channel 0 
  ROW_BUFFER_MISS:       1463
  FULL:      10620

Channel 1 RQ ROW_BUFFER_HIT:      15665
  ROW_BUFFER_MISS:      18522
 AVG DBUS CONGESTED CYCLE: 3.877
WQ ROW_BUFFER_HIT: Channel 1 
  ROW_BUFFER_MISS:       1436
  FULL:       9791
BERTI TO_L1: 1020657 TO_L2: 1929779 TO_L2_BC_MSHR: 1048741
BERTI AVG_LAT: 64.1139 NUM_TRACK_LATENCY: 106581 NUM_CANT_TRACK_LATENCY: 0
BERTI CROSS_PAGE 585262 NO_CROSS_PAGE: 2365174
BERTI FOUND_BERTI: 608385 NO_FOUND_BERTI: 16754512
BERTI AVERAGE_ISSUED: 4.16955
CPU 0 L1I Entangling prefetcher final stats
IP accesses: 1f30 7cc00 1243 / 236343
IP misses: f7cb 3df2c0 123 / 29421
IP hits: 0 0 0 / 0
IP late: 4e9e 13a780 46 / 13998
IP wrong: 7b5e 1ed780 119 / 37124
miss rate: 0.124485
coverage: 0
coverage_late: 0.475783
accuracy: 0
accuracy_late: 0.273816
discarded: 0
evicts entangled j table: 0
evicts entangled k table: 4815
max bb size: 53
formats: 1219 0 4219 2099 870 1932 0 
hist_lookups: 3901 4014 3024 2623 2339 1996 1545 1189 907 704 504 319 188 125 69 0 6 4461 
hist_lookups_evict: 0.0214946 %
hist_lookups_shortlat: 15.9813 %
bb_found_hist: 0 59353 23622 12680 5526 2835 1282 927 332 70 2 85 66 46 19 26 3 6 0 0 0 4 0 0 0 0 0 0 0 0 0 3 0 0 3 0 0 0 0 0 0 0 0 0 0 0 0 0 0 0 0 0 0 3 0 0 0 0 0 0 0 0 0 0 
bb_found_summary: 201972 106893 1.88948
entangled_found_hist: 0 30662 23201 42920 7408 1352 387 0 
entangled_found_summary: 244538 105930 2.30849
bb_ent_found_hist: 0 82039 36196 25856 10776 7238 2311 1595 1229 43 0 182 52 53 27 96 173 3 0 0 0 32 0 0 0 0 0 0 0 0 0 4 0 0 5 0 0 0 0 0 0 0 0 0 0 0 0 0 0 0 0 0 0 3 0 0 0 0 0 0 0 0 0 0 
bb_ent_found_summary: 355620 167913 2.11789
