WARNING: physical memory size is smaller than virtual memory size.

*** ChampSim Multicore Out-of-Order Simulator ***
Warmup Instructions: 30000000
Simulation Instructions: 100000000
Number of CPUs: 1
Page size: 4096

BTB:
Basic BTB sets: 1024 ways: 8
Indirect:
history lengths: 0 0 10 16 27 44 60 96 109 219 449 487 714 1313 2146 3881 
ITTAGE tables: 64768 bytes;Region table: 240 bytes;IUM: 384 bytes;Total Storage= 65392 bytes;
RAS:
RAS size: 64
[LLC] INSTR Demand IPV: 1 2 2 1 4 Prefetch IPV: 1 2 1 1 4
[LLC] DATA  Demand IPV: 1 1 1 2 4 Prefetch IPV: 1 1 2 2 4
Berti Prefetcher
CPU 0 Entangling prefetcher
Off-chip DRAM Size: 8 GiB Channels: 2 Width: 64-bit Data Race: 6400 MT/s
[DUEL] Epoch ended. INSTR misses = 41, DATA misses = 50. Winner = INSTR
[DUEL] Epoch ended. INSTR misses = 24, DATA misses = 16. Winner = DATA
[DUEL] Epoch ended. INSTR misses = 0, DATA misses = 0. Winner = INSTR
[DUEL] Epoch ended. INSTR misses = 0, DATA misses = 0. Winner = INSTR
[DUEL] Epoch ended. INSTR misses = 0, DATA misses = 0. Winner = INSTR
[DUEL] Epoch ended. INSTR misses = 0, DATA misses = 0. Winner = INSTR
[DUEL] Epoch ended. INSTR misses = 16, DATA misses = 16. Winner = INSTR
[DUEL] Epoch ended. INSTR misses = 0, DATA misses = 0. Winner = INSTR
[DUEL] Epoch ended. INSTR misses = 4, DATA misses = 0. Winner = DATA
[DUEL] Epoch ended. INSTR misses = 4, DATA misses = 5. Winner = INSTR
[DUEL] Epoch ended. INSTR misses = 0, DATA misses = 5. Winner = INSTR
[DUEL] Epoch ended. INSTR misses = 0, DATA misses = 0. Winner = INSTR
[DUEL] Epoch ended. INSTR misses = 9, DATA misses = 0. Winner = DATA
Heartbeat CPU 0 instructions: 10000007 cycles: 1715359 heartbeat IPC: 5.83 cumulative IPC: 5.83 (Simulation time: 00 hr 00 min 21 sec)
[DUEL] Epoch ended. INSTR misses = 0, DATA misses = 9. Winner = INSTR
[DUEL] Epoch ended. INSTR misses = 17, DATA misses = 16. Winner = DATA
[DUEL] Epoch ended. INSTR misses = 75, DATA misses = 72. Winner = DATA
Heartbeat CPU 0 instructions: 20000000 cycles: 3431751 heartbeat IPC: 5.826 cumulative IPC: 5.828 (Simulation time: 00 hr 00 min 41 sec)
[DUEL] Epoch ended. INSTR misses = 49, DATA misses = 39. Winner = DATA
Heartbeat CPU 0 instructions: 30000001 cycles: 5098487 heartbeat IPC: 6 cumulative IPC: 5.884 (Simulation time: 00 hr 01 min 01 sec)
Warmup finished CPU 0 instructions: 30000001 cycles: 5098488 cumulative IPC: 5.884 (Simulation time: 00 hr 01 min 01 sec)
Warmup complete CPU 0 instructions: 30000001 cycles: 5098488 cumulative IPC: 5.884 (Simulation time: 00 hr 01 min 01 sec)
Heartbeat CPU 0 instructions: 40000005 cycles: 6765165 heartbeat IPC: 6 cumulative IPC: 6 (Simulation time: 00 hr 01 min 24 sec)
[DUEL] Epoch ended. INSTR misses = 0, DATA misses = 1. Winner = INSTR
[DUEL] Epoch ended. INSTR misses = 0, DATA misses = 0. Winner = INSTR
*** Reached end of trace: (0, "../traces/secret_traces/crypto/crypto47.champsimtrace.xz")
[DUEL] Epoch ended. INSTR misses = 5, DATA misses = 5. Winner = INSTR
[DUEL] Epoch ended. INSTR misses = 13, DATA misses = 4. Winner = DATA
[DUEL] Epoch ended. INSTR misses = 0, DATA misses = 1. Winner = INSTR
[DUEL] Epoch ended. INSTR misses = 0, DATA misses = 0. Winner = INSTR
[DUEL] Epoch ended. INSTR misses = 0, DATA misses = 0. Winner = INSTR
[DUEL] Epoch ended. INSTR misses = 0, DATA misses = 0. Winner = INSTR
[DUEL] Epoch ended. INSTR misses = 0, DATA misses = 0. Winner = INSTR
[DUEL] Epoch ended. INSTR misses = 0, DATA misses = 0. Winner = INSTR
[DUEL] Epoch ended. INSTR misses = 0, DATA misses = 0. Winner = INSTR
[DUEL] Epoch ended. INSTR misses = 2, DATA misses = 3. Winner = INSTR
[DUEL] Epoch ended. INSTR misses = 0, DATA misses = 0. Winner = INSTR
[DUEL] Epoch ended. INSTR misses = 0, DATA misses = 3. Winner = INSTR
Heartbeat CPU 0 instructions: 50000005 cycles: 9177484 heartbeat IPC: 4.145 cumulative IPC: 4.903 (Simulation time: 00 hr 01 min 51 sec)
[DUEL] Epoch ended. INSTR misses = 1, DATA misses = 0. Winner = DATA
Heartbeat CPU 0 instructions: 60000006 cycles: 10903227 heartbeat IPC: 5.795 cumulative IPC: 5.168 (Simulation time: 00 hr 02 min 14 sec)
[DUEL] Epoch ended. INSTR misses = 0, DATA misses = 2. Winner = INSTR
[DUEL] Epoch ended. INSTR misses = 1, DATA misses = 0. Winner = DATA
[DUEL] Epoch ended. INSTR misses = 31, DATA misses = 27. Winner = DATA
Heartbeat CPU 0 instructions: 70000006 cycles: 13171304 heartbeat IPC: 4.409 cumulative IPC: 4.955 (Simulation time: 00 hr 02 min 40 sec)
[DUEL] Epoch ended. INSTR misses = 36, DATA misses = 29. Winner = DATA
Heartbeat CPU 0 instructions: 80000006 cycles: 14852184 heartbeat IPC: 5.949 cumulative IPC: 5.126 (Simulation time: 00 hr 03 min 02 sec)
[DUEL] Epoch ended. INSTR misses = 0, DATA misses = 0. Winner = INSTR
Heartbeat CPU 0 instructions: 90000003 cycles: 16519702 heartbeat IPC: 5.997 cumulative IPC: 5.253 (Simulation time: 00 hr 03 min 25 sec)
[DUEL] Epoch ended. INSTR misses = 0, DATA misses = 0. Winner = INSTR
*** Reached end of trace: (0, "../traces/secret_traces/crypto/crypto47.champsimtrace.xz")
[DUEL] Epoch ended. INSTR misses = 4, DATA misses = 2. Winner = DATA
[DUEL] Epoch ended. INSTR misses = 5, DATA misses = 3. Winner = DATA
[DUEL] Epoch ended. INSTR misses = 0, DATA misses = 0. Winner = INSTR
[DUEL] Epoch ended. INSTR misses = 0, DATA misses = 0. Winner = INSTR
[DUEL] Epoch ended. INSTR misses = 0, DATA misses = 0. Winner = INSTR
[DUEL] Epoch ended. INSTR misses = 0, DATA misses = 0. Winner = INSTR
[DUEL] Epoch ended. INSTR misses = 0, DATA misses = 0. Winner = INSTR
[DUEL] Epoch ended. INSTR misses = 0, DATA misses = 0. Winner = INSTR
[DUEL] Epoch ended. INSTR misses = 0, DATA misses = 0. Winner = INSTR
[DUEL] Epoch ended. INSTR misses = 1, DATA misses = 1. Winner = INSTR
[DUEL] Epoch ended. INSTR misses = 0, DATA misses = 0. Winner = INSTR
[DUEL] Epoch ended. INSTR misses = 0, DATA misses = 3. Winner = INSTR
[DUEL] Epoch ended. INSTR misses = 1, DATA misses = 0. Winner = DATA
Heartbeat CPU 0 instructions: 100000000 cycles: 18809878 heartbeat IPC: 4.366 cumulative IPC: 5.105 (Simulation time: 00 hr 03 min 52 sec)
Heartbeat CPU 0 instructions: 110000005 cycles: 20476543 heartbeat IPC: 6 cumulative IPC: 5.202 (Simulation time: 00 hr 04 min 15 sec)
[DUEL] Epoch ended. INSTR misses = 0, DATA misses = 1. Winner = INSTR
[DUEL] Epoch ended. INSTR misses = 1, DATA misses = 0. Winner = DATA
[DUEL] Epoch ended. INSTR misses = 29, DATA misses = 23. Winner = DATA
Heartbeat CPU 0 instructions: 120000004 cycles: 22643690 heartbeat IPC: 4.614 cumulative IPC: 5.13 (Simulation time: 00 hr 04 min 40 sec)
[DUEL] Epoch ended. INSTR misses = 32, DATA misses = 24. Winner = DATA
Heartbeat CPU 0 instructions: 130000005 cycles: 24323811 heartbeat IPC: 5.952 cumulative IPC: 5.201 (Simulation time: 00 hr 05 min 03 sec)
Simulation finished CPU 0 instructions: 100000004 cycles: 19225324 cumulative IPC: 5.201 (Simulation time: 00 hr 05 min 03 sec)
Simulation complete CPU 0 instructions: 100000004 cycles: 19225324 cumulative IPC: 5.201 (Simulation time: 00 hr 05 min 03 sec)

ChampSim completed all CPUs

=== Simulation ===
CPU 0 runs ../traces/secret_traces/crypto/crypto47.champsimtrace.xz
Region of Interest Statistics

CPU 0 cumulative IPC: 5.201 instructions: 100000004 cycles: 19225324
CPU 0 Branch Prediction Accuracy: 99.5% MPKI: 0.5623 Average ROB Occupancy at Mispredict: 31.92
Branch type MPKI
BRANCH_DIRECT_JUMP: 0.0297
BRANCH_INDIRECT: 0.275
BRANCH_CONDITIONAL: 0.112
BRANCH_DIRECT_CALL: 0.0867
BRANCH_INDIRECT_CALL: 0.011
BRANCH_RETURN: 0.0474

LLC TOTAL        ACCESS:     232108 HIT:     158243 MISS:      73865
LLC LOAD         ACCESS:      23840 HIT:      11911 MISS:      11929
LLC RFO          ACCESS:      70115 HIT:      49803 MISS:      20312
LLC PREFETCH     ACCESS:      57837 HIT:      28894 MISS:      28943
LLC WRITE        ACCESS:      78967 HIT:      67303 MISS:      11664
LLC TRANSLATION  ACCESS:       1349 HIT:        332 MISS:       1017
LLC PREFETCH REQUESTED:          0 ISSUED:          0 USEFUL:          0 USELESS:          0
LLC AVERAGE MISS LATENCY: 177 cycles
cpu0_DTLB TOTAL        ACCESS:   13268032 HIT:   13245807 MISS:      22225
cpu0_DTLB LOAD         ACCESS:   13268032 HIT:   13245807 MISS:      22225
cpu0_DTLB RFO          ACCESS:          0 HIT:          0 MISS:          0
cpu0_DTLB PREFETCH     ACCESS:          0 HIT:          0 MISS:          0
cpu0_DTLB WRITE        ACCESS:          0 HIT:          0 MISS:          0
cpu0_DTLB TRANSLATION  ACCESS:          0 HIT:          0 MISS:          0
cpu0_DTLB PREFETCH REQUESTED:          0 ISSUED:          0 USEFUL:          0 USELESS:          0
cpu0_DTLB AVERAGE MISS LATENCY: 11.08 cycles
cpu0_ITLB TOTAL        ACCESS:     388843 HIT:     380733 MISS:       8110
cpu0_ITLB LOAD         ACCESS:     388843 HIT:     380733 MISS:       8110
cpu0_ITLB RFO          ACCESS:          0 HIT:          0 MISS:          0
cpu0_ITLB PREFETCH     ACCESS:          0 HIT:          0 MISS:          0
cpu0_ITLB WRITE        ACCESS:          0 HIT:          0 MISS:          0
cpu0_ITLB TRANSLATION  ACCESS:          0 HIT:          0 MISS:          0
cpu0_ITLB PREFETCH REQUESTED:          0 ISSUED:          0 USEFUL:          0 USELESS:          0
cpu0_ITLB AVERAGE MISS LATENCY: 19.75 cycles
cpu0_L1D TOTAL        ACCESS:   19140966 HIT:   18810742 MISS:     330224
cpu0_L1D LOAD         ACCESS:   12915987 HIT:   12829551 MISS:      86436
cpu0_L1D RFO          ACCESS:          0 HIT:          0 MISS:          0
cpu0_L1D PREFETCH     ACCESS:     282987 HIT:     227822 MISS:      55165
cpu0_L1D WRITE        ACCESS:    5939183 HIT:    5752334 MISS:     186849
cpu0_L1D TRANSLATION  ACCESS:       2809 HIT:       1035 MISS:       1774
cpu0_L1D PREFETCH REQUESTED:    2339656 ISSUED:     282987 USEFUL:       6383 USELESS:        557
cpu0_L1D AVERAGE MISS LATENCY: 34.57 cycles
cpu0_L1I TOTAL        ACCESS:     565657 HIT:     469466 MISS:      96191
cpu0_L1I LOAD         ACCESS:     186317 HIT:     162822 MISS:      23495
cpu0_L1I RFO          ACCESS:          0 HIT:          0 MISS:          0
cpu0_L1I PREFETCH     ACCESS:     379340 HIT:     306644 MISS:      72696
cpu0_L1I WRITE        ACCESS:          0 HIT:          0 MISS:          0
cpu0_L1I TRANSLATION  ACCESS:          0 HIT:          0 MISS:          0
cpu0_L1I PREFETCH REQUESTED:     584131 ISSUED:     379340 USEFUL:      39366 USELESS:      29771
cpu0_L1I AVERAGE MISS LATENCY: 31.91 cycles
cpu0_L2C TOTAL        ACCESS:     535297 HIT:     334922 MISS:     200375
cpu0_L2C LOAD         ACCESS:      71548 HIT:      41570 MISS:      29978
cpu0_L2C RFO          ACCESS:      77096 HIT:       6949 MISS:      70147
cpu0_L2C PREFETCH     ACCESS:     296310 HIT:     197409 MISS:      98901
cpu0_L2C WRITE        ACCESS:      88634 HIT:      88634 MISS:          0
cpu0_L2C TRANSLATION  ACCESS:       1709 HIT:        360 MISS:       1349
cpu0_L2C PREFETCH REQUESTED:     186919 ISSUED:     180939 USEFUL:      16338 USELESS:      13524
cpu0_L2C AVERAGE MISS LATENCY: 78.13 cycles
cpu0_STLB TOTAL        ACCESS:      13503 HIT:      10922 MISS:       2581
cpu0_STLB LOAD         ACCESS:      13503 HIT:      10922 MISS:       2581
cpu0_STLB RFO          ACCESS:          0 HIT:          0 MISS:          0
cpu0_STLB PREFETCH     ACCESS:          0 HIT:          0 MISS:          0
cpu0_STLB WRITE        ACCESS:          0 HIT:          0 MISS:          0
cpu0_STLB TRANSLATION  ACCESS:          0 HIT:          0 MISS:          0
cpu0_STLB PREFETCH REQUESTED:          0 ISSUED:          0 USEFUL:          0 USELESS:          0
cpu0_STLB AVERAGE MISS LATENCY: 135.4 cycles

DRAM Statistics

Channel 0 RQ ROW_BUFFER_HIT:      14723
  ROW_BUFFER_MISS:      16907
 AVG DBUS CONGESTED CYCLE: 3.908
WQ ROW_BUFFER_HIT: Channel 0 
  ROW_BUFFER_MISS:       1284
  FULL:      10664

Channel 1 RQ ROW_BUFFER_HIT:      14134
  ROW_BUFFER_MISS:      16401
 AVG DBUS CONGESTED CYCLE: 3.891
WQ ROW_BUFFER_HIT: Channel 1 
  ROW_BUFFER_MISS:       1366
  FULL:       9883
BERTI TO_L1: 826441 TO_L2: 2016709 TO_L2_BC_MSHR: 1221704
BERTI AVG_LAT: 66.967 NUM_TRACK_LATENCY: 94307 NUM_CANT_TRACK_LATENCY: 0
BERTI CROSS_PAGE 579988 NO_CROSS_PAGE: 2263162
BERTI FOUND_BERTI: 748495 NO_FOUND_BERTI: 16519442
BERTI AVERAGE_ISSUED: 4.17531
CPU 0 L1I Entangling prefetcher final stats
IP accesses: 6f71 1bdc40 1112 / 186682
IP misses: 25bf 96fc0 79 / 23860
IP hits: 0 0 0 / 0
IP late: 4e9e 13a780 43 / 11609
IP wrong: 7cde 1f3780 73 / 29595
miss rate: 0.127811
coverage: 0
coverage_late: 0.486547
accuracy: 0
accuracy_late: 0.281745
discarded: 0
evicts entangled j table: 0
evicts entangled k table: 3726
max bb size: 53
formats: 962 0 3429 1703 687 1572 0 
hist_lookups: 3113 3277 2345 2139 1881 1573 1174 865 642 577 422 280 163 116 66 0 6 4087 
hist_lookups_evict: 0.0264015 %
hist_lookups_shortlat: 17.9839 %
bb_found_hist: 0 46407 19005 9774 4293 2220 997 716 297 51 2 67 57 46 15 20 2 0 0 0 1 4 0 0 0 0 0 0 0 0 0 2 2 0 2 0 0 0 0 0 0 0 0 0 0 0 0 0 0 0 0 0 0 1 0 0 0 0 0 0 0 0 0 0 
bb_found_summary: 158772 83981 1.89058
entangled_found_hist: 0 24771 17307 33306 6191 1215 267 0 
entangled_found_summary: 191744 83057 2.30859
bb_ent_found_hist: 0 66113 27294 20569 8522 4900 1847 1038 952 30 0 96 52 15 15 51 132 0 0 0 1 28 0 0 0 0 0 0 0 0 0 2 2 0 2 0 0 0 0 0 0 0 0 0 0 0 0 0 0 0 0 0 0 1 0 0 0 0 0 0 0 0 0 0 
bb_ent_found_summary: 273047 131662 2.07385
