WARNING: physical memory size is smaller than virtual memory size.

*** ChampSim Multicore Out-of-Order Simulator ***
Warmup Instructions: 30000000
Simulation Instructions: 100000000
Number of CPUs: 1
Page size: 4096

BTB:
Basic BTB sets: 1024 ways: 8
Indirect:
history lengths: 0 0 10 16 27 44 60 96 109 219 449 487 714 1313 2146 3881 
ITTAGE tables: 64768 bytes;Region table: 240 bytes;IUM: 384 bytes;Total Storage= 65392 bytes;
RAS:
RAS size: 64
[LLC] INSTR Demand IPV: 1 2 2 1 4 Prefetch IPV: 1 2 1 1 4
[LLC] DATA  Demand IPV: 1 1 1 2 4 Prefetch IPV: 1 1 2 2 4
Berti Prefetcher
CPU 0 Entangling prefetcher
Off-chip DRAM Size: 8 GiB Channels: 2 Width: 64-bit Data Race: 6400 MT/s
[DUEL] Epoch ended. INSTR misses = 55, DATA misses = 63. Winner = INSTR
[DUEL] Epoch ended. INSTR misses = 16, DATA misses = 18. Winner = INSTR
[DUEL] Epoch ended. INSTR misses = 0, DATA misses = 0. Winner = INSTR
[DUEL] Epoch ended. INSTR misses = 0, DATA misses = 0. Winner = INSTR
[DUEL] Epoch ended. INSTR misses = 0, DATA misses = 0. Winner = INSTR
[DUEL] Epoch ended. INSTR misses = 0, DATA misses = 0. Winner = INSTR
[DUEL] Epoch ended. INSTR misses = 16, DATA misses = 16. Winner = INSTR
[DUEL] Epoch ended. INSTR misses = 0, DATA misses = 0. Winner = INSTR
[DUEL] Epoch ended. INSTR misses = 0, DATA misses = 0. Winner = INSTR
[DUEL] Epoch ended. INSTR misses = 4, DATA misses = 1. Winner = DATA
[DUEL] Epoch ended. INSTR misses = 8, DATA misses = 2. Winner = DATA
[DUEL] Epoch ended. INSTR misses = 0, DATA misses = 0. Winner = INSTR
[DUEL] Epoch ended. INSTR misses = 4, DATA misses = 2. Winner = DATA
Heartbeat CPU 0 instructions: 10000003 cycles: 1723865 heartbeat IPC: 5.801 cumulative IPC: 5.801 (Simulation time: 00 hr 00 min 21 sec)
[DUEL] Epoch ended. INSTR misses = 16, DATA misses = 21. Winner = INSTR
[DUEL] Epoch ended. INSTR misses = 22, DATA misses = 24. Winner = INSTR
[DUEL] Epoch ended. INSTR misses = 110, DATA misses = 109. Winner = DATA
Heartbeat CPU 0 instructions: 20000004 cycles: 3451519 heartbeat IPC: 5.788 cumulative IPC: 5.795 (Simulation time: 00 hr 00 min 42 sec)
[DUEL] Epoch ended. INSTR misses = 32, DATA misses = 31. Winner = DATA
*** Reached end of trace: (0, "../traces/secret_traces/crypto/crypto57.champsimtrace.xz")
[DUEL] Epoch ended. INSTR misses = 18, DATA misses = 41. Winner = INSTR
[DUEL] Epoch ended. INSTR misses = 11, DATA misses = 29. Winner = INSTR
[DUEL] Epoch ended. INSTR misses = 0, DATA misses = 0. Winner = INSTR
[DUEL] Epoch ended. INSTR misses = 0, DATA misses = 0. Winner = INSTR
[DUEL] Epoch ended. INSTR misses = 0, DATA misses = 0. Winner = INSTR
[DUEL] Epoch ended. INSTR misses = 0, DATA misses = 0. Winner = INSTR
[DUEL] Epoch ended. INSTR misses = 0, DATA misses = 0. Winner = INSTR
[DUEL] Epoch ended. INSTR misses = 0, DATA misses = 0. Winner = INSTR
[DUEL] Epoch ended. INSTR misses = 0, DATA misses = 0. Winner = INSTR
[DUEL] Epoch ended. INSTR misses = 0, DATA misses = 0. Winner = INSTR
[DUEL] Epoch ended. INSTR misses = 3, DATA misses = 0. Winner = DATA
[DUEL] Epoch ended. INSTR misses = 5, DATA misses = 0. Winner = DATA
[DUEL] Epoch ended. INSTR misses = 0, DATA misses = 0. Winner = INSTR
[DUEL] Epoch ended. INSTR misses = 0, DATA misses = 0. Winner = INSTR
Heartbeat CPU 0 instructions: 30000000 cycles: 5179471 heartbeat IPC: 5.787 cumulative IPC: 5.792 (Simulation time: 00 hr 01 min 04 sec)
Warmup finished CPU 0 instructions: 30000000 cycles: 5179472 cumulative IPC: 5.792 (Simulation time: 00 hr 01 min 04 sec)
Warmup complete CPU 0 instructions: 30000000 cycles: 5179472 cumulative IPC: 5.792 (Simulation time: 00 hr 01 min 04 sec)
[DUEL] Epoch ended. INSTR misses = 10, DATA misses = 7. Winner = DATA
[DUEL] Epoch ended. INSTR misses = 9, DATA misses = 15. Winner = INSTR
[DUEL] Epoch ended. INSTR misses = 66, DATA misses = 80. Winner = INSTR
Heartbeat CPU 0 instructions: 40000010 cycles: 7374494 heartbeat IPC: 4.556 cumulative IPC: 4.556 (Simulation time: 00 hr 01 min 32 sec)
[DUEL] Epoch ended. INSTR misses = 13, DATA misses = 12. Winner = DATA
*** Reached end of trace: (0, "../traces/secret_traces/crypto/crypto57.champsimtrace.xz")
[DUEL] Epoch ended. INSTR misses = 12, DATA misses = 35. Winner = INSTR
[DUEL] Epoch ended. INSTR misses = 15, DATA misses = 23. Winner = INSTR
[DUEL] Epoch ended. INSTR misses = 0, DATA misses = 0. Winner = INSTR
[DUEL] Epoch ended. INSTR misses = 0, DATA misses = 0. Winner = INSTR
[DUEL] Epoch ended. INSTR misses = 0, DATA misses = 0. Winner = INSTR
[DUEL] Epoch ended. INSTR misses = 0, DATA misses = 0. Winner = INSTR
[DUEL] Epoch ended. INSTR misses = 0, DATA misses = 0. Winner = INSTR
[DUEL] Epoch ended. INSTR misses = 1, DATA misses = 0. Winner = DATA
[DUEL] Epoch ended. INSTR misses = 0, DATA misses = 0. Winner = INSTR
[DUEL] Epoch ended. INSTR misses = 0, DATA misses = 0. Winner = INSTR
[DUEL] Epoch ended. INSTR misses = 3, DATA misses = 0. Winner = DATA
[DUEL] Epoch ended. INSTR misses = 5, DATA misses = 2. Winner = DATA
[DUEL] Epoch ended. INSTR misses = 4, DATA misses = 0. Winner = DATA
Heartbeat CPU 0 instructions: 50000002 cycles: 9702883 heartbeat IPC: 4.295 cumulative IPC: 4.421 (Simulation time: 00 hr 02 min 01 sec)
[DUEL] Epoch ended. INSTR misses = 0, DATA misses = 0. Winner = INSTR
Heartbeat CPU 0 instructions: 60000003 cycles: 11452927 heartbeat IPC: 5.714 cumulative IPC: 4.782 (Simulation time: 00 hr 02 min 26 sec)
[DUEL] Epoch ended. INSTR misses = 7, DATA misses = 9. Winner = INSTR
[DUEL] Epoch ended. INSTR misses = 4, DATA misses = 6. Winner = INSTR
[DUEL] Epoch ended. INSTR misses = 53, DATA misses = 65. Winner = INSTR
[DUEL] Epoch ended. INSTR misses = 6, DATA misses = 10. Winner = INSTR
*** Reached end of trace: (0, "../traces/secret_traces/crypto/crypto57.champsimtrace.xz")
[DUEL] Epoch ended. INSTR misses = 14, DATA misses = 31. Winner = INSTR
[DUEL] Epoch ended. INSTR misses = 15, DATA misses = 21. Winner = INSTR
[DUEL] Epoch ended. INSTR misses = 0, DATA misses = 0. Winner = INSTR
[DUEL] Epoch ended. INSTR misses = 0, DATA misses = 0. Winner = INSTR
[DUEL] Epoch ended. INSTR misses = 0, DATA misses = 0. Winner = INSTR
[DUEL] Epoch ended. INSTR misses = 0, DATA misses = 0. Winner = INSTR
Heartbeat CPU 0 instructions: 70000002 cycles: 13886706 heartbeat IPC: 4.109 cumulative IPC: 4.594 (Simulation time: 00 hr 02 min 56 sec)
[DUEL] Epoch ended. INSTR misses = 0, DATA misses = 0. Winner = INSTR
[DUEL] Epoch ended. INSTR misses = 0, DATA misses = 0. Winner = INSTR
[DUEL] Epoch ended. INSTR misses = 0, DATA misses = 0. Winner = INSTR
[DUEL] Epoch ended. INSTR misses = 2, DATA misses = 0. Winner = DATA
[DUEL] Epoch ended. INSTR misses = 3, DATA misses = 0. Winner = DATA
[DUEL] Epoch ended. INSTR misses = 4, DATA misses = 2. Winner = DATA
[DUEL] Epoch ended. INSTR misses = 7, DATA misses = 0. Winner = DATA
[DUEL] Epoch ended. INSTR misses = 0, DATA misses = 0. Winner = INSTR
Heartbeat CPU 0 instructions: 80000001 cycles: 15820370 heartbeat IPC: 5.172 cumulative IPC: 4.699 (Simulation time: 00 hr 03 min 23 sec)
[DUEL] Epoch ended. INSTR misses = 7, DATA misses = 7. Winner = INSTR
[DUEL] Epoch ended. INSTR misses = 4, DATA misses = 6. Winner = INSTR
[DUEL] Epoch ended. INSTR misses = 53, DATA misses = 63. Winner = INSTR
Heartbeat CPU 0 instructions: 90000009 cycles: 17946485 heartbeat IPC: 4.703 cumulative IPC: 4.7 (Simulation time: 00 hr 03 min 50 sec)
[DUEL] Epoch ended. INSTR misses = 6, DATA misses = 9. Winner = INSTR
*** Reached end of trace: (0, "../traces/secret_traces/crypto/crypto57.champsimtrace.xz")
[DUEL] Epoch ended. INSTR misses = 14, DATA misses = 29. Winner = INSTR
[DUEL] Epoch ended. INSTR misses = 13, DATA misses = 19. Winner = INSTR
[DUEL] Epoch ended. INSTR misses = 0, DATA misses = 0. Winner = INSTR
[DUEL] Epoch ended. INSTR misses = 0, DATA misses = 0. Winner = INSTR
[DUEL] Epoch ended. INSTR misses = 0, DATA misses = 0. Winner = INSTR
[DUEL] Epoch ended. INSTR misses = 0, DATA misses = 0. Winner = INSTR
[DUEL] Epoch ended. INSTR misses = 0, DATA misses = 0. Winner = INSTR
[DUEL] Epoch ended. INSTR misses = 0, DATA misses = 0. Winner = INSTR
[DUEL] Epoch ended. INSTR misses = 0, DATA misses = 0. Winner = INSTR
[DUEL] Epoch ended. INSTR misses = 0, DATA misses = 0. Winner = INSTR
[DUEL] Epoch ended. INSTR misses = 3, DATA misses = 0. Winner = DATA
[DUEL] Epoch ended. INSTR misses = 5, DATA misses = 1. Winner = DATA
[DUEL] Epoch ended. INSTR misses = 10, DATA misses = 0. Winner = DATA
[DUEL] Epoch ended. INSTR misses = 0, DATA misses = 0. Winner = INSTR
Heartbeat CPU 0 instructions: 100000001 cycles: 20135399 heartbeat IPC: 4.568 cumulative IPC: 4.68 (Simulation time: 00 hr 04 min 19 sec)
[DUEL] Epoch ended. INSTR misses = 7, DATA misses = 8. Winner = INSTR
[DUEL] Epoch ended. INSTR misses = 2, DATA misses = 7. Winner = INSTR
[DUEL] Epoch ended. INSTR misses = 50, DATA misses = 62. Winner = INSTR
Heartbeat CPU 0 instructions: 110000002 cycles: 22244491 heartbeat IPC: 4.741 cumulative IPC: 4.688 (Simulation time: 00 hr 04 min 46 sec)
[DUEL] Epoch ended. INSTR misses = 6, DATA misses = 6. Winner = INSTR
*** Reached end of trace: (0, "../traces/secret_traces/crypto/crypto57.champsimtrace.xz")
[DUEL] Epoch ended. INSTR misses = 15, DATA misses = 30. Winner = INSTR
[DUEL] Epoch ended. INSTR misses = 13, DATA misses = 19. Winner = INSTR
[DUEL] Epoch ended. INSTR misses = 0, DATA misses = 0. Winner = INSTR
[DUEL] Epoch ended. INSTR misses = 0, DATA misses = 0. Winner = INSTR
[DUEL] Epoch ended. INSTR misses = 0, DATA misses = 0. Winner = INSTR
[DUEL] Epoch ended. INSTR misses = 0, DATA misses = 0. Winner = INSTR
[DUEL] Epoch ended. INSTR misses = 0, DATA misses = 0. Winner = INSTR
[DUEL] Epoch ended. INSTR misses = 0, DATA misses = 0. Winner = INSTR
[DUEL] Epoch ended. INSTR misses = 0, DATA misses = 0. Winner = INSTR
[DUEL] Epoch ended. INSTR misses = 0, DATA misses = 0. Winner = INSTR
[DUEL] Epoch ended. INSTR misses = 3, DATA misses = 0. Winner = DATA
[DUEL] Epoch ended. INSTR misses = 5, DATA misses = 2. Winner = DATA
[DUEL] Epoch ended. INSTR misses = 11, DATA misses = 0. Winner = DATA
Heartbeat CPU 0 instructions: 120000003 cycles: 24361775 heartbeat IPC: 4.723 cumulative IPC: 4.692 (Simulation time: 00 hr 05 min 14 sec)
[DUEL] Epoch ended. INSTR misses = 0, DATA misses = 0. Winner = INSTR
Heartbeat CPU 0 instructions: 130000007 cycles: 26101561 heartbeat IPC: 5.748 cumulative IPC: 4.78 (Simulation time: 00 hr 05 min 40 sec)
Simulation finished CPU 0 instructions: 100000007 cycles: 20922090 cumulative IPC: 4.78 (Simulation time: 00 hr 05 min 40 sec)
Simulation complete CPU 0 instructions: 100000007 cycles: 20922090 cumulative IPC: 4.78 (Simulation time: 00 hr 05 min 40 sec)

ChampSim completed all CPUs

=== Simulation ===
CPU 0 runs ../traces/secret_traces/crypto/crypto57.champsimtrace.xz
Region of Interest Statistics

CPU 0 cumulative IPC: 4.78 instructions: 100000007 cycles: 20922090
CPU 0 Branch Prediction Accuracy: 99.19% MPKI: 0.9793 Average ROB Occupancy at Mispredict: 33.39
Branch type MPKI
BRANCH_DIRECT_JUMP: 0.0579
BRANCH_INDIRECT: 0.519
BRANCH_CONDITIONAL: 0.12
BRANCH_DIRECT_CALL: 0.17
BRANCH_INDIRECT_CALL: 0.0213
BRANCH_RETURN: 0.0918

LLC TOTAL        ACCESS:     461791 HIT:     341114 MISS:     120677
LLC LOAD         ACCESS:      47360 HIT:      25705 MISS:      21655
LLC RFO          ACCESS:     143009 HIT:     115708 MISS:      27301
LLC PREFETCH     ACCESS:     111810 HIT:      62574 MISS:      49236
LLC WRITE        ACCESS:     156964 HIT:     136421 MISS:      20543
LLC TRANSLATION  ACCESS:       2648 HIT:        706 MISS:       1942
LLC PREFETCH REQUESTED:          0 ISSUED:          0 USEFUL:          0 USELESS:          0
LLC AVERAGE MISS LATENCY: 156.9 cycles
cpu0_DTLB TOTAL        ACCESS:    8170897 HIT:    8126314 MISS:      44583
cpu0_DTLB LOAD         ACCESS:    8170897 HIT:    8126314 MISS:      44583
cpu0_DTLB RFO          ACCESS:          0 HIT:          0 MISS:          0
cpu0_DTLB PREFETCH     ACCESS:          0 HIT:          0 MISS:          0
cpu0_DTLB WRITE        ACCESS:          0 HIT:          0 MISS:          0
cpu0_DTLB TRANSLATION  ACCESS:          0 HIT:          0 MISS:          0
cpu0_DTLB PREFETCH REQUESTED:          0 ISSUED:          0 USEFUL:          0 USELESS:          0
cpu0_DTLB AVERAGE MISS LATENCY: 9.829 cycles
cpu0_ITLB TOTAL        ACCESS:    6369281 HIT:    6354181 MISS:      15100
cpu0_ITLB LOAD         ACCESS:    6369281 HIT:    6354181 MISS:      15100
cpu0_ITLB RFO          ACCESS:          0 HIT:          0 MISS:          0
cpu0_ITLB PREFETCH     ACCESS:          0 HIT:          0 MISS:          0
cpu0_ITLB WRITE        ACCESS:          0 HIT:          0 MISS:          0
cpu0_ITLB TRANSLATION  ACCESS:          0 HIT:          0 MISS:          0
cpu0_ITLB PREFETCH REQUESTED:          0 ISSUED:          0 USEFUL:          0 USELESS:          0
cpu0_ITLB AVERAGE MISS LATENCY: 17.8 cycles
cpu0_L1D TOTAL        ACCESS:   14067758 HIT:   13359409 MISS:     708349
cpu0_L1D LOAD         ACCESS:    5644085 HIT:    5472607 MISS:     171478
cpu0_L1D RFO          ACCESS:          0 HIT:          0 MISS:          0
cpu0_L1D PREFETCH     ACCESS:    1362620 HIT:    1203715 MISS:     158905
cpu0_L1D WRITE        ACCESS:    7055615 HIT:    6681079 MISS:     374536
cpu0_L1D TRANSLATION  ACCESS:       5438 HIT:       2008 MISS:       3430
cpu0_L1D PREFETCH REQUESTED:    4738722 ISSUED:    1362620 USEFUL:      12750 USELESS:       1670
cpu0_L1D AVERAGE MISS LATENCY: 25.2 cycles
cpu0_L1I TOTAL        ACCESS:    9457893 HIT:    9277656 MISS:     180237
cpu0_L1I LOAD         ACCESS:    2180228 HIT:    2140216 MISS:      40012
cpu0_L1I RFO          ACCESS:          0 HIT:          0 MISS:          0
cpu0_L1I PREFETCH     ACCESS:    7277665 HIT:    7137440 MISS:     140225
cpu0_L1I WRITE        ACCESS:          0 HIT:          0 MISS:          0
cpu0_L1I TRANSLATION  ACCESS:          0 HIT:          0 MISS:          0
cpu0_L1I PREFETCH REQUESTED:    8114181 ISSUED:    7277684 USEFUL:      78997 USELESS:      55615
cpu0_L1I AVERAGE MISS LATENCY: 30.21 cycles
cpu0_L2C TOTAL        ACCESS:    1127674 HIT:     733158 MISS:     394516
cpu0_L2C LOAD         ACCESS:     136824 HIT:      78541 MISS:      58283
cpu0_L2C RFO          ACCESS:     155013 HIT:      11941 MISS:     143072
cpu0_L2C PREFETCH     ACCESS:     655446 HIT:     464933 MISS:     190513
cpu0_L2C WRITE        ACCESS:     177060 HIT:     177060 MISS:          0
cpu0_L2C TRANSLATION  ACCESS:       3331 HIT:        683 MISS:       2648
cpu0_L2C PREFETCH REQUESTED:     402963 ISSUED:     389307 USEFUL:      29034 USELESS:      26394
cpu0_L2C AVERAGE MISS LATENCY: 61.46 cycles
cpu0_STLB TOTAL        ACCESS:      26236 HIT:      21260 MISS:       4976
cpu0_STLB LOAD         ACCESS:      26236 HIT:      21260 MISS:       4976
cpu0_STLB RFO          ACCESS:          0 HIT:          0 MISS:          0
cpu0_STLB PREFETCH     ACCESS:          0 HIT:          0 MISS:          0
cpu0_STLB WRITE        ACCESS:          0 HIT:          0 MISS:          0
cpu0_STLB TRANSLATION  ACCESS:          0 HIT:          0 MISS:          0
cpu0_STLB PREFETCH REQUESTED:          0 ISSUED:          0 USEFUL:          0 USELESS:          0
cpu0_STLB AVERAGE MISS LATENCY: 120.4 cycles

DRAM Statistics

Channel 0 RQ ROW_BUFFER_HIT:      24853
  ROW_BUFFER_MISS:      26135
 AVG DBUS CONGESTED CYCLE: 3.898
WQ ROW_BUFFER_HIT: Channel 0 
  ROW_BUFFER_MISS:       1946
  FULL:      13048

Channel 1 RQ ROW_BUFFER_HIT:      23541
  ROW_BUFFER_MISS:      25578
 AVG DBUS CONGESTED CYCLE: 3.878
WQ ROW_BUFFER_HIT: Channel 1 
  ROW_BUFFER_MISS:       1851
  FULL:      12259
BERTI TO_L1: 2058473 TO_L2: 3953496 TO_L2_BC_MSHR: 1834842
BERTI AVG_LAT: 63.0142 NUM_TRACK_LATENCY: 169682 NUM_CANT_TRACK_LATENCY: 0
BERTI CROSS_PAGE 953466 NO_CROSS_PAGE: 5058503
BERTI FOUND_BERTI: 2100724 NO_FOUND_BERTI: 6092808
BERTI AVERAGE_ISSUED: 3.83335
CPU 0 L1I Entangling prefetcher final stats
IP accesses: 3e6e f9b80 84563 / 2181345
IP misses: 25bf 96fc0 196 / 41129
IP hits: 0 0 0 / 0
IP late: 59b0 166c00 51 / 19848
IP wrong: f801 3e0040 135 / 55387
miss rate: 0.0188549
coverage: 0
coverage_late: 0.48258
accuracy: 0
accuracy_late: 0.263814
discarded: 0
evicts entangled j table: 0
evicts entangled k table: 7089
max bb size: 53
formats: 1679 0 5659 2783 1086 2102 0 
hist_lookups: 4366 5199 4180 3664 3326 2827 2200 1584 1245 1033 789 523 336 192 100 0 3 7844 
hist_lookups_evict: 0.00761209 %
hist_lookups_shortlat: 19.9031 %
bb_found_hist: 0 675796 238499 210781 65729 4275 2105 1508 526 141 6 109 119 98 28 40 4 0 0 0 0 8 0 0 0 0 0 0 0 0 0 4 4 0 4 0 0 0 0 0 0 0 0 0 0 0 0 0 0 0 0 0 0 4 0 0 0 0 0 0 0 0 0 0 
bb_found_summary: 2103876 1199788 1.75354
entangled_found_hist: 0 333155 188475 534571 29428 2527 515 0 
entangled_found_summary: 2447255 1088671 2.24793
bb_ent_found_hist: 0 912571 177211 297359 202672 40552 4480 58126 2126 200 0 224 115 106 13 120 267 0 0 0 0 25 0 0 0 0 0 0 0 0 0 4 4 0 4 0 0 0 0 0 0 0 0 0 0 0 0 0 0 0 0 0 0 7 0 0 0 0 0 0 0 0 0 0 
bb_ent_found_summary: 3637848 1696186 2.14473
