WARNING: physical memory size is smaller than virtual memory size.

*** ChampSim Multicore Out-of-Order Simulator ***
Warmup Instructions: 30000000
Simulation Instructions: 100000000
Number of CPUs: 1
Page size: 4096

BTB:
Basic BTB sets: 1024 ways: 8
Indirect:
history lengths: 0 0 10 16 27 44 60 96 109 219 449 487 714 1313 2146 3881 
ITTAGE tables: 64768 bytes;Region table: 240 bytes;IUM: 384 bytes;Total Storage= 65392 bytes;
RAS:
RAS size: 64
[LLC] INSTR Demand IPV: 1 2 2 1 4 Prefetch IPV: 1 2 1 1 4
[LLC] DATA  Demand IPV: 1 1 1 2 4 Prefetch IPV: 1 1 2 2 4
Berti Prefetcher
CPU 0 Entangling prefetcher
Off-chip DRAM Size: 8 GiB Channels: 2 Width: 64-bit Data Race: 6400 MT/s
[DUEL] Epoch ended. INSTR misses = 53, DATA misses = 60. Winner = INSTR
[DUEL] Epoch ended. INSTR misses = 20, DATA misses = 21. Winner = INSTR
[DUEL] Epoch ended. INSTR misses = 0, DATA misses = 0. Winner = INSTR
[DUEL] Epoch ended. INSTR misses = 0, DATA misses = 0. Winner = INSTR
[DUEL] Epoch ended. INSTR misses = 0, DATA misses = 0. Winner = INSTR
[DUEL] Epoch ended. INSTR misses = 0, DATA misses = 0. Winner = INSTR
[DUEL] Epoch ended. INSTR misses = 16, DATA misses = 16. Winner = INSTR
[DUEL] Epoch ended. INSTR misses = 0, DATA misses = 0. Winner = INSTR
[DUEL] Epoch ended. INSTR misses = 0, DATA misses = 3. Winner = INSTR
[DUEL] Epoch ended. INSTR misses = 6, DATA misses = 4. Winner = DATA
[DUEL] Epoch ended. INSTR misses = 0, DATA misses = 5. Winner = INSTR
[DUEL] Epoch ended. INSTR misses = 3, DATA misses = 0. Winner = DATA
[DUEL] Epoch ended. INSTR misses = 0, DATA misses = 0. Winner = INSTR
Heartbeat CPU 0 instructions: 10000006 cycles: 1715579 heartbeat IPC: 5.829 cumulative IPC: 5.829 (Simulation time: 00 hr 00 min 22 sec)
[DUEL] Epoch ended. INSTR misses = 13, DATA misses = 21. Winner = INSTR
[DUEL] Epoch ended. INSTR misses = 22, DATA misses = 25. Winner = INSTR
[DUEL] Epoch ended. INSTR misses = 102, DATA misses = 95. Winner = DATA
Heartbeat CPU 0 instructions: 20000006 cycles: 3431864 heartbeat IPC: 5.827 cumulative IPC: 5.828 (Simulation time: 00 hr 00 min 45 sec)
[DUEL] Epoch ended. INSTR misses = 57, DATA misses = 62. Winner = INSTR
Heartbeat CPU 0 instructions: 30000003 cycles: 5098606 heartbeat IPC: 6 cumulative IPC: 5.884 (Simulation time: 00 hr 01 min 07 sec)
Warmup finished CPU 0 instructions: 30000003 cycles: 5098607 cumulative IPC: 5.884 (Simulation time: 00 hr 01 min 07 sec)
Warmup complete CPU 0 instructions: 30000003 cycles: 5098607 cumulative IPC: 5.884 (Simulation time: 00 hr 01 min 07 sec)
[DUEL] Epoch ended. INSTR misses = 4, DATA misses = 3. Winner = DATA
Heartbeat CPU 0 instructions: 40000002 cycles: 6766410 heartbeat IPC: 5.996 cumulative IPC: 5.996 (Simulation time: 00 hr 01 min 32 sec)
Heartbeat CPU 0 instructions: 50000000 cycles: 8433077 heartbeat IPC: 6 cumulative IPC: 5.998 (Simulation time: 00 hr 01 min 57 sec)
[DUEL] Epoch ended. INSTR misses = 0, DATA misses = 3. Winner = INSTR
Heartbeat CPU 0 instructions: 60000002 cycles: 10101288 heartbeat IPC: 5.994 cumulative IPC: 5.997 (Simulation time: 00 hr 02 min 22 sec)
[DUEL] Epoch ended. INSTR misses = 1, DATA misses = 2. Winner = INSTR
[DUEL] Epoch ended. INSTR misses = 0, DATA misses = 1. Winner = INSTR
*** Reached end of trace: (0, "../traces/secret_traces/crypto/crypto86.champsimtrace.xz")
[DUEL] Epoch ended. INSTR misses = 15, DATA misses = 36. Winner = INSTR
[DUEL] Epoch ended. INSTR misses = 33, DATA misses = 23. Winner = DATA
[DUEL] Epoch ended. INSTR misses = 1, DATA misses = 2. Winner = INSTR
[DUEL] Epoch ended. INSTR misses = 0, DATA misses = 0. Winner = INSTR
[DUEL] Epoch ended. INSTR misses = 0, DATA misses = 0. Winner = INSTR
[DUEL] Epoch ended. INSTR misses = 0, DATA misses = 0. Winner = INSTR
[DUEL] Epoch ended. INSTR misses = 0, DATA misses = 0. Winner = INSTR
[DUEL] Epoch ended. INSTR misses = 0, DATA misses = 0. Winner = INSTR
[DUEL] Epoch ended. INSTR misses = 0, DATA misses = 0. Winner = INSTR
[DUEL] Epoch ended. INSTR misses = 2, DATA misses = 4. Winner = INSTR
[DUEL] Epoch ended. INSTR misses = 1, DATA misses = 0. Winner = DATA
[DUEL] Epoch ended. INSTR misses = 0, DATA misses = 4. Winner = INSTR
Heartbeat CPU 0 instructions: 70000001 cycles: 12467197 heartbeat IPC: 4.227 cumulative IPC: 5.428 (Simulation time: 00 hr 02 min 51 sec)
[DUEL] Epoch ended. INSTR misses = 3, DATA misses = 0. Winner = DATA
Heartbeat CPU 0 instructions: 80000008 cycles: 14193311 heartbeat IPC: 5.793 cumulative IPC: 5.498 (Simulation time: 00 hr 03 min 16 sec)
[DUEL] Epoch ended. INSTR misses = 6, DATA misses = 13. Winner = INSTR
[DUEL] Epoch ended. INSTR misses = 8, DATA misses = 4. Winner = DATA
[DUEL] Epoch ended. INSTR misses = 33, DATA misses = 48. Winner = INSTR
Heartbeat CPU 0 instructions: 90000004 cycles: 16489855 heartbeat IPC: 4.354 cumulative IPC: 5.267 (Simulation time: 00 hr 03 min 46 sec)
[DUEL] Epoch ended. INSTR misses = 30, DATA misses = 44. Winner = INSTR
Heartbeat CPU 0 instructions: 100000009 cycles: 18170665 heartbeat IPC: 5.95 cumulative IPC: 5.355 (Simulation time: 00 hr 04 min 11 sec)
[DUEL] Epoch ended. INSTR misses = 2, DATA misses = 2. Winner = INSTR
Heartbeat CPU 0 instructions: 110000000 cycles: 19838275 heartbeat IPC: 5.997 cumulative IPC: 5.428 (Simulation time: 00 hr 04 min 36 sec)
[DUEL] Epoch ended. INSTR misses = 0, DATA misses = 1. Winner = INSTR
Heartbeat CPU 0 instructions: 120000002 cycles: 21506156 heartbeat IPC: 5.996 cumulative IPC: 5.485 (Simulation time: 00 hr 05 min 01 sec)
[DUEL] Epoch ended. INSTR misses = 1, DATA misses = 1. Winner = INSTR
[DUEL] Epoch ended. INSTR misses = 0, DATA misses = 0. Winner = INSTR
*** Reached end of trace: (0, "../traces/secret_traces/crypto/crypto86.champsimtrace.xz")
[DUEL] Epoch ended. INSTR misses = 8, DATA misses = 21. Winner = INSTR
[DUEL] Epoch ended. INSTR misses = 29, DATA misses = 20. Winner = DATA
[DUEL] Epoch ended. INSTR misses = 1, DATA misses = 2. Winner = INSTR
[DUEL] Epoch ended. INSTR misses = 0, DATA misses = 0. Winner = INSTR
[DUEL] Epoch ended. INSTR misses = 0, DATA misses = 0. Winner = INSTR
Heartbeat CPU 0 instructions: 130000007 cycles: 23526717 heartbeat IPC: 4.949 cumulative IPC: 5.426 (Simulation time: 00 hr 05 min 28 sec)
Simulation finished CPU 0 instructions: 100000004 cycles: 18428111 cumulative IPC: 5.426 (Simulation time: 00 hr 05 min 28 sec)
Simulation complete CPU 0 instructions: 100000004 cycles: 18428111 cumulative IPC: 5.426 (Simulation time: 00 hr 05 min 28 sec)

ChampSim completed all CPUs

=== Simulation ===
CPU 0 runs ../traces/secret_traces/crypto/crypto86.champsimtrace.xz
Region of Interest Statistics

CPU 0 cumulative IPC: 5.426 instructions: 100000004 cycles: 18428111
CPU 0 Branch Prediction Accuracy: 99.71% MPKI: 0.4058 Average ROB Occupancy at Mispredict: 29.73
Branch type MPKI
BRANCH_DIRECT_JUMP: 0.0208
BRANCH_INDIRECT: 0.193
BRANCH_CONDITIONAL: 0.0918
BRANCH_DIRECT_CALL: 0.0599
BRANCH_INDIRECT_CALL: 0.00722
BRANCH_RETURN: 0.0327

LLC TOTAL        ACCESS:     142561 HIT:      95232 MISS:      47329
LLC LOAD         ACCESS:      14572 HIT:       7363 MISS:       7209
LLC RFO          ACCESS:      40949 HIT:      28582 MISS:      12367
LLC PREFETCH     ACCESS:      36510 HIT:      17708 MISS:      18802
LLC WRITE        ACCESS:      49589 HIT:      41381 MISS:       8208
LLC TRANSLATION  ACCESS:        941 HIT:        198 MISS:        743
LLC PREFETCH REQUESTED:          0 ISSUED:          0 USEFUL:          0 USELESS:          0
LLC AVERAGE MISS LATENCY: 178.9 cycles
cpu0_DTLB TOTAL        ACCESS:   13177368 HIT:   13163912 MISS:      13456
cpu0_DTLB LOAD         ACCESS:   13177368 HIT:   13163912 MISS:      13456
cpu0_DTLB RFO          ACCESS:          0 HIT:          0 MISS:          0
cpu0_DTLB PREFETCH     ACCESS:          0 HIT:          0 MISS:          0
cpu0_DTLB WRITE        ACCESS:          0 HIT:          0 MISS:          0
cpu0_DTLB TRANSLATION  ACCESS:          0 HIT:          0 MISS:          0
cpu0_DTLB PREFETCH REQUESTED:          0 ISSUED:          0 USEFUL:          0 USELESS:          0
cpu0_DTLB AVERAGE MISS LATENCY: 11.84 cycles
cpu0_ITLB TOTAL        ACCESS:     270387 HIT:     264607 MISS:       5780
cpu0_ITLB LOAD         ACCESS:     270387 HIT:     264607 MISS:       5780
cpu0_ITLB RFO          ACCESS:          0 HIT:          0 MISS:          0
cpu0_ITLB PREFETCH     ACCESS:          0 HIT:          0 MISS:          0
cpu0_ITLB WRITE        ACCESS:          0 HIT:          0 MISS:          0
cpu0_ITLB TRANSLATION  ACCESS:          0 HIT:          0 MISS:          0
cpu0_ITLB PREFETCH REQUESTED:          0 ISSUED:          0 USEFUL:          0 USELESS:          0
cpu0_ITLB AVERAGE MISS LATENCY: 21.32 cycles
cpu0_L1D TOTAL        ACCESS:   21527182 HIT:   21338443 MISS:     188739
cpu0_L1D LOAD         ACCESS:   13512086 HIT:   13462828 MISS:      49258
cpu0_L1D RFO          ACCESS:          0 HIT:          0 MISS:          0
cpu0_L1D PREFETCH     ACCESS:     155591 HIT:     124893 MISS:      30698
cpu0_L1D WRITE        ACCESS:    7857755 HIT:    7750178 MISS:     107577
cpu0_L1D TRANSLATION  ACCESS:       1750 HIT:        544 MISS:       1206
cpu0_L1D PREFETCH REQUESTED:    1431547 ISSUED:     155591 USEFUL:       3910 USELESS:        410
cpu0_L1D AVERAGE MISS LATENCY: 37.43 cycles
cpu0_L1I TOTAL        ACCESS:     393196 HIT:     325195 MISS:      68001
cpu0_L1I LOAD         ACCESS:     130356 HIT:     112350 MISS:      18006
cpu0_L1I RFO          ACCESS:          0 HIT:          0 MISS:          0
cpu0_L1I PREFETCH     ACCESS:     262840 HIT:     212845 MISS:      49995
cpu0_L1I WRITE        ACCESS:          0 HIT:          0 MISS:          0
cpu0_L1I TRANSLATION  ACCESS:          0 HIT:          0 MISS:          0
cpu0_L1I PREFETCH REQUESTED:     405959 ISSUED:     262840 USEFUL:      26417 USELESS:      20860
cpu0_L1I AVERAGE MISS LATENCY: 31.06 cycles
cpu0_L2C TOTAL        ACCESS:     330315 HIT:     210444 MISS:     119871
cpu0_L2C LOAD         ACCESS:      44799 HIT:      26649 MISS:      18150
cpu0_L2C RFO          ACCESS:      44987 HIT:       4014 MISS:      40973
cpu0_L2C PREFETCH     ACCESS:     187632 HIT:     127825 MISS:      59807
cpu0_L2C WRITE        ACCESS:      51720 HIT:      51720 MISS:          0
cpu0_L2C TRANSLATION  ACCESS:       1177 HIT:        236 MISS:        941
cpu0_L2C PREFETCH REQUESTED:     118159 ISSUED:     114272 USEFUL:      10273 USELESS:       7858
cpu0_L2C AVERAGE MISS LATENCY: 83.22 cycles
cpu0_STLB TOTAL        ACCESS:       9008 HIT:       7408 MISS:       1600
cpu0_STLB LOAD         ACCESS:       9008 HIT:       7408 MISS:       1600
cpu0_STLB RFO          ACCESS:          0 HIT:          0 MISS:          0
cpu0_STLB PREFETCH     ACCESS:          0 HIT:          0 MISS:          0
cpu0_STLB WRITE        ACCESS:          0 HIT:          0 MISS:          0
cpu0_STLB TRANSLATION  ACCESS:          0 HIT:          0 MISS:          0
cpu0_STLB PREFETCH REQUESTED:          0 ISSUED:          0 USEFUL:          0 USELESS:          0
cpu0_STLB AVERAGE MISS LATENCY: 149.8 cycles

DRAM Statistics

Channel 0 RQ ROW_BUFFER_HIT:       9058
  ROW_BUFFER_MISS:      10892
 AVG DBUS CONGESTED CYCLE: 3.909
WQ ROW_BUFFER_HIT: Channel 0 
  ROW_BUFFER_MISS:        945
  FULL:       6591

Channel 1 RQ ROW_BUFFER_HIT:       8582
  ROW_BUFFER_MISS:      10578
 AVG DBUS CONGESTED CYCLE: 3.892
WQ ROW_BUFFER_HIT: Channel 1 
  ROW_BUFFER_MISS:        834
  FULL:       6292
BERTI TO_L1: 571971 TO_L2: 1330682 TO_L2_BC_MSHR: 806939
BERTI AVG_LAT: 63.7526 NUM_TRACK_LATENCY: 68296 NUM_CANT_TRACK_LATENCY: 0
BERTI CROSS_PAGE 394704 NO_CROSS_PAGE: 1507949
BERTI FOUND_BERTI: 369987 NO_FOUND_BERTI: 17524611
BERTI AVERAGE_ISSUED: 4.43487
CPU 0 L1I Entangling prefetcher final stats
IP accesses: 6f71 1bdc40 871 / 130732
IP misses: 25bf 96fc0 73 / 18382
IP hits: 0 0 0 / 0
IP late: 381c e0700 18 / 8647
IP wrong: f801 3e0040 42 / 20768
miss rate: 0.140609
coverage: 0
coverage_late: 0.470406
accuracy: 0
accuracy_late: 0.293966
discarded: 0
evicts entangled j table: 0
evicts entangled k table: 2802
max bb size: 53
formats: 737 0 2509 1302 604 1237 0 
hist_lookups: 2451 2462 1808 1630 1459 1211 915 719 489 360 285 220 117 66 42 0 6 3483 
hist_lookups_evict: 0.0338544 %
hist_lookups_shortlat: 19.6525 %
bb_found_hist: 0 32315 13273 7079 3152 1495 595 471 171 41 0 51 32 20 11 13 1 0 0 0 0 3 0 0 0 0 0 0 0 0 0 1 0 0 1 0 0 0 0 0 0 0 0 0 0 0 0 0 0 0 0 0 0 1 0 0 0 0 0 0 0 0 0 0 
bb_found_summary: 110536 58726 1.88224
entangled_found_hist: 0 16571 12732 23482 4434 832 235 0 
entangled_found_summary: 135787 58286 2.32967
bb_ent_found_hist: 0 45665 19524 14114 5612 3173 1490 719 482 15 0 119 30 20 17 74 76 0 0 0 0 27 0 0 0 0 0 0 0 0 0 1 0 0 1 0 0 0 0 0 0 0 0 0 0 0 0 0 0 0 0 0 0 1 0 0 0 0 0 0 0 0 0 0 
bb_ent_found_summary: 188510 91160 2.06791
