WARNING: physical memory size is smaller than virtual memory size.

*** ChampSim Multicore Out-of-Order Simulator ***
Warmup Instructions: 30000000
Simulation Instructions: 100000000
Number of CPUs: 1
Page size: 4096

BTB:
Basic BTB sets: 1024 ways: 8
Indirect:
history lengths: 0 0 10 16 27 44 60 96 109 219 449 487 714 1313 2146 3881 
ITTAGE tables: 64768 bytes;Region table: 240 bytes;IUM: 384 bytes;Total Storage= 65392 bytes;
RAS:
RAS size: 64
[LLC] INSTR Demand IPV: 1 2 2 1 4 Prefetch IPV: 1 2 1 1 4
[LLC] DATA  Demand IPV: 1 1 1 2 4 Prefetch IPV: 1 1 2 2 4
Berti Prefetcher
CPU 0 Entangling prefetcher
Off-chip DRAM Size: 8 GiB Channels: 2 Width: 64-bit Data Race: 6400 MT/s
[DUEL] Epoch ended. INSTR misses = 52, DATA misses = 61. Winner = INSTR
[DUEL] Epoch ended. INSTR misses = 20, DATA misses = 21. Winner = INSTR
[DUEL] Epoch ended. INSTR misses = 0, DATA misses = 0. Winner = INSTR
[DUEL] Epoch ended. INSTR misses = 0, DATA misses = 0. Winner = INSTR
[DUEL] Epoch ended. INSTR misses = 0, DATA misses = 0. Winner = INSTR
[DUEL] Epoch ended. INSTR misses = 0, DATA misses = 0. Winner = INSTR
[DUEL] Epoch ended. INSTR misses = 16, DATA misses = 16. Winner = INSTR
[DUEL] Epoch ended. INSTR misses = 0, DATA misses = 0. Winner = INSTR
[DUEL] Epoch ended. INSTR misses = 0, DATA misses = 3. Winner = INSTR
[DUEL] Epoch ended. INSTR misses = 5, DATA misses = 2. Winner = DATA
[DUEL] Epoch ended. INSTR misses = 0, DATA misses = 0. Winner = INSTR
[DUEL] Epoch ended. INSTR misses = 3, DATA misses = 0. Winner = DATA
[DUEL] Epoch ended. INSTR misses = 0, DATA misses = 0. Winner = INSTR
Heartbeat CPU 0 instructions: 10000001 cycles: 1716618 heartbeat IPC: 5.825 cumulative IPC: 5.825 (Simulation time: 00 hr 00 min 20 sec)
[DUEL] Epoch ended. INSTR misses = 5, DATA misses = 9. Winner = INSTR
*** Reached end of trace: (0, "../traces/secret_traces/crypto/crypto35.champsimtrace.xz")
[DUEL] Epoch ended. INSTR misses = 0, DATA misses = 0. Winner = INSTR
[DUEL] Epoch ended. INSTR misses = 1, DATA misses = 1. Winner = INSTR
[DUEL] Epoch ended. INSTR misses = 0, DATA misses = 0. Winner = INSTR
[DUEL] Epoch ended. INSTR misses = 0, DATA misses = 0. Winner = INSTR
[DUEL] Epoch ended. INSTR misses = 0, DATA misses = 0. Winner = INSTR
[DUEL] Epoch ended. INSTR misses = 0, DATA misses = 0. Winner = INSTR
[DUEL] Epoch ended. INSTR misses = 0, DATA misses = 0. Winner = INSTR
[DUEL] Epoch ended. INSTR misses = 0, DATA misses = 0. Winner = INSTR
[DUEL] Epoch ended. INSTR misses = 0, DATA misses = 0. Winner = INSTR
Heartbeat CPU 0 instructions: 20000009 cycles: 3409775 heartbeat IPC: 5.906 cumulative IPC: 5.865 (Simulation time: 00 hr 00 min 41 sec)
[DUEL] Epoch ended. INSTR misses = 1, DATA misses = 0. Winner = DATA
[DUEL] Epoch ended. INSTR misses = 0, DATA misses = 0. Winner = INSTR
[DUEL] Epoch ended. INSTR misses = 0, DATA misses = 0. Winner = INSTR
[DUEL] Epoch ended. INSTR misses = 0, DATA misses = 0. Winner = INSTR
[DUEL] Epoch ended. INSTR misses = 0, DATA misses = 0. Winner = INSTR
Heartbeat CPU 0 instructions: 30000001 cycles: 5105377 heartbeat IPC: 5.898 cumulative IPC: 5.876 (Simulation time: 00 hr 01 min 01 sec)
Warmup finished CPU 0 instructions: 30000001 cycles: 5105378 cumulative IPC: 5.876 (Simulation time: 00 hr 01 min 01 sec)
Warmup complete CPU 0 instructions: 30000001 cycles: 5105378 cumulative IPC: 5.876 (Simulation time: 00 hr 01 min 01 sec)
[DUEL] Epoch ended. INSTR misses = 0, DATA misses = 0. Winner = INSTR
*** Reached end of trace: (0, "../traces/secret_traces/crypto/crypto35.champsimtrace.xz")
[DUEL] Epoch ended. INSTR misses = 2, DATA misses = 1. Winner = DATA
[DUEL] Epoch ended. INSTR misses = 1, DATA misses = 3. Winner = INSTR
[DUEL] Epoch ended. INSTR misses = 0, DATA misses = 0. Winner = INSTR
[DUEL] Epoch ended. INSTR misses = 0, DATA misses = 0. Winner = INSTR
[DUEL] Epoch ended. INSTR misses = 0, DATA misses = 0. Winner = INSTR
[DUEL] Epoch ended. INSTR misses = 0, DATA misses = 0. Winner = INSTR
[DUEL] Epoch ended. INSTR misses = 0, DATA misses = 0. Winner = INSTR
[DUEL] Epoch ended. INSTR misses = 0, DATA misses = 0. Winner = INSTR
[DUEL] Epoch ended. INSTR misses = 0, DATA misses = 0. Winner = INSTR
[DUEL] Epoch ended. INSTR misses = 0, DATA misses = 0. Winner = INSTR
[DUEL] Epoch ended. INSTR misses = 0, DATA misses = 0. Winner = INSTR
[DUEL] Epoch ended. INSTR misses = 0, DATA misses = 0. Winner = INSTR
[DUEL] Epoch ended. INSTR misses = 0, DATA misses = 0. Winner = INSTR
Heartbeat CPU 0 instructions: 40000008 cycles: 7271063 heartbeat IPC: 4.617 cumulative IPC: 4.617 (Simulation time: 00 hr 01 min 30 sec)
[DUEL] Epoch ended. INSTR misses = 0, DATA misses = 0. Winner = INSTR
Heartbeat CPU 0 instructions: 50000005 cycles: 9133299 heartbeat IPC: 5.37 cumulative IPC: 4.965 (Simulation time: 00 hr 01 min 58 sec)
[DUEL] Epoch ended. INSTR misses = 1, DATA misses = 0. Winner = DATA
*** Reached end of trace: (0, "../traces/secret_traces/crypto/crypto35.champsimtrace.xz")
[DUEL] Epoch ended. INSTR misses = 0, DATA misses = 0. Winner = INSTR
[DUEL] Epoch ended. INSTR misses = 0, DATA misses = 0. Winner = INSTR
[DUEL] Epoch ended. INSTR misses = 0, DATA misses = 0. Winner = INSTR
[DUEL] Epoch ended. INSTR misses = 0, DATA misses = 0. Winner = INSTR
[DUEL] Epoch ended. INSTR misses = 0, DATA misses = 0. Winner = INSTR
[DUEL] Epoch ended. INSTR misses = 0, DATA misses = 0. Winner = INSTR
[DUEL] Epoch ended. INSTR misses = 0, DATA misses = 0. Winner = INSTR
[DUEL] Epoch ended. INSTR misses = 0, DATA misses = 0. Winner = INSTR
[DUEL] Epoch ended. INSTR misses = 0, DATA misses = 0. Winner = INSTR
[DUEL] Epoch ended. INSTR misses = 0, DATA misses = 0. Winner = INSTR
[DUEL] Epoch ended. INSTR misses = 0, DATA misses = 0. Winner = INSTR
[DUEL] Epoch ended. INSTR misses = 0, DATA misses = 0. Winner = INSTR
[DUEL] Epoch ended. INSTR misses = 0, DATA misses = 0. Winner = INSTR
[DUEL] Epoch ended. INSTR misses = 0, DATA misses = 0. Winner = INSTR
Heartbeat CPU 0 instructions: 60000003 cycles: 11284510 heartbeat IPC: 4.649 cumulative IPC: 4.855 (Simulation time: 00 hr 02 min 26 sec)
Heartbeat CPU 0 instructions: 70000002 cycles: 13122831 heartbeat IPC: 5.44 cumulative IPC: 4.989 (Simulation time: 00 hr 02 min 54 sec)
[DUEL] Epoch ended. INSTR misses = 0, DATA misses = 0. Winner = INSTR
*** Reached end of trace: (0, "../traces/secret_traces/crypto/crypto35.champsimtrace.xz")
[DUEL] Epoch ended. INSTR misses = 0, DATA misses = 0. Winner = INSTR
[DUEL] Epoch ended. INSTR misses = 0, DATA misses = 0. Winner = INSTR
[DUEL] Epoch ended. INSTR misses = 0, DATA misses = 0. Winner = INSTR
[DUEL] Epoch ended. INSTR misses = 0, DATA misses = 0. Winner = INSTR
[DUEL] Epoch ended. INSTR misses = 0, DATA misses = 0. Winner = INSTR
[DUEL] Epoch ended. INSTR misses = 0, DATA misses = 0. Winner = INSTR
[DUEL] Epoch ended. INSTR misses = 0, DATA misses = 0. Winner = INSTR
[DUEL] Epoch ended. INSTR misses = 0, DATA misses = 0. Winner = INSTR
[DUEL] Epoch ended. INSTR misses = 0, DATA misses = 0. Winner = INSTR
[DUEL] Epoch ended. INSTR misses = 0, DATA misses = 0. Winner = INSTR
[DUEL] Epoch ended. INSTR misses = 0, DATA misses = 0. Winner = INSTR
[DUEL] Epoch ended. INSTR misses = 0, DATA misses = 0. Winner = INSTR
[DUEL] Epoch ended. INSTR misses = 0, DATA misses = 0. Winner = INSTR
[DUEL] Epoch ended. INSTR misses = 0, DATA misses = 0. Winner = INSTR
Heartbeat CPU 0 instructions: 80000000 cycles: 15260458 heartbeat IPC: 4.678 cumulative IPC: 4.924 (Simulation time: 00 hr 03 min 23 sec)
[DUEL] Epoch ended. INSTR misses = 1, DATA misses = 1. Winner = INSTR
*** Reached end of trace: (0, "../traces/secret_traces/crypto/crypto35.champsimtrace.xz")
[DUEL] Epoch ended. INSTR misses = 2, DATA misses = 0. Winner = DATA
[DUEL] Epoch ended. INSTR misses = 0, DATA misses = 1. Winner = INSTR
[DUEL] Epoch ended. INSTR misses = 0, DATA misses = 0. Winner = INSTR
[DUEL] Epoch ended. INSTR misses = 0, DATA misses = 0. Winner = INSTR
[DUEL] Epoch ended. INSTR misses = 0, DATA misses = 0. Winner = INSTR
[DUEL] Epoch ended. INSTR misses = 0, DATA misses = 0. Winner = INSTR
Heartbeat CPU 0 instructions: 90000002 cycles: 17259776 heartbeat IPC: 5.002 cumulative IPC: 4.936 (Simulation time: 00 hr 03 min 51 sec)
[DUEL] Epoch ended. INSTR misses = 0, DATA misses = 0. Winner = INSTR
[DUEL] Epoch ended. INSTR misses = 0, DATA misses = 0. Winner = INSTR
[DUEL] Epoch ended. INSTR misses = 0, DATA misses = 0. Winner = INSTR
[DUEL] Epoch ended. INSTR misses = 0, DATA misses = 0. Winner = INSTR
[DUEL] Epoch ended. INSTR misses = 0, DATA misses = 0. Winner = INSTR
[DUEL] Epoch ended. INSTR misses = 0, DATA misses = 0. Winner = INSTR
[DUEL] Epoch ended. INSTR misses = 0, DATA misses = 0. Winner = INSTR
[DUEL] Epoch ended. INSTR misses = 0, DATA misses = 0. Winner = INSTR
Heartbeat CPU 0 instructions: 100000001 cycles: 19230110 heartbeat IPC: 5.075 cumulative IPC: 4.956 (Simulation time: 00 hr 04 min 19 sec)
[DUEL] Epoch ended. INSTR misses = 0, DATA misses = 0. Winner = INSTR
*** Reached end of trace: (0, "../traces/secret_traces/crypto/crypto35.champsimtrace.xz")
[DUEL] Epoch ended. INSTR misses = 0, DATA misses = 0. Winner = INSTR
[DUEL] Epoch ended. INSTR misses = 0, DATA misses = 0. Winner = INSTR
[DUEL] Epoch ended. INSTR misses = 0, DATA misses = 0. Winner = INSTR
[DUEL] Epoch ended. INSTR misses = 0, DATA misses = 0. Winner = INSTR
[DUEL] Epoch ended. INSTR misses = 0, DATA misses = 0. Winner = INSTR
[DUEL] Epoch ended. INSTR misses = 0, DATA misses = 0. Winner = INSTR
[DUEL] Epoch ended. INSTR misses = 0, DATA misses = 0. Winner = INSTR
[DUEL] Epoch ended. INSTR misses = 0, DATA misses = 0. Winner = INSTR
[DUEL] Epoch ended. INSTR misses = 0, DATA misses = 0. Winner = INSTR
[DUEL] Epoch ended. INSTR misses = 0, DATA misses = 0. Winner = INSTR
[DUEL] Epoch ended. INSTR misses = 0, DATA misses = 0. Winner = INSTR
[DUEL] Epoch ended. INSTR misses = 0, DATA misses = 0. Winner = INSTR
[DUEL] Epoch ended. INSTR misses = 0, DATA misses = 0. Winner = INSTR
Heartbeat CPU 0 instructions: 110000008 cycles: 21339365 heartbeat IPC: 4.741 cumulative IPC: 4.928 (Simulation time: 00 hr 04 min 47 sec)
[DUEL] Epoch ended. INSTR misses = 0, DATA misses = 0. Winner = INSTR
Heartbeat CPU 0 instructions: 120000000 cycles: 23198521 heartbeat IPC: 5.379 cumulative IPC: 4.974 (Simulation time: 00 hr 05 min 15 sec)
[DUEL] Epoch ended. INSTR misses = 0, DATA misses = 0. Winner = INSTR
*** Reached end of trace: (0, "../traces/secret_traces/crypto/crypto35.champsimtrace.xz")
[DUEL] Epoch ended. INSTR misses = 0, DATA misses = 0. Winner = INSTR
[DUEL] Epoch ended. INSTR misses = 0, DATA misses = 0. Winner = INSTR
[DUEL] Epoch ended. INSTR misses = 0, DATA misses = 0. Winner = INSTR
[DUEL] Epoch ended. INSTR misses = 0, DATA misses = 0. Winner = INSTR
[DUEL] Epoch ended. INSTR misses = 0, DATA misses = 0. Winner = INSTR
[DUEL] Epoch ended. INSTR misses = 0, DATA misses = 0. Winner = INSTR
[DUEL] Epoch ended. INSTR misses = 0, DATA misses = 0. Winner = INSTR
[DUEL] Epoch ended. INSTR misses = 0, DATA misses = 0. Winner = INSTR
[DUEL] Epoch ended. INSTR misses = 0, DATA misses = 0. Winner = INSTR
[DUEL] Epoch ended. INSTR misses = 0, DATA misses = 0. Winner = INSTR
[DUEL] Epoch ended. INSTR misses = 0, DATA misses = 0. Winner = INSTR
[DUEL] Epoch ended. INSTR misses = 0, DATA misses = 0. Winner = INSTR
[DUEL] Epoch ended. INSTR misses = 0, DATA misses = 0. Winner = INSTR
Heartbeat CPU 0 instructions: 130000001 cycles: 25306375 heartbeat IPC: 4.744 cumulative IPC: 4.95 (Simulation time: 00 hr 05 min 43 sec)
Simulation finished CPU 0 instructions: 100000000 cycles: 20200998 cumulative IPC: 4.95 (Simulation time: 00 hr 05 min 43 sec)
Simulation complete CPU 0 instructions: 100000000 cycles: 20200998 cumulative IPC: 4.95 (Simulation time: 00 hr 05 min 43 sec)

ChampSim completed all CPUs

=== Simulation ===
CPU 0 runs ../traces/secret_traces/crypto/crypto35.champsimtrace.xz
Region of Interest Statistics

CPU 0 cumulative IPC: 4.95 instructions: 100000000 cycles: 20200998
CPU 0 Branch Prediction Accuracy: 98.42% MPKI: 0.8771 Average ROB Occupancy at Mispredict: 28.38
Branch type MPKI
BRANCH_DIRECT_JUMP: 0.0452
BRANCH_INDIRECT: 0.5
BRANCH_CONDITIONAL: 0.0893
BRANCH_DIRECT_CALL: 0.145
BRANCH_INDIRECT_CALL: 0.0205
BRANCH_RETURN: 0.0773

LLC TOTAL        ACCESS:     198939 HIT:     197101 MISS:       1838
LLC LOAD         ACCESS:      25206 HIT:      25167 MISS:         39
LLC RFO          ACCESS:      56009 HIT:      55996 MISS:         13
LLC PREFETCH     ACCESS:      55205 HIT:      53601 MISS:       1604
LLC WRITE        ACCESS:      61713 HIT:      61696 MISS:         17
LLC TRANSLATION  ACCESS:        806 HIT:        641 MISS:        165
LLC PREFETCH REQUESTED:          0 ISSUED:          0 USEFUL:          0 USELESS:          0
LLC AVERAGE MISS LATENCY: 156 cycles
cpu0_DTLB TOTAL        ACCESS:   17028449 HIT:   17006703 MISS:      21746
cpu0_DTLB LOAD         ACCESS:   17028449 HIT:   17006703 MISS:      21746
cpu0_DTLB RFO          ACCESS:          0 HIT:          0 MISS:          0
cpu0_DTLB PREFETCH     ACCESS:          0 HIT:          0 MISS:          0
cpu0_DTLB WRITE        ACCESS:          0 HIT:          0 MISS:          0
cpu0_DTLB TRANSLATION  ACCESS:          0 HIT:          0 MISS:          0
cpu0_DTLB PREFETCH REQUESTED:          0 ISSUED:          0 USEFUL:          0 USELESS:          0
cpu0_DTLB AVERAGE MISS LATENCY: 5.216 cycles
cpu0_ITLB TOTAL        ACCESS:    1290090 HIT:    1278006 MISS:      12084
cpu0_ITLB LOAD         ACCESS:    1290090 HIT:    1278006 MISS:      12084
cpu0_ITLB RFO          ACCESS:          0 HIT:          0 MISS:          0
cpu0_ITLB PREFETCH     ACCESS:          0 HIT:          0 MISS:          0
cpu0_ITLB WRITE        ACCESS:          0 HIT:          0 MISS:          0
cpu0_ITLB TRANSLATION  ACCESS:          0 HIT:          0 MISS:          0
cpu0_ITLB PREFETCH REQUESTED:          0 ISSUED:          0 USEFUL:          0 USELESS:          0
cpu0_ITLB AVERAGE MISS LATENCY: 7.487 cycles
cpu0_L1D TOTAL        ACCESS:   33247819 HIT:   32928361 MISS:     319458
cpu0_L1D LOAD         ACCESS:   12932544 HIT:   12834722 MISS:      97822
cpu0_L1D RFO          ACCESS:          0 HIT:          0 MISS:          0
cpu0_L1D PREFETCH     ACCESS:   17377316 HIT:   17292838 MISS:      84478
cpu0_L1D WRITE        ACCESS:    2935904 HIT:    2799960 MISS:     135944
cpu0_L1D TRANSLATION  ACCESS:       2055 HIT:        841 MISS:       1214
cpu0_L1D PREFETCH REQUESTED:   18794611 ISSUED:   17377316 USEFUL:       6390 USELESS:       1842
cpu0_L1D AVERAGE MISS LATENCY: 10.48 cycles
cpu0_L1I TOTAL        ACCESS:    1823449 HIT:    1704994 MISS:     118455
cpu0_L1I LOAD         ACCESS:     496844 HIT:     473748 MISS:      23096
cpu0_L1I RFO          ACCESS:          0 HIT:          0 MISS:          0
cpu0_L1I PREFETCH     ACCESS:    1326605 HIT:    1231246 MISS:      95359
cpu0_L1I WRITE        ACCESS:          0 HIT:          0 MISS:          0
cpu0_L1I TRANSLATION  ACCESS:          0 HIT:          0 MISS:          0
cpu0_L1I PREFETCH REQUESTED:    1582071 ISSUED:    1326618 USEFUL:      59394 USELESS:      32623
cpu0_L1I AVERAGE MISS LATENCY: 15.61 cycles
cpu0_L2C TOTAL        ACCESS:     640953 HIT:     481356 MISS:     159597
cpu0_L2C LOAD         ACCESS:      79476 HIT:      53939 MISS:      25537
cpu0_L2C RFO          ACCESS:      69140 HIT:      13114 MISS:      56026
cpu0_L2C PREFETCH     ACCESS:     406944 HIT:     329716 MISS:      77228
cpu0_L2C WRITE        ACCESS:      84250 HIT:      84250 MISS:          0
cpu0_L2C TRANSLATION  ACCESS:       1143 HIT:        337 MISS:        806
cpu0_L2C PREFETCH REQUESTED:     250184 ISSUED:     236236 USEFUL:      11165 USELESS:      17157
cpu0_L2C AVERAGE MISS LATENCY: 19.2 cycles
cpu0_STLB TOTAL        ACCESS:      19203 HIT:      17309 MISS:       1894
cpu0_STLB LOAD         ACCESS:      19203 HIT:      17309 MISS:       1894
cpu0_STLB RFO          ACCESS:          0 HIT:          0 MISS:          0
cpu0_STLB PREFETCH     ACCESS:          0 HIT:          0 MISS:          0
cpu0_STLB WRITE        ACCESS:          0 HIT:          0 MISS:          0
cpu0_STLB TRANSLATION  ACCESS:          0 HIT:          0 MISS:          0
cpu0_STLB PREFETCH REQUESTED:          0 ISSUED:          0 USEFUL:          0 USELESS:          0
cpu0_STLB AVERAGE MISS LATENCY: 43.88 cycles

DRAM Statistics

Channel 0 RQ ROW_BUFFER_HIT:        107
  ROW_BUFFER_MISS:        852
 AVG DBUS CONGESTED CYCLE: 3.574
WQ ROW_BUFFER_HIT: Channel 0 
  ROW_BUFFER_MISS:          0
  FULL:         18

Channel 1 RQ ROW_BUFFER_HIT:        126
  ROW_BUFFER_MISS:        736
 AVG DBUS CONGESTED CYCLE: 3.642
WQ ROW_BUFFER_HIT: Channel 1 
  ROW_BUFFER_MISS:          1
  FULL:          5
BERTI TO_L1: 23444736 TO_L2: 988202 TO_L2_BC_MSHR: 175479
BERTI AVG_LAT: 19.2928 NUM_TRACK_LATENCY: 98270 NUM_CANT_TRACK_LATENCY: 0
BERTI CROSS_PAGE 3476614 NO_CROSS_PAGE: 20956324
BERTI FOUND_BERTI: 2190902 NO_FOUND_BERTI: 14941265
BERTI AVERAGE_ISSUED: 13.4809
CPU 0 L1I Entangling prefetcher final stats
IP accesses: 1f30 7cc00 28158 / 497288
IP misses: f7cb 3df2c0 215 / 23540
IP hits: 0 0 0 / 0
IP late: 20a3 828c0 45 / 11350
IP wrong: f7ed 3dfb40 95 / 32483
miss rate: 0.0473368
coverage: 0
coverage_late: 0.482159
accuracy: 0
accuracy_late: 0.258938
discarded: 0
evicts entangled j table: 0
evicts entangled k table: 4110
max bb size: 53
formats: 1093 0 3203 1619 537 1198 0 
hist_lookups: 2755 3080 2361 2002 1847 1674 1274 886 745 638 419 237 142 78 39 0 27 4514 
hist_lookups_evict: 0.118849 %
hist_lookups_shortlat: 19.8698 %
bb_found_hist: 0 134371 39911 26750 6878 15878 1592 1076 313 139 0 39 24 0 24 27 6 0 0 0 0 12 0 0 0 0 0 0 0 0 0 6 6 0 6 0 0 0 0 0 0 0 0 0 0 0 0 0 0 0 0 0 0 6 0 0 0 0 0 0 0 0 0 0 
bb_found_summary: 424890 227064 1.87124
entangled_found_hist: 0 63488 46823 116883 10152 1919 739 0 
entangled_found_summary: 562420 240004 2.34338
bb_ent_found_hist: 0 195397 65360 38918 18625 10630 1573 5399 947 75 0 53 76 0 6 153 411 0 0 0 0 33 0 0 0 0 0 0 0 0 0 12 6 0 6 0 0 0 0 0 0 0 0 0 0 0 0 0 0 0 0 0 0 10 0 0 0 0 0 0 0 0 0 0 
bb_ent_found_summary: 638444 337690 1.89063
