WARNING: physical memory size is smaller than virtual memory size.

*** ChampSim Multicore Out-of-Order Simulator ***
Warmup Instructions: 30000000
Simulation Instructions: 100000000
Number of CPUs: 1
Page size: 4096

BTB:
Basic BTB sets: 1024 ways: 8
Indirect:
history lengths: 0 0 10 16 27 44 60 96 109 219 449 487 714 1313 2146 3881 
ITTAGE tables: 64768 bytes;Region table: 240 bytes;IUM: 384 bytes;Total Storage= 65392 bytes;
RAS:
RAS size: 64
[LLC] INSTR Demand IPV: 1 2 2 1 4 Prefetch IPV: 1 2 1 1 4
[LLC] DATA  Demand IPV: 1 1 1 2 4 Prefetch IPV: 1 1 2 2 4
Berti Prefetcher
CPU 0 Entangling prefetcher
Off-chip DRAM Size: 8 GiB Channels: 2 Width: 64-bit Data Race: 6400 MT/s
[DUEL] Epoch ended. INSTR misses = 36, DATA misses = 41. Winner = INSTR
[DUEL] Epoch ended. INSTR misses = 16, DATA misses = 16. Winner = INSTR
[DUEL] Epoch ended. INSTR misses = 1, DATA misses = 0. Winner = DATA
[DUEL] Epoch ended. INSTR misses = 0, DATA misses = 0. Winner = INSTR
[DUEL] Epoch ended. INSTR misses = 0, DATA misses = 0. Winner = INSTR
[DUEL] Epoch ended. INSTR misses = 0, DATA misses = 0. Winner = INSTR
[DUEL] Epoch ended. INSTR misses = 0, DATA misses = 1. Winner = INSTR
[DUEL] Epoch ended. INSTR misses = 0, DATA misses = 0. Winner = INSTR
[DUEL] Epoch ended. INSTR misses = 0, DATA misses = 0. Winner = INSTR
[DUEL] Epoch ended. INSTR misses = 16, DATA misses = 18. Winner = INSTR
[DUEL] Epoch ended. INSTR misses = 1, DATA misses = 0. Winner = DATA
[DUEL] Epoch ended. INSTR misses = 8, DATA misses = 1. Winner = DATA
[DUEL] Epoch ended. INSTR misses = 16, DATA misses = 16. Winner = INSTR
Heartbeat CPU 0 instructions: 10000003 cycles: 1715460 heartbeat IPC: 5.829 cumulative IPC: 5.829 (Simulation time: 00 hr 00 min 20 sec)
[DUEL] Epoch ended. INSTR misses = 2, DATA misses = 8. Winner = INSTR
[DUEL] Epoch ended. INSTR misses = 21, DATA misses = 26. Winner = INSTR
[DUEL] Epoch ended. INSTR misses = 98, DATA misses = 102. Winner = INSTR
Heartbeat CPU 0 instructions: 20000000 cycles: 3431683 heartbeat IPC: 5.827 cumulative IPC: 5.828 (Simulation time: 00 hr 00 min 39 sec)
[DUEL] Epoch ended. INSTR misses = 24, DATA misses = 10. Winner = DATA
Heartbeat CPU 0 instructions: 30000008 cycles: 5098422 heartbeat IPC: 6 cumulative IPC: 5.884 (Simulation time: 00 hr 00 min 57 sec)
Warmup finished CPU 0 instructions: 30000008 cycles: 5098423 cumulative IPC: 5.884 (Simulation time: 00 hr 00 min 57 sec)
Warmup complete CPU 0 instructions: 30000008 cycles: 5098423 cumulative IPC: 5.884 (Simulation time: 00 hr 00 min 57 sec)
[DUEL] Epoch ended. INSTR misses = 0, DATA misses = 0. Winner = INSTR
*** Reached end of trace: (0, "../traces/secret_traces/crypto/crypto70.champsimtrace.xz")
[DUEL] Epoch ended. INSTR misses = 7, DATA misses = 12. Winner = INSTR
[DUEL] Epoch ended. INSTR misses = 9, DATA misses = 1. Winner = DATA
[DUEL] Epoch ended. INSTR misses = 1, DATA misses = 1. Winner = INSTR
[DUEL] Epoch ended. INSTR misses = 1, DATA misses = 0. Winner = DATA
[DUEL] Epoch ended. INSTR misses = 0, DATA misses = 0. Winner = INSTR
[DUEL] Epoch ended. INSTR misses = 0, DATA misses = 0. Winner = INSTR
[DUEL] Epoch ended. INSTR misses = 0, DATA misses = 0. Winner = INSTR
[DUEL] Epoch ended. INSTR misses = 0, DATA misses = 0. Winner = INSTR
[DUEL] Epoch ended. INSTR misses = 0, DATA misses = 0. Winner = INSTR
[DUEL] Epoch ended. INSTR misses = 2, DATA misses = 0. Winner = DATA
[DUEL] Epoch ended. INSTR misses = 0, DATA misses = 0. Winner = INSTR
[DUEL] Epoch ended. INSTR misses = 5, DATA misses = 2. Winner = DATA
[DUEL] Epoch ended. INSTR misses = 1, DATA misses = 0. Winner = DATA
Heartbeat CPU 0 instructions: 40000002 cycles: 7608254 heartbeat IPC: 3.984 cumulative IPC: 3.984 (Simulation time: 00 hr 01 min 26 sec)
[DUEL] Epoch ended. INSTR misses = 2, DATA misses = 5. Winner = INSTR
Heartbeat CPU 0 instructions: 50000003 cycles: 9563824 heartbeat IPC: 5.114 cumulative IPC: 4.479 (Simulation time: 00 hr 01 min 52 sec)
[DUEL] Epoch ended. INSTR misses = 3, DATA misses = 7. Winner = INSTR
[DUEL] Epoch ended. INSTR misses = 37, DATA misses = 52. Winner = INSTR
Heartbeat CPU 0 instructions: 60000001 cycles: 11814154 heartbeat IPC: 4.444 cumulative IPC: 4.467 (Simulation time: 00 hr 02 min 20 sec)
[DUEL] Epoch ended. INSTR misses = 19, DATA misses = 3. Winner = DATA
[DUEL] Epoch ended. INSTR misses = 2, DATA misses = 0. Winner = DATA
*** Reached end of trace: (0, "../traces/secret_traces/crypto/crypto70.champsimtrace.xz")
[DUEL] Epoch ended. INSTR misses = 4, DATA misses = 7. Winner = INSTR
[DUEL] Epoch ended. INSTR misses = 2, DATA misses = 1. Winner = DATA
[DUEL] Epoch ended. INSTR misses = 1, DATA misses = 0. Winner = DATA
[DUEL] Epoch ended. INSTR misses = 1, DATA misses = 0. Winner = DATA
[DUEL] Epoch ended. INSTR misses = 0, DATA misses = 0. Winner = INSTR
[DUEL] Epoch ended. INSTR misses = 0, DATA misses = 0. Winner = INSTR
[DUEL] Epoch ended. INSTR misses = 0, DATA misses = 0. Winner = INSTR
[DUEL] Epoch ended. INSTR misses = 1, DATA misses = 0. Winner = DATA
[DUEL] Epoch ended. INSTR misses = 0, DATA misses = 0. Winner = INSTR
[DUEL] Epoch ended. INSTR misses = 0, DATA misses = 0. Winner = INSTR
[DUEL] Epoch ended. INSTR misses = 0, DATA misses = 0. Winner = INSTR
[DUEL] Epoch ended. INSTR misses = 2, DATA misses = 0. Winner = DATA
Heartbeat CPU 0 instructions: 70000010 cycles: 14172696 heartbeat IPC: 4.24 cumulative IPC: 4.408 (Simulation time: 00 hr 02 min 49 sec)
[DUEL] Epoch ended. INSTR misses = 3, DATA misses = 3. Winner = INSTR
Heartbeat CPU 0 instructions: 80000002 cycles: 16065513 heartbeat IPC: 5.283 cumulative IPC: 4.559 (Simulation time: 00 hr 03 min 14 sec)
[DUEL] Epoch ended. INSTR misses = 1, DATA misses = 6. Winner = INSTR
[DUEL] Epoch ended. INSTR misses = 3, DATA misses = 6. Winner = INSTR
[DUEL] Epoch ended. INSTR misses = 32, DATA misses = 42. Winner = INSTR
Heartbeat CPU 0 instructions: 90000001 cycles: 18374162 heartbeat IPC: 4.332 cumulative IPC: 4.52 (Simulation time: 00 hr 03 min 42 sec)
[DUEL] Epoch ended. INSTR misses = 18, DATA misses = 3. Winner = DATA
[DUEL] Epoch ended. INSTR misses = 1, DATA misses = 0. Winner = DATA
*** Reached end of trace: (0, "../traces/secret_traces/crypto/crypto70.champsimtrace.xz")
[DUEL] Epoch ended. INSTR misses = 6, DATA misses = 7. Winner = INSTR
[DUEL] Epoch ended. INSTR misses = 2, DATA misses = 3. Winner = INSTR
[DUEL] Epoch ended. INSTR misses = 1, DATA misses = 0. Winner = DATA
[DUEL] Epoch ended. INSTR misses = 1, DATA misses = 0. Winner = DATA
[DUEL] Epoch ended. INSTR misses = 0, DATA misses = 0. Winner = INSTR
[DUEL] Epoch ended. INSTR misses = 0, DATA misses = 0. Winner = INSTR
[DUEL] Epoch ended. INSTR misses = 0, DATA misses = 0. Winner = INSTR
[DUEL] Epoch ended. INSTR misses = 0, DATA misses = 0. Winner = INSTR
[DUEL] Epoch ended. INSTR misses = 0, DATA misses = 0. Winner = INSTR
[DUEL] Epoch ended. INSTR misses = 0, DATA misses = 0. Winner = INSTR
[DUEL] Epoch ended. INSTR misses = 0, DATA misses = 0. Winner = INSTR
Heartbeat CPU 0 instructions: 100000008 cycles: 20563001 heartbeat IPC: 4.569 cumulative IPC: 4.526 (Simulation time: 00 hr 04 min 10 sec)
[DUEL] Epoch ended. INSTR misses = 2, DATA misses = 0. Winner = DATA
[DUEL] Epoch ended. INSTR misses = 1, DATA misses = 3. Winner = INSTR
Heartbeat CPU 0 instructions: 110000005 cycles: 22530036 heartbeat IPC: 5.084 cumulative IPC: 4.589 (Simulation time: 00 hr 04 min 36 sec)
[DUEL] Epoch ended. INSTR misses = 0, DATA misses = 4. Winner = INSTR
[DUEL] Epoch ended. INSTR misses = 3, DATA misses = 5. Winner = INSTR
[DUEL] Epoch ended. INSTR misses = 30, DATA misses = 43. Winner = INSTR
Heartbeat CPU 0 instructions: 120000003 cycles: 24815205 heartbeat IPC: 4.376 cumulative IPC: 4.565 (Simulation time: 00 hr 05 min 05 sec)
[DUEL] Epoch ended. INSTR misses = 18, DATA misses = 3. Winner = DATA
[DUEL] Epoch ended. INSTR misses = 1, DATA misses = 0. Winner = DATA
*** Reached end of trace: (0, "../traces/secret_traces/crypto/crypto70.champsimtrace.xz")
[DUEL] Epoch ended. INSTR misses = 10, DATA misses = 8. Winner = DATA
Heartbeat CPU 0 instructions: 130000004 cycles: 26868875 heartbeat IPC: 4.869 cumulative IPC: 4.593 (Simulation time: 00 hr 05 min 31 sec)
Simulation finished CPU 0 instructions: 100000008 cycles: 21770454 cumulative IPC: 4.593 (Simulation time: 00 hr 05 min 31 sec)
Simulation complete CPU 0 instructions: 100000008 cycles: 21770454 cumulative IPC: 4.593 (Simulation time: 00 hr 05 min 31 sec)

ChampSim completed all CPUs

=== Simulation ===
CPU 0 runs ../traces/secret_traces/crypto/crypto70.champsimtrace.xz
Region of Interest Statistics

CPU 0 cumulative IPC: 4.593 instructions: 100000008 cycles: 21770454
CPU 0 Branch Prediction Accuracy: 98.51% MPKI: 0.8735 Average ROB Occupancy at Mispredict: 30.28
Branch type MPKI
BRANCH_DIRECT_JUMP: 0.0498
BRANCH_INDIRECT: 0.436
BRANCH_CONDITIONAL: 0.148
BRANCH_DIRECT_CALL: 0.144
BRANCH_INDIRECT_CALL: 0.0173
BRANCH_RETURN: 0.0786

LLC TOTAL        ACCESS:     367632 HIT:     268711 MISS:      98921
LLC LOAD         ACCESS:      39505 HIT:      19413 MISS:      20092
LLC RFO          ACCESS:     111519 HIT:      91740 MISS:      19779
LLC PREFETCH     ACCESS:      88384 HIT:      48275 MISS:      40109
LLC WRITE        ACCESS:     126022 HIT:     108719 MISS:      17303
LLC TRANSLATION  ACCESS:       2202 HIT:        564 MISS:       1638
LLC PREFETCH REQUESTED:          0 ISSUED:          0 USEFUL:          0 USELESS:          0
LLC AVERAGE MISS LATENCY: 149.4 cycles
cpu0_DTLB TOTAL        ACCESS:   10040322 HIT:   10004521 MISS:      35801
cpu0_DTLB LOAD         ACCESS:   10040322 HIT:   10004521 MISS:      35801
cpu0_DTLB RFO          ACCESS:          0 HIT:          0 MISS:          0
cpu0_DTLB PREFETCH     ACCESS:          0 HIT:          0 MISS:          0
cpu0_DTLB WRITE        ACCESS:          0 HIT:          0 MISS:          0
cpu0_DTLB TRANSLATION  ACCESS:          0 HIT:          0 MISS:          0
cpu0_DTLB PREFETCH REQUESTED:          0 ISSUED:          0 USEFUL:          0 USELESS:          0
cpu0_DTLB AVERAGE MISS LATENCY: 9.641 cycles
cpu0_ITLB TOTAL        ACCESS:     636590 HIT:     623082 MISS:      13508
cpu0_ITLB LOAD         ACCESS:     636590 HIT:     623082 MISS:      13508
cpu0_ITLB RFO          ACCESS:          0 HIT:          0 MISS:          0
cpu0_ITLB PREFETCH     ACCESS:          0 HIT:          0 MISS:          0
cpu0_ITLB WRITE        ACCESS:          0 HIT:          0 MISS:          0
cpu0_ITLB TRANSLATION  ACCESS:          0 HIT:          0 MISS:          0
cpu0_ITLB PREFETCH REQUESTED:          0 ISSUED:          0 USEFUL:          0 USELESS:          0
cpu0_ITLB AVERAGE MISS LATENCY: 19.57 cycles
cpu0_L1D TOTAL        ACCESS:   12747510 HIT:   12247281 MISS:     500229
cpu0_L1D LOAD         ACCESS:    9161010 HIT:    9026849 MISS:     134161
cpu0_L1D RFO          ACCESS:          0 HIT:          0 MISS:          0
cpu0_L1D PREFETCH     ACCESS:     444234 HIT:     370437 MISS:      73797
cpu0_L1D WRITE        ACCESS:    3137823 HIT:    2848411 MISS:     289412
cpu0_L1D TRANSLATION  ACCESS:       4443 HIT:       1584 MISS:       2859
cpu0_L1D PREFETCH REQUESTED:    3045581 ISSUED:     444234 USEFUL:       8576 USELESS:       1174
cpu0_L1D AVERAGE MISS LATENCY: 27.39 cycles
cpu0_L1I TOTAL        ACCESS:     927372 HIT:     773270 MISS:     154102
cpu0_L1I LOAD         ACCESS:     302420 HIT:     267690 MISS:      34730
cpu0_L1I RFO          ACCESS:          0 HIT:          0 MISS:          0
cpu0_L1I PREFETCH     ACCESS:     624952 HIT:     505580 MISS:     119372
cpu0_L1I WRITE        ACCESS:          0 HIT:          0 MISS:          0
cpu0_L1I TRANSLATION  ACCESS:          0 HIT:          0 MISS:          0
cpu0_L1I PREFETCH REQUESTED:     949496 ISSUED:     624975 USEFUL:      66218 USELESS:      47919
cpu0_L1I AVERAGE MISS LATENCY: 29.34 cycles
cpu0_L2C TOTAL        ACCESS:     821762 HIT:     508334 MISS:     313428
cpu0_L2C LOAD         ACCESS:     110222 HIT:      61677 MISS:      48545
cpu0_L2C RFO          ACCESS:     121032 HIT:       9476 MISS:     111556
cpu0_L2C PREFETCH     ACCESS:     449295 HIT:     298170 MISS:     151125
cpu0_L2C WRITE        ACCESS:     138430 HIT:     138430 MISS:          0
cpu0_L2C TRANSLATION  ACCESS:       2783 HIT:        581 MISS:       2202
cpu0_L2C PREFETCH REQUESTED:     284983 ISSUED:     274535 USEFUL:      22220 USELESS:      20908
cpu0_L2C AVERAGE MISS LATENCY: 60.66 cycles
cpu0_STLB TOTAL        ACCESS:      22112 HIT:      18024 MISS:       4088
cpu0_STLB LOAD         ACCESS:      22112 HIT:      18024 MISS:       4088
cpu0_STLB RFO          ACCESS:          0 HIT:          0 MISS:          0
cpu0_STLB PREFETCH     ACCESS:          0 HIT:          0 MISS:          0
cpu0_STLB WRITE        ACCESS:          0 HIT:          0 MISS:          0
cpu0_STLB TRANSLATION  ACCESS:          0 HIT:          0 MISS:          0
cpu0_STLB PREFETCH REQUESTED:          0 ISSUED:          0 USEFUL:          0 USELESS:          0
cpu0_STLB AVERAGE MISS LATENCY: 125.6 cycles

DRAM Statistics

Channel 0 RQ ROW_BUFFER_HIT:      20123
  ROW_BUFFER_MISS:      21256
 AVG DBUS CONGESTED CYCLE: 3.891
WQ ROW_BUFFER_HIT: Channel 0 
  ROW_BUFFER_MISS:       1646
  FULL:      11238

Channel 1 RQ ROW_BUFFER_HIT:      19208
  ROW_BUFFER_MISS:      21009
 AVG DBUS CONGESTED CYCLE: 3.873
WQ ROW_BUFFER_HIT: Channel 1 
  ROW_BUFFER_MISS:       1470
  FULL:      10566
BERTI TO_L1: 1041486 TO_L2: 2488733 TO_L2_BC_MSHR: 1371527
BERTI AVG_LAT: 65.585 NUM_TRACK_LATENCY: 129033 NUM_CANT_TRACK_LATENCY: 0
BERTI CROSS_PAGE 716562 NO_CROSS_PAGE: 2813657
BERTI FOUND_BERTI: 2615491 NO_FOUND_BERTI: 9606301
BERTI AVERAGE_ISSUED: 3.54881
CPU 0 L1I Entangling prefetcher final stats
IP accesses: 6f71 1bdc40 1796 / 303046
IP misses: 7561 1d5840 167 / 35356
IP hits: 0 0 0 / 0
IP late: 59b0 166c00 49 / 17093
IP wrong: f7ec 3dfb00 97 / 47734
miss rate: 0.116669
coverage: 0
coverage_late: 0.483455
accuracy: 0
accuracy_late: 0.263672
discarded: 0
evicts entangled j table: 0
evicts entangled k table: 5668
max bb size: 53
formats: 1489 0 5019 2539 1046 2019 0 
hist_lookups: 4416 4690 3583 3140 2820 2347 1719 1273 969 843 606 390 237 145 75 0 21 5148 
hist_lookups_evict: 0.0647709 %
hist_lookups_shortlat: 15.8782 %
bb_found_hist: 0 76563 31443 16087 6932 3503 1548 1393 436 86 16 101 95 72 24 0 3 0 0 0 0 7 0 0 0 0 0 0 0 0 0 3 0 0 3 0 0 0 0 0 0 0 0 0 0 0 0 0 0 0 0 0 0 3 0 0 0 0 0 0 0 0 0 0 
bb_found_summary: 260486 138318 1.88325
entangled_found_hist: 0 40223 31111 53430 9140 1868 495 0 
entangled_found_summary: 311605 136267 2.28673
bb_ent_found_hist: 0 104325 46660 30940 12753 7621 3488 2306 1588 31 68 214 82 42 12 0 216 0 0 0 0 19 0 0 0 0 0 0 0 0 0 3 0 0 3 0 0 0 0 0 0 0 0 0 0 0 0 0 0 0 0 0 0 4 0 0 0 0 0 0 0 0 0 0 
bb_ent_found_summary: 438629 210375 2.08499
