WARNING: physical memory size is smaller than virtual memory size.

*** ChampSim Multicore Out-of-Order Simulator ***
Warmup Instructions: 30000000
Simulation Instructions: 100000000
Number of CPUs: 1
Page size: 4096

BTB:
Basic BTB sets: 1024 ways: 8
Indirect:
history lengths: 0 0 10 16 27 44 60 96 109 219 449 487 714 1313 2146 3881 
ITTAGE tables: 64768 bytes;Region table: 240 bytes;IUM: 384 bytes;Total Storage= 65392 bytes;
RAS:
RAS size: 64
[LLC] INSTR Demand IPV: 1 2 2 1 4 Prefetch IPV: 1 2 1 1 4
[LLC] DATA  Demand IPV: 1 1 1 2 4 Prefetch IPV: 1 1 2 2 4
Berti Prefetcher
CPU 0 Entangling prefetcher
Off-chip DRAM Size: 8 GiB Channels: 2 Width: 64-bit Data Race: 6400 MT/s
[DUEL] Epoch ended. INSTR misses = 48, DATA misses = 39. Winner = DATA
[DUEL] Epoch ended. INSTR misses = 16, DATA misses = 16. Winner = INSTR
[DUEL] Epoch ended. INSTR misses = 0, DATA misses = 0. Winner = INSTR
[DUEL] Epoch ended. INSTR misses = 0, DATA misses = 0. Winner = INSTR
[DUEL] Epoch ended. INSTR misses = 0, DATA misses = 0. Winner = INSTR
[DUEL] Epoch ended. INSTR misses = 0, DATA misses = 0. Winner = INSTR
[DUEL] Epoch ended. INSTR misses = 16, DATA misses = 16. Winner = INSTR
[DUEL] Epoch ended. INSTR misses = 0, DATA misses = 0. Winner = INSTR
[DUEL] Epoch ended. INSTR misses = 0, DATA misses = 0. Winner = INSTR
[DUEL] Epoch ended. INSTR misses = 0, DATA misses = 1. Winner = INSTR
[DUEL] Epoch ended. INSTR misses = 16, DATA misses = 16. Winner = INSTR
[DUEL] Epoch ended. INSTR misses = 0, DATA misses = 0. Winner = INSTR
Heartbeat CPU 0 instructions: 10000009 cycles: 1714811 heartbeat IPC: 5.832 cumulative IPC: 5.832 (Simulation time: 00 hr 00 min 20 sec)
[DUEL] Epoch ended. INSTR misses = 6, DATA misses = 6. Winner = INSTR
[DUEL] Epoch ended. INSTR misses = 16, DATA misses = 16. Winner = INSTR
[DUEL] Epoch ended. INSTR misses = 83, DATA misses = 91. Winner = INSTR
Heartbeat CPU 0 instructions: 20000000 cycles: 3431222 heartbeat IPC: 5.826 cumulative IPC: 5.829 (Simulation time: 00 hr 00 min 40 sec)
[DUEL] Epoch ended. INSTR misses = 37, DATA misses = 42. Winner = INSTR
*** Reached end of trace: (0, "../traces/secret_traces/crypto/crypto81.champsimtrace.xz")
[DUEL] Epoch ended. INSTR misses = 14, DATA misses = 34. Winner = INSTR
[DUEL] Epoch ended. INSTR misses = 15, DATA misses = 9. Winner = DATA
[DUEL] Epoch ended. INSTR misses = 0, DATA misses = 0. Winner = INSTR
[DUEL] Epoch ended. INSTR misses = 0, DATA misses = 0. Winner = INSTR
[DUEL] Epoch ended. INSTR misses = 0, DATA misses = 0. Winner = INSTR
[DUEL] Epoch ended. INSTR misses = 0, DATA misses = 0. Winner = INSTR
[DUEL] Epoch ended. INSTR misses = 0, DATA misses = 0. Winner = INSTR
[DUEL] Epoch ended. INSTR misses = 1, DATA misses = 2. Winner = INSTR
[DUEL] Epoch ended. INSTR misses = 0, DATA misses = 0. Winner = INSTR
[DUEL] Epoch ended. INSTR misses = 0, DATA misses = 1. Winner = INSTR
[DUEL] Epoch ended. INSTR misses = 1, DATA misses = 0. Winner = DATA
[DUEL] Epoch ended. INSTR misses = 13, DATA misses = 10. Winner = DATA
Heartbeat CPU 0 instructions: 30000000 cycles: 5149099 heartbeat IPC: 5.821 cumulative IPC: 5.826 (Simulation time: 00 hr 01 min 01 sec)
Warmup finished CPU 0 instructions: 30000000 cycles: 5149100 cumulative IPC: 5.826 (Simulation time: 00 hr 01 min 01 sec)
Warmup complete CPU 0 instructions: 30000000 cycles: 5149100 cumulative IPC: 5.826 (Simulation time: 00 hr 01 min 01 sec)
[DUEL] Epoch ended. INSTR misses = 0, DATA misses = 0. Winner = INSTR
Heartbeat CPU 0 instructions: 40000009 cycles: 6874332 heartbeat IPC: 5.796 cumulative IPC: 5.796 (Simulation time: 00 hr 01 min 23 sec)
[DUEL] Epoch ended. INSTR misses = 4, DATA misses = 5. Winner = INSTR
[DUEL] Epoch ended. INSTR misses = 1, DATA misses = 3. Winner = INSTR
[DUEL] Epoch ended. INSTR misses = 28, DATA misses = 32. Winner = INSTR
Heartbeat CPU 0 instructions: 50000002 cycles: 9012972 heartbeat IPC: 4.676 cumulative IPC: 5.176 (Simulation time: 00 hr 01 min 48 sec)
[DUEL] Epoch ended. INSTR misses = 20, DATA misses = 22. Winner = INSTR
*** Reached end of trace: (0, "../traces/secret_traces/crypto/crypto81.champsimtrace.xz")
[DUEL] Epoch ended. INSTR misses = 11, DATA misses = 24. Winner = INSTR
[DUEL] Epoch ended. INSTR misses = 10, DATA misses = 6. Winner = DATA
[DUEL] Epoch ended. INSTR misses = 0, DATA misses = 0. Winner = INSTR
[DUEL] Epoch ended. INSTR misses = 0, DATA misses = 0. Winner = INSTR
[DUEL] Epoch ended. INSTR misses = 0, DATA misses = 0. Winner = INSTR
[DUEL] Epoch ended. INSTR misses = 0, DATA misses = 0. Winner = INSTR
[DUEL] Epoch ended. INSTR misses = 0, DATA misses = 0. Winner = INSTR
[DUEL] Epoch ended. INSTR misses = 1, DATA misses = 0. Winner = DATA
[DUEL] Epoch ended. INSTR misses = 0, DATA misses = 0. Winner = INSTR
[DUEL] Epoch ended. INSTR misses = 1, DATA misses = 1. Winner = INSTR
[DUEL] Epoch ended. INSTR misses = 1, DATA misses = 0. Winner = DATA
[DUEL] Epoch ended. INSTR misses = 11, DATA misses = 9. Winner = DATA
[DUEL] Epoch ended. INSTR misses = 2, DATA misses = 2. Winner = INSTR
Heartbeat CPU 0 instructions: 60000001 cycles: 11211318 heartbeat IPC: 4.549 cumulative IPC: 4.949 (Simulation time: 00 hr 02 min 14 sec)
[DUEL] Epoch ended. INSTR misses = 3, DATA misses = 4. Winner = INSTR
[DUEL] Epoch ended. INSTR misses = 1, DATA misses = 0. Winner = DATA
[DUEL] Epoch ended. INSTR misses = 26, DATA misses = 27. Winner = INSTR
Heartbeat CPU 0 instructions: 70000003 cycles: 13416525 heartbeat IPC: 4.535 cumulative IPC: 4.838 (Simulation time: 00 hr 02 min 40 sec)
[DUEL] Epoch ended. INSTR misses = 19, DATA misses = 14. Winner = DATA
*** Reached end of trace: (0, "../traces/secret_traces/crypto/crypto81.champsimtrace.xz")
[DUEL] Epoch ended. INSTR misses = 9, DATA misses = 22. Winner = INSTR
[DUEL] Epoch ended. INSTR misses = 11, DATA misses = 6. Winner = DATA
[DUEL] Epoch ended. INSTR misses = 0, DATA misses = 0. Winner = INSTR
[DUEL] Epoch ended. INSTR misses = 0, DATA misses = 0. Winner = INSTR
[DUEL] Epoch ended. INSTR misses = 0, DATA misses = 0. Winner = INSTR
[DUEL] Epoch ended. INSTR misses = 0, DATA misses = 0. Winner = INSTR
[DUEL] Epoch ended. INSTR misses = 0, DATA misses = 0. Winner = INSTR
[DUEL] Epoch ended. INSTR misses = 1, DATA misses = 0. Winner = DATA
[DUEL] Epoch ended. INSTR misses = 0, DATA misses = 0. Winner = INSTR
[DUEL] Epoch ended. INSTR misses = 0, DATA misses = 1. Winner = INSTR
[DUEL] Epoch ended. INSTR misses = 0, DATA misses = 0. Winner = INSTR
[DUEL] Epoch ended. INSTR misses = 11, DATA misses = 9. Winner = DATA
Heartbeat CPU 0 instructions: 80000011 cycles: 15564901 heartbeat IPC: 4.655 cumulative IPC: 4.8 (Simulation time: 00 hr 03 min 06 sec)
[DUEL] Epoch ended. INSTR misses = 0, DATA misses = 2. Winner = INSTR
Heartbeat CPU 0 instructions: 90000007 cycles: 17288274 heartbeat IPC: 5.803 cumulative IPC: 4.943 (Simulation time: 00 hr 03 min 28 sec)
[DUEL] Epoch ended. INSTR misses = 3, DATA misses = 4. Winner = INSTR
[DUEL] Epoch ended. INSTR misses = 2, DATA misses = 1. Winner = DATA
[DUEL] Epoch ended. INSTR misses = 19, DATA misses = 21. Winner = INSTR
Heartbeat CPU 0 instructions: 100000000 cycles: 19397549 heartbeat IPC: 4.741 cumulative IPC: 4.913 (Simulation time: 00 hr 03 min 53 sec)
[DUEL] Epoch ended. INSTR misses = 15, DATA misses = 15. Winner = INSTR
*** Reached end of trace: (0, "../traces/secret_traces/crypto/crypto81.champsimtrace.xz")
[DUEL] Epoch ended. INSTR misses = 7, DATA misses = 22. Winner = INSTR
[DUEL] Epoch ended. INSTR misses = 10, DATA misses = 6. Winner = DATA
[DUEL] Epoch ended. INSTR misses = 0, DATA misses = 0. Winner = INSTR
[DUEL] Epoch ended. INSTR misses = 0, DATA misses = 0. Winner = INSTR
[DUEL] Epoch ended. INSTR misses = 0, DATA misses = 0. Winner = INSTR
[DUEL] Epoch ended. INSTR misses = 0, DATA misses = 0. Winner = INSTR
[DUEL] Epoch ended. INSTR misses = 0, DATA misses = 0. Winner = INSTR
[DUEL] Epoch ended. INSTR misses = 0, DATA misses = 0. Winner = INSTR
[DUEL] Epoch ended. INSTR misses = 0, DATA misses = 0. Winner = INSTR
[DUEL] Epoch ended. INSTR misses = 0, DATA misses = 1. Winner = INSTR
[DUEL] Epoch ended. INSTR misses = 1, DATA misses = 0. Winner = DATA
[DUEL] Epoch ended. INSTR misses = 11, DATA misses = 9. Winner = DATA
[DUEL] Epoch ended. INSTR misses = 0, DATA misses = 2. Winner = INSTR
Heartbeat CPU 0 instructions: 110000001 cycles: 21568146 heartbeat IPC: 4.607 cumulative IPC: 4.872 (Simulation time: 00 hr 04 min 19 sec)
[DUEL] Epoch ended. INSTR misses = 3, DATA misses = 4. Winner = INSTR
[DUEL] Epoch ended. INSTR misses = 1, DATA misses = 0. Winner = DATA
[DUEL] Epoch ended. INSTR misses = 17, DATA misses = 20. Winner = INSTR
Heartbeat CPU 0 instructions: 120000008 cycles: 23646258 heartbeat IPC: 4.812 cumulative IPC: 4.866 (Simulation time: 00 hr 04 min 44 sec)
[DUEL] Epoch ended. INSTR misses = 15, DATA misses = 14. Winner = DATA
*** Reached end of trace: (0, "../traces/secret_traces/crypto/crypto81.champsimtrace.xz")
[DUEL] Epoch ended. INSTR misses = 7, DATA misses = 22. Winner = INSTR
[DUEL] Epoch ended. INSTR misses = 7, DATA misses = 5. Winner = DATA
[DUEL] Epoch ended. INSTR misses = 0, DATA misses = 0. Winner = INSTR
[DUEL] Epoch ended. INSTR misses = 0, DATA misses = 0. Winner = INSTR
[DUEL] Epoch ended. INSTR misses = 0, DATA misses = 0. Winner = INSTR
[DUEL] Epoch ended. INSTR misses = 0, DATA misses = 0. Winner = INSTR
[DUEL] Epoch ended. INSTR misses = 0, DATA misses = 0. Winner = INSTR
[DUEL] Epoch ended. INSTR misses = 0, DATA misses = 0. Winner = INSTR
[DUEL] Epoch ended. INSTR misses = 0, DATA misses = 0. Winner = INSTR
[DUEL] Epoch ended. INSTR misses = 0, DATA misses = 1. Winner = INSTR
[DUEL] Epoch ended. INSTR misses = 1, DATA misses = 0. Winner = DATA
[DUEL] Epoch ended. INSTR misses = 11, DATA misses = 9. Winner = DATA
Heartbeat CPU 0 instructions: 130000002 cycles: 25760279 heartbeat IPC: 4.73 cumulative IPC: 4.852 (Simulation time: 00 hr 05 min 10 sec)
Simulation finished CPU 0 instructions: 100000002 cycles: 20611180 cumulative IPC: 4.852 (Simulation time: 00 hr 05 min 10 sec)
Simulation complete CPU 0 instructions: 100000002 cycles: 20611180 cumulative IPC: 4.852 (Simulation time: 00 hr 05 min 10 sec)

ChampSim completed all CPUs

=== Simulation ===
CPU 0 runs ../traces/secret_traces/crypto/crypto81.champsimtrace.xz
Region of Interest Statistics

CPU 0 cumulative IPC: 4.852 instructions: 100000002 cycles: 20611180
CPU 0 Branch Prediction Accuracy: 99.14% MPKI: 0.907 Average ROB Occupancy at Mispredict: 31.03
Branch type MPKI
BRANCH_DIRECT_JUMP: 0.0556
BRANCH_INDIRECT: 0.483
BRANCH_CONDITIONAL: 0.114
BRANCH_DIRECT_CALL: 0.153
BRANCH_INDIRECT_CALL: 0.0179
BRANCH_RETURN: 0.0841

LLC TOTAL        ACCESS:     451670 HIT:     335239 MISS:     116431
LLC LOAD         ACCESS:      43444 HIT:      23205 MISS:      20239
LLC RFO          ACCESS:     139731 HIT:     114542 MISS:      25189
LLC PREFETCH     ACCESS:     111297 HIT:      58206 MISS:      53091
LLC WRITE        ACCESS:     154822 HIT:     138662 MISS:      16160
LLC TRANSLATION  ACCESS:       2376 HIT:        624 MISS:       1752
LLC PREFETCH REQUESTED:          0 ISSUED:          0 USEFUL:          0 USELESS:          0
LLC AVERAGE MISS LATENCY: 166.3 cycles
cpu0_DTLB TOTAL        ACCESS:    8475937 HIT:    8432628 MISS:      43309
cpu0_DTLB LOAD         ACCESS:    8475937 HIT:    8432628 MISS:      43309
cpu0_DTLB RFO          ACCESS:          0 HIT:          0 MISS:          0
cpu0_DTLB PREFETCH     ACCESS:          0 HIT:          0 MISS:          0
cpu0_DTLB WRITE        ACCESS:          0 HIT:          0 MISS:          0
cpu0_DTLB TRANSLATION  ACCESS:          0 HIT:          0 MISS:          0
cpu0_DTLB PREFETCH REQUESTED:          0 ISSUED:          0 USEFUL:          0 USELESS:          0
cpu0_DTLB AVERAGE MISS LATENCY: 9.631 cycles
cpu0_ITLB TOTAL        ACCESS:     755659 HIT:     740691 MISS:      14968
cpu0_ITLB LOAD         ACCESS:     755659 HIT:     740691 MISS:      14968
cpu0_ITLB RFO          ACCESS:          0 HIT:          0 MISS:          0
cpu0_ITLB PREFETCH     ACCESS:          0 HIT:          0 MISS:          0
cpu0_ITLB WRITE        ACCESS:          0 HIT:          0 MISS:          0
cpu0_ITLB TRANSLATION  ACCESS:          0 HIT:          0 MISS:          0
cpu0_ITLB PREFETCH REQUESTED:          0 ISSUED:          0 USEFUL:          0 USELESS:          0
cpu0_ITLB AVERAGE MISS LATENCY: 15.66 cycles
cpu0_L1D TOTAL        ACCESS:   13558903 HIT:   12898907 MISS:     659996
cpu0_L1D LOAD         ACCESS:    4775041 HIT:    4608481 MISS:     166560
cpu0_L1D RFO          ACCESS:          0 HIT:          0 MISS:          0
cpu0_L1D PREFETCH     ACCESS:     616844 HIT:     496898 MISS:     119946
cpu0_L1D WRITE        ACCESS:    8162038 HIT:    7791642 MISS:     370396
cpu0_L1D TRANSLATION  ACCESS:       4980 HIT:       1886 MISS:       3094
cpu0_L1D PREFETCH REQUESTED:    3678257 ISSUED:     616844 USEFUL:      16072 USELESS:       1523
cpu0_L1D AVERAGE MISS LATENCY: 26.17 cycles
cpu0_L1I TOTAL        ACCESS:    1103829 HIT:     924817 MISS:     179012
cpu0_L1I LOAD         ACCESS:     357674 HIT:     317775 MISS:      39899
cpu0_L1I RFO          ACCESS:          0 HIT:          0 MISS:          0
cpu0_L1I PREFETCH     ACCESS:     746155 HIT:     607042 MISS:     139113
cpu0_L1I WRITE        ACCESS:          0 HIT:          0 MISS:          0
cpu0_L1I TRANSLATION  ACCESS:          0 HIT:          0 MISS:          0
cpu0_L1I PREFETCH REQUESTED:    1193657 ISSUED:     746155 USEFUL:      78254 USELESS:      55155
cpu0_L1I AVERAGE MISS LATENCY: 31.16 cycles
cpu0_L2C TOTAL        ACCESS:    1031880 HIT:     649004 MISS:     382876
cpu0_L2C LOAD         ACCESS:     132362 HIT:      78056 MISS:      54306
cpu0_L2C RFO          ACCESS:     153131 HIT:      13353 MISS:     139778
cpu0_L2C PREFETCH     ACCESS:     567811 HIT:     381395 MISS:     186416
cpu0_L2C WRITE        ACCESS:     175580 HIT:     175580 MISS:          0
cpu0_L2C TRANSLATION  ACCESS:       2996 HIT:        620 MISS:       2376
cpu0_L2C PREFETCH REQUESTED:     360940 ISSUED:     339281 USEFUL:      27310 USELESS:      25825
cpu0_L2C AVERAGE MISS LATENCY: 63.65 cycles
cpu0_STLB TOTAL        ACCESS:      25687 HIT:      21088 MISS:       4599
cpu0_STLB LOAD         ACCESS:      25687 HIT:      21088 MISS:       4599
cpu0_STLB RFO          ACCESS:          0 HIT:          0 MISS:          0
cpu0_STLB PREFETCH     ACCESS:          0 HIT:          0 MISS:          0
cpu0_STLB WRITE        ACCESS:          0 HIT:          0 MISS:          0
cpu0_STLB TRANSLATION  ACCESS:          0 HIT:          0 MISS:          0
cpu0_STLB PREFETCH REQUESTED:          0 ISSUED:          0 USEFUL:          0 USELESS:          0
cpu0_STLB AVERAGE MISS LATENCY: 118.5 cycles

DRAM Statistics

Channel 0 RQ ROW_BUFFER_HIT:      24292
  ROW_BUFFER_MISS:      26756
 AVG DBUS CONGESTED CYCLE: 3.89
WQ ROW_BUFFER_HIT: Channel 0 
  ROW_BUFFER_MISS:       1896
  FULL:      13208

Channel 1 RQ ROW_BUFFER_HIT:      23170
  ROW_BUFFER_MISS:      26009
 AVG DBUS CONGESTED CYCLE: 3.871
WQ ROW_BUFFER_HIT: Channel 1 
  ROW_BUFFER_MISS:       1816
  FULL:      12175
BERTI TO_L1: 1581962 TO_L2: 2930629 TO_L2_BC_MSHR: 1627496
BERTI AVG_LAT: 65.698 NUM_TRACK_LATENCY: 165716 NUM_CANT_TRACK_LATENCY: 0
BERTI CROSS_PAGE 909157 NO_CROSS_PAGE: 3603434
BERTI FOUND_BERTI: 1527938 NO_FOUND_BERTI: 5431695
BERTI AVERAGE_ISSUED: 4.31479
CPU 0 L1I Entangling prefetcher final stats
IP accesses: 6f71 1bdc40 1767 / 358343
IP misses: 5bf1 16fc40 196 / 40568
IP hits: 0 0 0 / 0
IP late: 6e9e 1ba780 91 / 20061
IP wrong: 251e 94780 121 / 54921
miss rate: 0.11321
coverage: 0
coverage_late: 0.494504
accuracy: 0
accuracy_late: 0.267545
discarded: 0
evicts entangled j table: 0
evicts entangled k table: 6897
max bb size: 53
formats: 1734 0 5446 2758 1053 2086 0 
hist_lookups: 4272 5021 3943 3668 3395 2809 2085 1598 1277 1023 789 523 324 209 89 0 6 7191 
hist_lookups_evict: 0.0156978 %
hist_lookups_shortlat: 18.8138 %
bb_found_hist: 0 91385 40171 18901 8718 4163 2077 1505 515 109 6 109 39 104 28 40 4 0 0 0 0 8 0 0 0 0 0 0 0 0 0 4 0 0 4 0 0 0 0 0 0 0 0 0 0 0 0 0 0 0 0 0 0 4 0 0 0 0 0 0 0 0 0 0 
bb_found_summary: 316990 167894 1.88804
entangled_found_hist: 0 50828 37098 66423 13011 2419 419 0 
entangled_found_summary: 390946 170198 2.29701
bb_ent_found_hist: 0 133041 59929 39554 16205 11530 4222 2692 1293 279 0 107 136 40 16 152 266 0 0 0 0 23 0 0 0 0 0 0 0 0 0 4 0 0 8 0 0 0 0 0 0 0 0 0 0 0 0 0 0 0 0 0 0 4 0 0 0 0 0 0 0 0 0 0 
bb_ent_found_summary: 562242 269501 2.08624
