WARNING: physical memory size is smaller than virtual memory size.

*** ChampSim Multicore Out-of-Order Simulator ***
Warmup Instructions: 30000000
Simulation Instructions: 100000000
Number of CPUs: 1
Page size: 4096

BTB:
Basic BTB sets: 1024 ways: 8
Indirect:
history lengths: 0 0 10 16 27 44 60 96 109 219 449 487 714 1313 2146 3881 
ITTAGE tables: 64768 bytes;Region table: 240 bytes;IUM: 384 bytes;Total Storage= 65392 bytes;
RAS:
RAS size: 64
[LLC] INSTR Demand IPV: 1 2 2 1 4 Prefetch IPV: 1 2 1 1 4
[LLC] DATA  Demand IPV: 1 1 1 2 4 Prefetch IPV: 1 1 2 2 4
Berti Prefetcher
CPU 0 Entangling prefetcher
Off-chip DRAM Size: 8 GiB Channels: 2 Width: 64-bit Data Race: 6400 MT/s
[DUEL] Epoch ended. INSTR misses = 53, DATA misses = 60. Winner = INSTR
[DUEL] Epoch ended. INSTR misses = 20, DATA misses = 21. Winner = INSTR
[DUEL] Epoch ended. INSTR misses = 0, DATA misses = 0. Winner = INSTR
[DUEL] Epoch ended. INSTR misses = 0, DATA misses = 0. Winner = INSTR
[DUEL] Epoch ended. INSTR misses = 0, DATA misses = 0. Winner = INSTR
[DUEL] Epoch ended. INSTR misses = 0, DATA misses = 0. Winner = INSTR
[DUEL] Epoch ended. INSTR misses = 16, DATA misses = 16. Winner = INSTR
[DUEL] Epoch ended. INSTR misses = 0, DATA misses = 0. Winner = INSTR
[DUEL] Epoch ended. INSTR misses = 0, DATA misses = 3. Winner = INSTR
[DUEL] Epoch ended. INSTR misses = 9, DATA misses = 4. Winner = DATA
[DUEL] Epoch ended. INSTR misses = 2, DATA misses = 0. Winner = DATA
[DUEL] Epoch ended. INSTR misses = 3, DATA misses = 0. Winner = DATA
[DUEL] Epoch ended. INSTR misses = 12, DATA misses = 1. Winner = DATA
Heartbeat CPU 0 instructions: 10000008 cycles: 1715541 heartbeat IPC: 5.829 cumulative IPC: 5.829 (Simulation time: 00 hr 00 min 21 sec)
[DUEL] Epoch ended. INSTR misses = 2, DATA misses = 9. Winner = INSTR
[DUEL] Epoch ended. INSTR misses = 22, DATA misses = 20. Winner = DATA
[DUEL] Epoch ended. INSTR misses = 109, DATA misses = 103. Winner = DATA
Heartbeat CPU 0 instructions: 20000005 cycles: 3431944 heartbeat IPC: 5.826 cumulative IPC: 5.828 (Simulation time: 00 hr 00 min 43 sec)
[DUEL] Epoch ended. INSTR misses = 42, DATA misses = 43. Winner = INSTR
Heartbeat CPU 0 instructions: 30000006 cycles: 5098664 heartbeat IPC: 6 cumulative IPC: 5.884 (Simulation time: 00 hr 01 min 03 sec)
Warmup finished CPU 0 instructions: 30000006 cycles: 5098665 cumulative IPC: 5.884 (Simulation time: 00 hr 01 min 03 sec)
Warmup complete CPU 0 instructions: 30000006 cycles: 5098665 cumulative IPC: 5.884 (Simulation time: 00 hr 01 min 03 sec)
[DUEL] Epoch ended. INSTR misses = 0, DATA misses = 3. Winner = INSTR
*** Reached end of trace: (0, "../traces/secret_traces/crypto/crypto94.champsimtrace.xz")
[DUEL] Epoch ended. INSTR misses = 11, DATA misses = 27. Winner = INSTR
[DUEL] Epoch ended. INSTR misses = 39, DATA misses = 24. Winner = DATA
[DUEL] Epoch ended. INSTR misses = 0, DATA misses = 1. Winner = INSTR
[DUEL] Epoch ended. INSTR misses = 0, DATA misses = 0. Winner = INSTR
[DUEL] Epoch ended. INSTR misses = 0, DATA misses = 0. Winner = INSTR
[DUEL] Epoch ended. INSTR misses = 0, DATA misses = 0. Winner = INSTR
[DUEL] Epoch ended. INSTR misses = 0, DATA misses = 0. Winner = INSTR
[DUEL] Epoch ended. INSTR misses = 0, DATA misses = 0. Winner = INSTR
[DUEL] Epoch ended. INSTR misses = 0, DATA misses = 0. Winner = INSTR
[DUEL] Epoch ended. INSTR misses = 2, DATA misses = 4. Winner = INSTR
Heartbeat CPU 0 instructions: 40000002 cycles: 7911828 heartbeat IPC: 3.555 cumulative IPC: 3.555 (Simulation time: 00 hr 01 min 37 sec)
[DUEL] Epoch ended. INSTR misses = 5, DATA misses = 0. Winner = DATA
[DUEL] Epoch ended. INSTR misses = 1, DATA misses = 0. Winner = DATA
[DUEL] Epoch ended. INSTR misses = 6, DATA misses = 5. Winner = DATA
Heartbeat CPU 0 instructions: 50000006 cycles: 10438689 heartbeat IPC: 3.957 cumulative IPC: 3.745 (Simulation time: 00 hr 02 min 11 sec)
[DUEL] Epoch ended. INSTR misses = 1, DATA misses = 7. Winner = INSTR
[DUEL] Epoch ended. INSTR misses = 8, DATA misses = 6. Winner = DATA
[DUEL] Epoch ended. INSTR misses = 59, DATA misses = 61. Winner = INSTR
Heartbeat CPU 0 instructions: 60000002 cycles: 13414638 heartbeat IPC: 3.36 cumulative IPC: 3.608 (Simulation time: 00 hr 02 min 47 sec)
[DUEL] Epoch ended. INSTR misses = 25, DATA misses = 21. Winner = DATA
Heartbeat CPU 0 instructions: 70000009 cycles: 15827789 heartbeat IPC: 4.144 cumulative IPC: 3.728 (Simulation time: 00 hr 03 min 20 sec)
[DUEL] Epoch ended. INSTR misses = 0, DATA misses = 5. Winner = INSTR
*** Reached end of trace: (0, "../traces/secret_traces/crypto/crypto94.champsimtrace.xz")
[DUEL] Epoch ended. INSTR misses = 5, DATA misses = 22. Winner = INSTR
[DUEL] Epoch ended. INSTR misses = 28, DATA misses = 20. Winner = DATA
[DUEL] Epoch ended. INSTR misses = 0, DATA misses = 1. Winner = INSTR
[DUEL] Epoch ended. INSTR misses = 0, DATA misses = 0. Winner = INSTR
[DUEL] Epoch ended. INSTR misses = 0, DATA misses = 0. Winner = INSTR
[DUEL] Epoch ended. INSTR misses = 0, DATA misses = 0. Winner = INSTR
[DUEL] Epoch ended. INSTR misses = 0, DATA misses = 0. Winner = INSTR
[DUEL] Epoch ended. INSTR misses = 0, DATA misses = 0. Winner = INSTR
[DUEL] Epoch ended. INSTR misses = 0, DATA misses = 0. Winner = INSTR
[DUEL] Epoch ended. INSTR misses = 2, DATA misses = 4. Winner = INSTR
[DUEL] Epoch ended. INSTR misses = 5, DATA misses = 0. Winner = DATA
[DUEL] Epoch ended. INSTR misses = 1, DATA misses = 0. Winner = DATA
Heartbeat CPU 0 instructions: 80000002 cycles: 18550259 heartbeat IPC: 3.673 cumulative IPC: 3.717 (Simulation time: 00 hr 03 min 53 sec)
[DUEL] Epoch ended. INSTR misses = 6, DATA misses = 5. Winner = DATA
Heartbeat CPU 0 instructions: 90000009 cycles: 21001218 heartbeat IPC: 4.08 cumulative IPC: 3.773 (Simulation time: 00 hr 04 min 27 sec)
[DUEL] Epoch ended. INSTR misses = 1, DATA misses = 5. Winner = INSTR
[DUEL] Epoch ended. INSTR misses = 5, DATA misses = 2. Winner = DATA
[DUEL] Epoch ended. INSTR misses = 53, DATA misses = 56. Winner = INSTR
Heartbeat CPU 0 instructions: 100000009 cycles: 23866781 heartbeat IPC: 3.49 cumulative IPC: 3.73 (Simulation time: 00 hr 05 min 02 sec)
[DUEL] Epoch ended. INSTR misses = 23, DATA misses = 20. Winner = DATA
Heartbeat CPU 0 instructions: 110000008 cycles: 26277400 heartbeat IPC: 4.148 cumulative IPC: 3.777 (Simulation time: 00 hr 05 min 35 sec)
[DUEL] Epoch ended. INSTR misses = 0, DATA misses = 5. Winner = INSTR
*** Reached end of trace: (0, "../traces/secret_traces/crypto/crypto94.champsimtrace.xz")
[DUEL] Epoch ended. INSTR misses = 3, DATA misses = 20. Winner = INSTR
[DUEL] Epoch ended. INSTR misses = 30, DATA misses = 21. Winner = DATA
[DUEL] Epoch ended. INSTR misses = 0, DATA misses = 2. Winner = INSTR
[DUEL] Epoch ended. INSTR misses = 0, DATA misses = 0. Winner = INSTR
[DUEL] Epoch ended. INSTR misses = 0, DATA misses = 0. Winner = INSTR
[DUEL] Epoch ended. INSTR misses = 0, DATA misses = 0. Winner = INSTR
[DUEL] Epoch ended. INSTR misses = 0, DATA misses = 0. Winner = INSTR
[DUEL] Epoch ended. INSTR misses = 1, DATA misses = 0. Winner = DATA
[DUEL] Epoch ended. INSTR misses = 0, DATA misses = 0. Winner = INSTR
[DUEL] Epoch ended. INSTR misses = 2, DATA misses = 4. Winner = INSTR
[DUEL] Epoch ended. INSTR misses = 5, DATA misses = 0. Winner = DATA
[DUEL] Epoch ended. INSTR misses = 2, DATA misses = 0. Winner = DATA
[DUEL] Epoch ended. INSTR misses = 5, DATA misses = 1. Winner = DATA
Heartbeat CPU 0 instructions: 120000008 cycles: 28991352 heartbeat IPC: 3.685 cumulative IPC: 3.767 (Simulation time: 00 hr 06 min 09 sec)
[DUEL] Epoch ended. INSTR misses = 2, DATA misses = 4. Winner = INSTR
[DUEL] Epoch ended. INSTR misses = 11, DATA misses = 4. Winner = DATA
[DUEL] Epoch ended. INSTR misses = 48, DATA misses = 56. Winner = INSTR
Heartbeat CPU 0 instructions: 130000008 cycles: 31806809 heartbeat IPC: 3.552 cumulative IPC: 3.744 (Simulation time: 00 hr 06 min 44 sec)
Simulation finished CPU 0 instructions: 100000002 cycles: 26708145 cumulative IPC: 3.744 (Simulation time: 00 hr 06 min 44 sec)
Simulation complete CPU 0 instructions: 100000002 cycles: 26708145 cumulative IPC: 3.744 (Simulation time: 00 hr 06 min 44 sec)

ChampSim completed all CPUs

=== Simulation ===
CPU 0 runs ../traces/secret_traces/crypto/crypto94.champsimtrace.xz
Region of Interest Statistics

CPU 0 cumulative IPC: 3.744 instructions: 100000002 cycles: 26708145
CPU 0 Branch Prediction Accuracy: 99.33% MPKI: 0.8014 Average ROB Occupancy at Mispredict: 32.69
Branch type MPKI
BRANCH_DIRECT_JUMP: 0.044
BRANCH_INDIRECT: 0.403
BRANCH_CONDITIONAL: 0.14
BRANCH_DIRECT_CALL: 0.129
BRANCH_INDIRECT_CALL: 0.0163
BRANCH_RETURN: 0.07

LLC TOTAL        ACCESS:     344405 HIT:     238872 MISS:     105533
LLC LOAD         ACCESS:      34093 HIT:      18120 MISS:      15973
LLC RFO          ACCESS:     104164 HIT:      75924 MISS:      28240
LLC PREFETCH     ACCESS:      87648 HIT:      44941 MISS:      42707
LLC WRITE        ACCESS:     116464 HIT:      99454 MISS:      17010
LLC TRANSLATION  ACCESS:       2036 HIT:        433 MISS:       1603
LLC PREFETCH REQUESTED:          0 ISSUED:          0 USEFUL:          0 USELESS:          0
LLC AVERAGE MISS LATENCY: 181.8 cycles
cpu0_DTLB TOTAL        ACCESS:   12686919 HIT:   12653775 MISS:      33144
cpu0_DTLB LOAD         ACCESS:   12686919 HIT:   12653775 MISS:      33144
cpu0_DTLB RFO          ACCESS:          0 HIT:          0 MISS:          0
cpu0_DTLB PREFETCH     ACCESS:          0 HIT:          0 MISS:          0
cpu0_DTLB WRITE        ACCESS:          0 HIT:          0 MISS:          0
cpu0_DTLB TRANSLATION  ACCESS:          0 HIT:          0 MISS:          0
cpu0_DTLB PREFETCH REQUESTED:          0 ISSUED:          0 USEFUL:          0 USELESS:          0
cpu0_DTLB AVERAGE MISS LATENCY: 10.73 cycles
cpu0_ITLB TOTAL        ACCESS:     571422 HIT:     559618 MISS:      11804
cpu0_ITLB LOAD         ACCESS:     571422 HIT:     559618 MISS:      11804
cpu0_ITLB RFO          ACCESS:          0 HIT:          0 MISS:          0
cpu0_ITLB PREFETCH     ACCESS:          0 HIT:          0 MISS:          0
cpu0_ITLB WRITE        ACCESS:          0 HIT:          0 MISS:          0
cpu0_ITLB TRANSLATION  ACCESS:          0 HIT:          0 MISS:          0
cpu0_ITLB PREFETCH REQUESTED:          0 ISSUED:          0 USEFUL:          0 USELESS:          0
cpu0_ITLB AVERAGE MISS LATENCY: 20.6 cycles
cpu0_L1D TOTAL        ACCESS:   17382857 HIT:   16878655 MISS:     504202
cpu0_L1D LOAD         ACCESS:   10756371 HIT:   10627853 MISS:     128518
cpu0_L1D RFO          ACCESS:          0 HIT:          0 MISS:          0
cpu0_L1D PREFETCH     ACCESS:     430636 HIT:     339093 MISS:      91543
cpu0_L1D WRITE        ACCESS:    6191695 HIT:    5910213 MISS:     281482
cpu0_L1D TRANSLATION  ACCESS:       4155 HIT:       1496 MISS:       2659
cpu0_L1D PREFETCH REQUESTED:    3318329 ISSUED:     430636 USEFUL:      10442 USELESS:       1121
cpu0_L1D AVERAGE MISS LATENCY: 33.34 cycles
cpu0_L1I TOTAL        ACCESS:     831331 HIT:     693737 MISS:     137594
cpu0_L1I LOAD         ACCESS:     273465 HIT:     241121 MISS:      32344
cpu0_L1I RFO          ACCESS:          0 HIT:          0 MISS:          0
cpu0_L1I PREFETCH     ACCESS:     557866 HIT:     452616 MISS:     105250
cpu0_L1I WRITE        ACCESS:          0 HIT:          0 MISS:          0
cpu0_L1I TRANSLATION  ACCESS:          0 HIT:          0 MISS:          0
cpu0_L1I PREFETCH REQUESTED:     849674 ISSUED:     557866 USEFUL:      58747 USELESS:      41643
cpu0_L1I AVERAGE MISS LATENCY: 31.93 cycles
cpu0_L2C TOTAL        ACCESS:     798895 HIT:     500399 MISS:     298496
cpu0_L2C LOAD         ACCESS:     102855 HIT:      59905 MISS:      42950
cpu0_L2C RFO          ACCESS:     116261 HIT:      12040 MISS:     104221
cpu0_L2C PREFETCH     ACCESS:     444501 HIT:     295212 MISS:     149289
cpu0_L2C WRITE        ACCESS:     132699 HIT:     132699 MISS:          0
cpu0_L2C TRANSLATION  ACCESS:       2579 HIT:        543 MISS:       2036
cpu0_L2C PREFETCH REQUESTED:     279099 ISSUED:     268257 USEFUL:      23864 USELESS:      20423
cpu0_L2C AVERAGE MISS LATENCY: 76.91 cycles
cpu0_STLB TOTAL        ACCESS:      19959 HIT:      16169 MISS:       3790
cpu0_STLB LOAD         ACCESS:      19959 HIT:      16169 MISS:       3790
cpu0_STLB RFO          ACCESS:          0 HIT:          0 MISS:          0
cpu0_STLB PREFETCH     ACCESS:          0 HIT:          0 MISS:          0
cpu0_STLB WRITE        ACCESS:          0 HIT:          0 MISS:          0
cpu0_STLB TRANSLATION  ACCESS:          0 HIT:          0 MISS:          0
cpu0_STLB PREFETCH REQUESTED:          0 ISSUED:          0 USEFUL:          0 USELESS:          0
cpu0_STLB AVERAGE MISS LATENCY: 136.4 cycles

DRAM Statistics

Channel 0 RQ ROW_BUFFER_HIT:      20556
  ROW_BUFFER_MISS:      24405
 AVG DBUS CONGESTED CYCLE: 3.914
WQ ROW_BUFFER_HIT: Channel 0 
  ROW_BUFFER_MISS:       1801
  FULL:      15524

Channel 1 RQ ROW_BUFFER_HIT:      20111
  ROW_BUFFER_MISS:      23426
 AVG DBUS CONGESTED CYCLE: 3.901
WQ ROW_BUFFER_HIT: Channel 1 
  ROW_BUFFER_MISS:       1886
  FULL:      14422
BERTI TO_L1: 1034881 TO_L2: 2753621 TO_L2_BC_MSHR: 1698703
BERTI AVG_LAT: 73.9151 NUM_TRACK_LATENCY: 125147 NUM_CANT_TRACK_LATENCY: 0
BERTI CROSS_PAGE 781210 NO_CROSS_PAGE: 3007292
BERTI FOUND_BERTI: 762860 NO_FOUND_BERTI: 14679097
BERTI AVERAGE_ISSUED: 4.18527
CPU 0 L1I Entangling prefetcher final stats
IP accesses: 6f71 1bdc40 1385 / 274108
IP misses: 25bf 96fc0 130 / 32987
IP hits: 0 0 0 / 0
IP late: 77e3 1df8c0 51 / 16147
IP wrong: f801 3e0040 99 / 41466
miss rate: 0.120344
coverage: 0
coverage_late: 0.489496
accuracy: 0
accuracy_late: 0.280267
discarded: 0
evicts entangled j table: 0
evicts entangled k table: 5372
max bb size: 53
formats: 1367 0 4724 2208 961 2047 0 
hist_lookups: 3954 4272 3344 3092 2597 2170 1696 1277 958 780 612 410 243 155 75 0 9 4903 
hist_lookups_evict: 0.0294628 %
hist_lookups_shortlat: 16.0507 %
bb_found_hist: 0 69983 28488 14322 6206 3174 1432 1107 391 72 6 92 90 72 22 29 3 0 0 0 0 6 0 0 0 0 0 0 0 0 0 3 0 0 3 0 0 0 0 0 0 0 0 0 0 0 0 0 0 0 0 0 0 3 0 0 0 0 0 0 0 0 0 0 
bb_found_summary: 235095 125504 1.87321
entangled_found_hist: 0 36031 26464 47682 8733 2018 476 0 
entangled_found_summary: 279883 121404 2.30539
bb_ent_found_hist: 0 95113 41117 26988 11878 6980 2932 1603 1004 34 0 173 81 96 16 165 159 0 0 0 0 44 0 0 0 0 0 0 0 0 0 3 0 0 5 0 0 0 0 0 0 0 0 0 0 0 0 0 0 0 0 0 0 5 0 0 0 0 0 0 0 0 0 0 
bb_ent_found_summary: 388692 188396 2.06317
