WARNING: physical memory size is smaller than virtual memory size.

*** ChampSim Multicore Out-of-Order Simulator ***
Warmup Instructions: 30000000
Simulation Instructions: 100000000
Number of CPUs: 1
Page size: 4096

BTB:
Basic BTB sets: 1024 ways: 8
Indirect:
history lengths: 0 0 10 16 27 44 60 96 109 219 449 487 714 1313 2146 3881 
ITTAGE tables: 64768 bytes;Region table: 240 bytes;IUM: 384 bytes;Total Storage= 65392 bytes;
RAS:
RAS size: 64
[LLC] INSTR Demand IPV: 1 2 2 1 4 Prefetch IPV: 1 2 1 1 4
[LLC] DATA  Demand IPV: 1 1 1 2 4 Prefetch IPV: 1 1 2 2 4
Berti Prefetcher
CPU 0 Entangling prefetcher
Off-chip DRAM Size: 8 GiB Channels: 2 Width: 64-bit Data Race: 6400 MT/s
[DUEL] Epoch ended. INSTR misses = 53, DATA misses = 45. Winner = DATA
[DUEL] Epoch ended. INSTR misses = 16, DATA misses = 16. Winner = INSTR
[DUEL] Epoch ended. INSTR misses = 1, DATA misses = 0. Winner = DATA
[DUEL] Epoch ended. INSTR misses = 0, DATA misses = 0. Winner = INSTR
[DUEL] Epoch ended. INSTR misses = 0, DATA misses = 0. Winner = INSTR
[DUEL] Epoch ended. INSTR misses = 0, DATA misses = 0. Winner = INSTR
[DUEL] Epoch ended. INSTR misses = 0, DATA misses = 0. Winner = INSTR
[DUEL] Epoch ended. INSTR misses = 0, DATA misses = 0. Winner = INSTR
[DUEL] Epoch ended. INSTR misses = 0, DATA misses = 0. Winner = INSTR
[DUEL] Epoch ended. INSTR misses = 5, DATA misses = 10. Winner = INSTR
[DUEL] Epoch ended. INSTR misses = 0, DATA misses = 0. Winner = INSTR
[DUEL] Epoch ended. INSTR misses = 8, DATA misses = 1. Winner = DATA
[DUEL] Epoch ended. INSTR misses = 16, DATA misses = 18. Winner = INSTR
Heartbeat CPU 0 instructions: 10000002 cycles: 1715466 heartbeat IPC: 5.829 cumulative IPC: 5.829 (Simulation time: 00 hr 00 min 19 sec)
[DUEL] Epoch ended. INSTR misses = 7, DATA misses = 2. Winner = DATA
[DUEL] Epoch ended. INSTR misses = 19, DATA misses = 18. Winner = DATA
[DUEL] Epoch ended. INSTR misses = 70, DATA misses = 66. Winner = DATA
Heartbeat CPU 0 instructions: 20000000 cycles: 3431650 heartbeat IPC: 5.827 cumulative IPC: 5.828 (Simulation time: 00 hr 00 min 38 sec)
[DUEL] Epoch ended. INSTR misses = 22, DATA misses = 22. Winner = INSTR
*** Reached end of trace: (0, "../traces/secret_traces/crypto/crypto46.champsimtrace.xz")
[DUEL] Epoch ended. INSTR misses = 5, DATA misses = 1. Winner = DATA
[DUEL] Epoch ended. INSTR misses = 15, DATA misses = 4. Winner = DATA
[DUEL] Epoch ended. INSTR misses = 0, DATA misses = 0. Winner = INSTR
[DUEL] Epoch ended. INSTR misses = 1, DATA misses = 0. Winner = DATA
[DUEL] Epoch ended. INSTR misses = 0, DATA misses = 0. Winner = INSTR
[DUEL] Epoch ended. INSTR misses = 0, DATA misses = 0. Winner = INSTR
[DUEL] Epoch ended. INSTR misses = 0, DATA misses = 0. Winner = INSTR
[DUEL] Epoch ended. INSTR misses = 0, DATA misses = 0. Winner = INSTR
[DUEL] Epoch ended. INSTR misses = 0, DATA misses = 0. Winner = INSTR
[DUEL] Epoch ended. INSTR misses = 2, DATA misses = 3. Winner = INSTR
[DUEL] Epoch ended. INSTR misses = 0, DATA misses = 0. Winner = INSTR
[DUEL] Epoch ended. INSTR misses = 2, DATA misses = 0. Winner = DATA
[DUEL] Epoch ended. INSTR misses = 0, DATA misses = 0. Winner = INSTR
Heartbeat CPU 0 instructions: 30000005 cycles: 5151745 heartbeat IPC: 5.814 cumulative IPC: 5.823 (Simulation time: 00 hr 00 min 58 sec)
Warmup finished CPU 0 instructions: 30000005 cycles: 5151746 cumulative IPC: 5.823 (Simulation time: 00 hr 00 min 58 sec)
Warmup complete CPU 0 instructions: 30000005 cycles: 5151746 cumulative IPC: 5.823 (Simulation time: 00 hr 00 min 58 sec)
[DUEL] Epoch ended. INSTR misses = 2, DATA misses = 1. Winner = DATA
[DUEL] Epoch ended. INSTR misses = 3, DATA misses = 5. Winner = INSTR
[DUEL] Epoch ended. INSTR misses = 20, DATA misses = 8. Winner = DATA
Heartbeat CPU 0 instructions: 40000009 cycles: 10938671 heartbeat IPC: 1.728 cumulative IPC: 1.728 (Simulation time: 00 hr 01 min 49 sec)
[DUEL] Epoch ended. INSTR misses = 7, DATA misses = 4. Winner = DATA
*** Reached end of trace: (0, "../traces/secret_traces/crypto/crypto46.champsimtrace.xz")
[DUEL] Epoch ended. INSTR misses = 1, DATA misses = 5. Winner = INSTR
[DUEL] Epoch ended. INSTR misses = 10, DATA misses = 6. Winner = DATA
[DUEL] Epoch ended. INSTR misses = 0, DATA misses = 0. Winner = INSTR
[DUEL] Epoch ended. INSTR misses = 1, DATA misses = 0. Winner = DATA
[DUEL] Epoch ended. INSTR misses = 0, DATA misses = 0. Winner = INSTR
[DUEL] Epoch ended. INSTR misses = 0, DATA misses = 0. Winner = INSTR
[DUEL] Epoch ended. INSTR misses = 0, DATA misses = 0. Winner = INSTR
[DUEL] Epoch ended. INSTR misses = 0, DATA misses = 0. Winner = INSTR
[DUEL] Epoch ended. INSTR misses = 0, DATA misses = 0. Winner = INSTR
[DUEL] Epoch ended. INSTR misses = 0, DATA misses = 2. Winner = INSTR
[DUEL] Epoch ended. INSTR misses = 1, DATA misses = 0. Winner = DATA
[DUEL] Epoch ended. INSTR misses = 2, DATA misses = 0. Winner = DATA
Heartbeat CPU 0 instructions: 50000000 cycles: 15797174 heartbeat IPC: 2.058 cumulative IPC: 1.879 (Simulation time: 00 hr 02 min 35 sec)
[DUEL] Epoch ended. INSTR misses = 1, DATA misses = 1. Winner = INSTR
Heartbeat CPU 0 instructions: 60000000 cycles: 21338217 heartbeat IPC: 1.805 cumulative IPC: 1.853 (Simulation time: 00 hr 03 min 25 sec)
[DUEL] Epoch ended. INSTR misses = 2, DATA misses = 0. Winner = DATA
[DUEL] Epoch ended. INSTR misses = 1, DATA misses = 0. Winner = DATA
[DUEL] Epoch ended. INSTR misses = 18, DATA misses = 11. Winner = DATA
[DUEL] Epoch ended. INSTR misses = 7, DATA misses = 4. Winner = DATA
*** Reached end of trace: (0, "../traces/secret_traces/crypto/crypto46.champsimtrace.xz")
[DUEL] Epoch ended. INSTR misses = 1, DATA misses = 7. Winner = INSTR
[DUEL] Epoch ended. INSTR misses = 9, DATA misses = 2. Winner = DATA
[DUEL] Epoch ended. INSTR misses = 0, DATA misses = 0. Winner = INSTR
[DUEL] Epoch ended. INSTR misses = 1, DATA misses = 0. Winner = DATA
[DUEL] Epoch ended. INSTR misses = 0, DATA misses = 0. Winner = INSTR
[DUEL] Epoch ended. INSTR misses = 0, DATA misses = 0. Winner = INSTR
[DUEL] Epoch ended. INSTR misses = 0, DATA misses = 0. Winner = INSTR
Heartbeat CPU 0 instructions: 70000003 cycles: 26592694 heartbeat IPC: 1.903 cumulative IPC: 1.866 (Simulation time: 00 hr 04 min 12 sec)
[DUEL] Epoch ended. INSTR misses = 0, DATA misses = 0. Winner = INSTR
[DUEL] Epoch ended. INSTR misses = 0, DATA misses = 0. Winner = INSTR
[DUEL] Epoch ended. INSTR misses = 0, DATA misses = 1. Winner = INSTR
[DUEL] Epoch ended. INSTR misses = 0, DATA misses = 0. Winner = INSTR
[DUEL] Epoch ended. INSTR misses = 1, DATA misses = 0. Winner = DATA
[DUEL] Epoch ended. INSTR misses = 0, DATA misses = 0. Winner = INSTR
Heartbeat CPU 0 instructions: 80000000 cycles: 31759267 heartbeat IPC: 1.936 cumulative IPC: 1.879 (Simulation time: 00 hr 05 min 00 sec)
[DUEL] Epoch ended. INSTR misses = 2, DATA misses = 0. Winner = DATA
[DUEL] Epoch ended. INSTR misses = 2, DATA misses = 0. Winner = DATA
[DUEL] Epoch ended. INSTR misses = 16, DATA misses = 11. Winner = DATA
Heartbeat CPU 0 instructions: 90000000 cycles: 37409670 heartbeat IPC: 1.77 cumulative IPC: 1.86 (Simulation time: 00 hr 05 min 51 sec)
[DUEL] Epoch ended. INSTR misses = 5, DATA misses = 4. Winner = DATA
*** Reached end of trace: (0, "../traces/secret_traces/crypto/crypto46.champsimtrace.xz")
[DUEL] Epoch ended. INSTR misses = 1, DATA misses = 6. Winner = INSTR
[DUEL] Epoch ended. INSTR misses = 6, DATA misses = 6. Winner = INSTR
[DUEL] Epoch ended. INSTR misses = 0, DATA misses = 0. Winner = INSTR
[DUEL] Epoch ended. INSTR misses = 1, DATA misses = 0. Winner = DATA
[DUEL] Epoch ended. INSTR misses = 0, DATA misses = 0. Winner = INSTR
[DUEL] Epoch ended. INSTR misses = 0, DATA misses = 0. Winner = INSTR
[DUEL] Epoch ended. INSTR misses = 0, DATA misses = 0. Winner = INSTR
[DUEL] Epoch ended. INSTR misses = 0, DATA misses = 0. Winner = INSTR
[DUEL] Epoch ended. INSTR misses = 0, DATA misses = 0. Winner = INSTR
[DUEL] Epoch ended. INSTR misses = 0, DATA misses = 1. Winner = INSTR
[DUEL] Epoch ended. INSTR misses = 1, DATA misses = 0. Winner = DATA
[DUEL] Epoch ended. INSTR misses = 2, DATA misses = 0. Winner = DATA
[DUEL] Epoch ended. INSTR misses = 0, DATA misses = 1. Winner = INSTR
Heartbeat CPU 0 instructions: 100000001 cycles: 42104360 heartbeat IPC: 2.13 cumulative IPC: 1.894 (Simulation time: 00 hr 06 min 36 sec)
[DUEL] Epoch ended. INSTR misses = 2, DATA misses = 0. Winner = DATA
[DUEL] Epoch ended. INSTR misses = 1, DATA misses = 0. Winner = DATA
[DUEL] Epoch ended. INSTR misses = 15, DATA misses = 11. Winner = DATA
Heartbeat CPU 0 instructions: 110000000 cycles: 47743035 heartbeat IPC: 1.773 cumulative IPC: 1.878 (Simulation time: 00 hr 07 min 26 sec)
[DUEL] Epoch ended. INSTR misses = 5, DATA misses = 4. Winner = DATA
*** Reached end of trace: (0, "../traces/secret_traces/crypto/crypto46.champsimtrace.xz")
[DUEL] Epoch ended. INSTR misses = 1, DATA misses = 2. Winner = INSTR
[DUEL] Epoch ended. INSTR misses = 7, DATA misses = 2. Winner = DATA
[DUEL] Epoch ended. INSTR misses = 1, DATA misses = 0. Winner = DATA
[DUEL] Epoch ended. INSTR misses = 1, DATA misses = 0. Winner = DATA
[DUEL] Epoch ended. INSTR misses = 0, DATA misses = 0. Winner = INSTR
[DUEL] Epoch ended. INSTR misses = 0, DATA misses = 0. Winner = INSTR
[DUEL] Epoch ended. INSTR misses = 0, DATA misses = 0. Winner = INSTR
[DUEL] Epoch ended. INSTR misses = 0, DATA misses = 0. Winner = INSTR
[DUEL] Epoch ended. INSTR misses = 0, DATA misses = 0. Winner = INSTR
[DUEL] Epoch ended. INSTR misses = 1, DATA misses = 1. Winner = INSTR
[DUEL] Epoch ended. INSTR misses = 1, DATA misses = 0. Winner = DATA
[DUEL] Epoch ended. INSTR misses = 2, DATA misses = 0. Winner = DATA
[DUEL] Epoch ended. INSTR misses = 0, DATA misses = 0. Winner = INSTR
Heartbeat CPU 0 instructions: 120000000 cycles: 52415650 heartbeat IPC: 2.14 cumulative IPC: 1.904 (Simulation time: 00 hr 08 min 11 sec)
Heartbeat CPU 0 instructions: 130000005 cycles: 57930436 heartbeat IPC: 1.813 cumulative IPC: 1.895 (Simulation time: 00 hr 09 min 01 sec)
Simulation finished CPU 0 instructions: 100000000 cycles: 52778691 cumulative IPC: 1.895 (Simulation time: 00 hr 09 min 01 sec)
Simulation complete CPU 0 instructions: 100000000 cycles: 52778691 cumulative IPC: 1.895 (Simulation time: 00 hr 09 min 01 sec)

ChampSim completed all CPUs

=== Simulation ===
CPU 0 runs ../traces/secret_traces/crypto/crypto46.champsimtrace.xz
Region of Interest Statistics

CPU 0 cumulative IPC: 1.895 instructions: 100000000 cycles: 52778691
CPU 0 Branch Prediction Accuracy: 98.69% MPKI: 0.9658 Average ROB Occupancy at Mispredict: 32.41
Branch type MPKI
BRANCH_DIRECT_JUMP: 0.0575
BRANCH_INDIRECT: 0.513
BRANCH_CONDITIONAL: 0.117
BRANCH_DIRECT_CALL: 0.167
BRANCH_INDIRECT_CALL: 0.0204
BRANCH_RETURN: 0.0908

LLC TOTAL        ACCESS:     457312 HIT:     337244 MISS:     120068
LLC LOAD         ACCESS:      46841 HIT:      25160 MISS:      21681
LLC RFO          ACCESS:     140589 HIT:     115393 MISS:      25196
LLC PREFETCH     ACCESS:     111423 HIT:      58678 MISS:      52745
LLC WRITE        ACCESS:     155750 HIT:     137330 MISS:      18420
LLC TRANSLATION  ACCESS:       2709 HIT:        683 MISS:       2026
LLC PREFETCH REQUESTED:          0 ISSUED:          0 USEFUL:          0 USELESS:          0
LLC AVERAGE MISS LATENCY: 160.6 cycles
cpu0_DTLB TOTAL        ACCESS:   16820817 HIT:   16776235 MISS:      44582
cpu0_DTLB LOAD         ACCESS:   16820817 HIT:   16776235 MISS:      44582
cpu0_DTLB RFO          ACCESS:          0 HIT:          0 MISS:          0
cpu0_DTLB PREFETCH     ACCESS:          0 HIT:          0 MISS:          0
cpu0_DTLB WRITE        ACCESS:          0 HIT:          0 MISS:          0
cpu0_DTLB TRANSLATION  ACCESS:          0 HIT:          0 MISS:          0
cpu0_DTLB PREFETCH REQUESTED:          0 ISSUED:          0 USEFUL:          0 USELESS:          0
cpu0_DTLB AVERAGE MISS LATENCY: 9.693 cycles
cpu0_ITLB TOTAL        ACCESS:     760003 HIT:     744573 MISS:      15430
cpu0_ITLB LOAD         ACCESS:     760003 HIT:     744573 MISS:      15430
cpu0_ITLB RFO          ACCESS:          0 HIT:          0 MISS:          0
cpu0_ITLB PREFETCH     ACCESS:          0 HIT:          0 MISS:          0
cpu0_ITLB WRITE        ACCESS:          0 HIT:          0 MISS:          0
cpu0_ITLB TRANSLATION  ACCESS:          0 HIT:          0 MISS:          0
cpu0_ITLB PREFETCH REQUESTED:          0 ISSUED:          0 USEFUL:          0 USELESS:          0
cpu0_ITLB AVERAGE MISS LATENCY: 19.26 cycles
cpu0_L1D TOTAL        ACCESS:   19867983 HIT:   19116150 MISS:     751833
cpu0_L1D LOAD         ACCESS:   13555506 HIT:   13382946 MISS:     172560
cpu0_L1D RFO          ACCESS:          0 HIT:          0 MISS:          0
cpu0_L1D PREFETCH     ACCESS:    2190812 HIT:    1989542 MISS:     201270
cpu0_L1D WRITE        ACCESS:    4116183 HIT:    3741738 MISS:     374445
cpu0_L1D TRANSLATION  ACCESS:       5482 HIT:       1924 MISS:       3558
cpu0_L1D PREFETCH REQUESTED:    5331130 ISSUED:    2190812 USEFUL:      12824 USELESS:       1354
cpu0_L1D AVERAGE MISS LATENCY: 23.07 cycles
cpu0_L1I TOTAL        ACCESS:    1107650 HIT:     929185 MISS:     178465
cpu0_L1I LOAD         ACCESS:     361624 HIT:     322383 MISS:      39241
cpu0_L1I RFO          ACCESS:          0 HIT:          0 MISS:          0
cpu0_L1I PREFETCH     ACCESS:     746026 HIT:     606802 MISS:     139224
cpu0_L1I WRITE        ACCESS:          0 HIT:          0 MISS:          0
cpu0_L1I TRANSLATION  ACCESS:          0 HIT:          0 MISS:          0
cpu0_L1I PREFETCH REQUESTED:    1184530 ISSUED:     746026 USEFUL:      78596 USELESS:      54969
cpu0_L1I AVERAGE MISS LATENCY: 32.48 cycles
cpu0_L2C TOTAL        ACCESS:    1217884 HIT:     826167 MISS:     391717
cpu0_L2C LOAD         ACCESS:     135385 HIT:      77746 MISS:      57639
cpu0_L2C RFO          ACCESS:     154847 HIT:      14211 MISS:     140636
cpu0_L2C PREFETCH     ACCESS:     747369 HIT:     556636 MISS:     190733
cpu0_L2C WRITE        ACCESS:     176841 HIT:     176841 MISS:          0
cpu0_L2C TRANSLATION  ACCESS:       3442 HIT:        733 MISS:       2709
cpu0_L2C PREFETCH REQUESTED:     449576 ISSUED:     433181 USEFUL:      28169 USELESS:      26436
cpu0_L2C AVERAGE MISS LATENCY: 62.5 cycles
cpu0_STLB TOTAL        ACCESS:      26508 HIT:      21504 MISS:       5004
cpu0_STLB LOAD         ACCESS:      26508 HIT:      21504 MISS:       5004
cpu0_STLB RFO          ACCESS:          0 HIT:          0 MISS:          0
cpu0_STLB PREFETCH     ACCESS:          0 HIT:          0 MISS:          0
cpu0_STLB WRITE        ACCESS:          0 HIT:          0 MISS:          0
cpu0_STLB TRANSLATION  ACCESS:          0 HIT:          0 MISS:          0
cpu0_STLB PREFETCH REQUESTED:          0 ISSUED:          0 USEFUL:          0 USELESS:          0
cpu0_STLB AVERAGE MISS LATENCY: 124 cycles

DRAM Statistics

Channel 0 RQ ROW_BUFFER_HIT:      24347
  ROW_BUFFER_MISS:      27368
 AVG DBUS CONGESTED CYCLE: 3.884
WQ ROW_BUFFER_HIT: Channel 0 
  ROW_BUFFER_MISS:       2076
  FULL:      12301

Channel 1 RQ ROW_BUFFER_HIT:      23541
  ROW_BUFFER_MISS:      26364
 AVG DBUS CONGESTED CYCLE: 3.871
WQ ROW_BUFFER_HIT: Channel 1 
  ROW_BUFFER_MISS:       1864
  FULL:      11529
BERTI TO_L1: 1846109 TO_L2: 4858056 TO_L2_BC_MSHR: 1716103
BERTI AVG_LAT: 62.1176 NUM_TRACK_LATENCY: 168131 NUM_CANT_TRACK_LATENCY: 0
BERTI CROSS_PAGE 904206 NO_CROSS_PAGE: 5799959
BERTI FOUND_BERTI: 3145203 NO_FOUND_BERTI: 14486934
BERTI AVERAGE_ISSUED: 2.85786
CPU 0 L1I Entangling prefetcher final stats
IP accesses: 6f71 1bdc40 1894 / 362800
IP misses: 25bf 96fc0 180 / 40417
IP hits: 0 0 0 / 0
IP late: 20b7 82dc0 50 / 19792
IP wrong: f801 3e0040 129 / 54733
miss rate: 0.111403
coverage: 0
coverage_late: 0.489695
accuracy: 0
accuracy_late: 0.265576
discarded: 0
evicts entangled j table: 0
evicts entangled k table: 6815
max bb size: 53
formats: 1749 0 5575 2626 1099 1967 0 
hist_lookups: 4303 4934 4075 3573 3230 2816 2089 1571 1267 999 734 484 333 197 89 0 9 7327 
hist_lookups_evict: 0.0236656 %
hist_lookups_shortlat: 19.2664 %
bb_found_hist: 0 93349 38835 18598 9059 4028 2255 1715 519 130 6 109 39 104 28 0 4 0 0 0 0 8 0 0 0 0 0 0 0 0 0 4 4 0 4 0 0 0 0 0 0 0 0 0 0 0 0 0 0 0 0 0 0 4 0 0 0 0 0 0 0 0 0 0 
bb_found_summary: 318349 168802 1.88594
entangled_found_hist: 0 51098 35710 65786 13033 2591 829 0 
entangled_found_summary: 389937 169047 2.30668
bb_ent_found_hist: 0 129082 55834 40225 18407 9945 5201 2101 1856 117 0 160 121 75 16 0 4 0 0 0 0 23 0 0 0 0 0 0 0 0 0 8 4 0 8 0 0 0 0 0 0 0 0 0 0 0 0 0 0 0 0 0 0 7 0 0 0 0 0 0 0 0 0 0 
bb_ent_found_summary: 552569 263194 2.09948
