WARNING: physical memory size is smaller than virtual memory size.

*** ChampSim Multicore Out-of-Order Simulator ***
Warmup Instructions: 30000000
Simulation Instructions: 100000000
Number of CPUs: 1
Page size: 4096

BTB:
Basic BTB sets: 1024 ways: 8
Indirect:
history lengths: 0 0 10 16 27 44 60 96 109 219 449 487 714 1313 2146 3881 
ITTAGE tables: 64768 bytes;Region table: 240 bytes;IUM: 384 bytes;Total Storage= 65392 bytes;
RAS:
RAS size: 64
[LLC] INSTR Demand IPV: 1 2 2 1 4 Prefetch IPV: 1 2 1 1 4
[LLC] DATA  Demand IPV: 1 1 1 2 4 Prefetch IPV: 1 1 2 2 4
Berti Prefetcher
CPU 0 Entangling prefetcher
Off-chip DRAM Size: 8 GiB Channels: 2 Width: 64-bit Data Race: 6400 MT/s
[DUEL] Epoch ended. INSTR misses = 53, DATA misses = 45. Winner = DATA
[DUEL] Epoch ended. INSTR misses = 16, DATA misses = 16. Winner = INSTR
[DUEL] Epoch ended. INSTR misses = 1, DATA misses = 0. Winner = DATA
[DUEL] Epoch ended. INSTR misses = 0, DATA misses = 0. Winner = INSTR
[DUEL] Epoch ended. INSTR misses = 0, DATA misses = 0. Winner = INSTR
[DUEL] Epoch ended. INSTR misses = 0, DATA misses = 0. Winner = INSTR
[DUEL] Epoch ended. INSTR misses = 0, DATA misses = 0. Winner = INSTR
[DUEL] Epoch ended. INSTR misses = 0, DATA misses = 0. Winner = INSTR
[DUEL] Epoch ended. INSTR misses = 0, DATA misses = 0. Winner = INSTR
[DUEL] Epoch ended. INSTR misses = 5, DATA misses = 10. Winner = INSTR
[DUEL] Epoch ended. INSTR misses = 0, DATA misses = 0. Winner = INSTR
[DUEL] Epoch ended. INSTR misses = 8, DATA misses = 1. Winner = DATA
[DUEL] Epoch ended. INSTR misses = 16, DATA misses = 18. Winner = INSTR
Heartbeat CPU 0 instructions: 10000006 cycles: 1715484 heartbeat IPC: 5.829 cumulative IPC: 5.829 (Simulation time: 00 hr 00 min 19 sec)
[DUEL] Epoch ended. INSTR misses = 7, DATA misses = 12. Winner = INSTR
[DUEL] Epoch ended. INSTR misses = 18, DATA misses = 22. Winner = INSTR
[DUEL] Epoch ended. INSTR misses = 90, DATA misses = 86. Winner = DATA
Heartbeat CPU 0 instructions: 20000005 cycles: 3432183 heartbeat IPC: 5.825 cumulative IPC: 5.827 (Simulation time: 00 hr 00 min 37 sec)
[DUEL] Epoch ended. INSTR misses = 29, DATA misses = 25. Winner = DATA
Heartbeat CPU 0 instructions: 30000002 cycles: 5098905 heartbeat IPC: 6 cumulative IPC: 5.884 (Simulation time: 00 hr 00 min 54 sec)
Warmup finished CPU 0 instructions: 30000002 cycles: 5098906 cumulative IPC: 5.884 (Simulation time: 00 hr 00 min 54 sec)
Warmup complete CPU 0 instructions: 30000002 cycles: 5098906 cumulative IPC: 5.884 (Simulation time: 00 hr 00 min 54 sec)
[DUEL] Epoch ended. INSTR misses = 0, DATA misses = 0. Winner = INSTR
*** Reached end of trace: (0, "../traces/secret_traces/crypto/crypto49.champsimtrace.xz")
[DUEL] Epoch ended. INSTR misses = 8, DATA misses = 21. Winner = INSTR
[DUEL] Epoch ended. INSTR misses = 17, DATA misses = 9. Winner = DATA
[DUEL] Epoch ended. INSTR misses = 0, DATA misses = 0. Winner = INSTR
[DUEL] Epoch ended. INSTR misses = 1, DATA misses = 0. Winner = DATA
[DUEL] Epoch ended. INSTR misses = 0, DATA misses = 0. Winner = INSTR
[DUEL] Epoch ended. INSTR misses = 0, DATA misses = 0. Winner = INSTR
[DUEL] Epoch ended. INSTR misses = 0, DATA misses = 0. Winner = INSTR
[DUEL] Epoch ended. INSTR misses = 0, DATA misses = 0. Winner = INSTR
[DUEL] Epoch ended. INSTR misses = 0, DATA misses = 0. Winner = INSTR
[DUEL] Epoch ended. INSTR misses = 5, DATA misses = 4. Winner = DATA
[DUEL] Epoch ended. INSTR misses = 0, DATA misses = 0. Winner = INSTR
[DUEL] Epoch ended. INSTR misses = 1, DATA misses = 0. Winner = DATA
[DUEL] Epoch ended. INSTR misses = 3, DATA misses = 0. Winner = DATA
Heartbeat CPU 0 instructions: 40000000 cycles: 7632613 heartbeat IPC: 3.947 cumulative IPC: 3.947 (Simulation time: 00 hr 01 min 21 sec)
[DUEL] Epoch ended. INSTR misses = 6, DATA misses = 7. Winner = INSTR
Heartbeat CPU 0 instructions: 50000005 cycles: 9590115 heartbeat IPC: 5.109 cumulative IPC: 4.453 (Simulation time: 00 hr 01 min 44 sec)
[DUEL] Epoch ended. INSTR misses = 3, DATA misses = 2. Winner = DATA
[DUEL] Epoch ended. INSTR misses = 27, DATA misses = 29. Winner = INSTR
Heartbeat CPU 0 instructions: 60000009 cycles: 11932417 heartbeat IPC: 4.269 cumulative IPC: 4.39 (Simulation time: 00 hr 02 min 09 sec)
[DUEL] Epoch ended. INSTR misses = 10, DATA misses = 4. Winner = DATA
[DUEL] Epoch ended. INSTR misses = 1, DATA misses = 0. Winner = DATA
*** Reached end of trace: (0, "../traces/secret_traces/crypto/crypto49.champsimtrace.xz")
[DUEL] Epoch ended. INSTR misses = 10, DATA misses = 5. Winner = DATA
[DUEL] Epoch ended. INSTR misses = 13, DATA misses = 13. Winner = INSTR
[DUEL] Epoch ended. INSTR misses = 0, DATA misses = 0. Winner = INSTR
[DUEL] Epoch ended. INSTR misses = 1, DATA misses = 0. Winner = DATA
[DUEL] Epoch ended. INSTR misses = 0, DATA misses = 0. Winner = INSTR
[DUEL] Epoch ended. INSTR misses = 0, DATA misses = 0. Winner = INSTR
[DUEL] Epoch ended. INSTR misses = 0, DATA misses = 0. Winner = INSTR
[DUEL] Epoch ended. INSTR misses = 0, DATA misses = 0. Winner = INSTR
[DUEL] Epoch ended. INSTR misses = 0, DATA misses = 0. Winner = INSTR
[DUEL] Epoch ended. INSTR misses = 4, DATA misses = 5. Winner = INSTR
[DUEL] Epoch ended. INSTR misses = 0, DATA misses = 0. Winner = INSTR
[DUEL] Epoch ended. INSTR misses = 2, DATA misses = 0. Winner = DATA
Heartbeat CPU 0 instructions: 70000004 cycles: 14311373 heartbeat IPC: 4.204 cumulative IPC: 4.342 (Simulation time: 00 hr 02 min 36 sec)
[DUEL] Epoch ended. INSTR misses = 3, DATA misses = 6. Winner = INSTR
Heartbeat CPU 0 instructions: 80000003 cycles: 16200890 heartbeat IPC: 5.292 cumulative IPC: 4.504 (Simulation time: 00 hr 02 min 58 sec)
[DUEL] Epoch ended. INSTR misses = 3, DATA misses = 9. Winner = INSTR
[DUEL] Epoch ended. INSTR misses = 2, DATA misses = 3. Winner = INSTR
[DUEL] Epoch ended. INSTR misses = 29, DATA misses = 28. Winner = DATA
Heartbeat CPU 0 instructions: 90000000 cycles: 18513370 heartbeat IPC: 4.324 cumulative IPC: 4.473 (Simulation time: 00 hr 03 min 24 sec)
[DUEL] Epoch ended. INSTR misses = 9, DATA misses = 2. Winner = DATA
[DUEL] Epoch ended. INSTR misses = 0, DATA misses = 0. Winner = INSTR
*** Reached end of trace: (0, "../traces/secret_traces/crypto/crypto49.champsimtrace.xz")
[DUEL] Epoch ended. INSTR misses = 9, DATA misses = 8. Winner = DATA
[DUEL] Epoch ended. INSTR misses = 10, DATA misses = 9. Winner = DATA
[DUEL] Epoch ended. INSTR misses = 0, DATA misses = 1. Winner = INSTR
[DUEL] Epoch ended. INSTR misses = 1, DATA misses = 0. Winner = DATA
[DUEL] Epoch ended. INSTR misses = 0, DATA misses = 0. Winner = INSTR
[DUEL] Epoch ended. INSTR misses = 0, DATA misses = 0. Winner = INSTR
[DUEL] Epoch ended. INSTR misses = 0, DATA misses = 0. Winner = INSTR
[DUEL] Epoch ended. INSTR misses = 0, DATA misses = 0. Winner = INSTR
[DUEL] Epoch ended. INSTR misses = 0, DATA misses = 0. Winner = INSTR
[DUEL] Epoch ended. INSTR misses = 3, DATA misses = 4. Winner = INSTR
[DUEL] Epoch ended. INSTR misses = 0, DATA misses = 0. Winner = INSTR
Heartbeat CPU 0 instructions: 100000006 cycles: 20730223 heartbeat IPC: 4.511 cumulative IPC: 4.478 (Simulation time: 00 hr 03 min 49 sec)
[DUEL] Epoch ended. INSTR misses = 1, DATA misses = 0. Winner = DATA
[DUEL] Epoch ended. INSTR misses = 3, DATA misses = 6. Winner = INSTR
Heartbeat CPU 0 instructions: 110000001 cycles: 22698510 heartbeat IPC: 5.081 cumulative IPC: 4.546 (Simulation time: 00 hr 04 min 12 sec)
[DUEL] Epoch ended. INSTR misses = 3, DATA misses = 8. Winner = INSTR
[DUEL] Epoch ended. INSTR misses = 2, DATA misses = 3. Winner = INSTR
[DUEL] Epoch ended. INSTR misses = 20, DATA misses = 27. Winner = INSTR
Heartbeat CPU 0 instructions: 120000001 cycles: 24963892 heartbeat IPC: 4.414 cumulative IPC: 4.531 (Simulation time: 00 hr 04 min 38 sec)
[DUEL] Epoch ended. INSTR misses = 6, DATA misses = 0. Winner = DATA
[DUEL] Epoch ended. INSTR misses = 0, DATA misses = 0. Winner = INSTR
*** Reached end of trace: (0, "../traces/secret_traces/crypto/crypto49.champsimtrace.xz")
[DUEL] Epoch ended. INSTR misses = 10, DATA misses = 3. Winner = DATA
Heartbeat CPU 0 instructions: 130000002 cycles: 27012631 heartbeat IPC: 4.881 cumulative IPC: 4.563 (Simulation time: 00 hr 05 min 01 sec)
Simulation finished CPU 0 instructions: 100000000 cycles: 21913726 cumulative IPC: 4.563 (Simulation time: 00 hr 05 min 01 sec)
Simulation complete CPU 0 instructions: 100000000 cycles: 21913726 cumulative IPC: 4.563 (Simulation time: 00 hr 05 min 01 sec)

ChampSim completed all CPUs

=== Simulation ===
CPU 0 runs ../traces/secret_traces/crypto/crypto49.champsimtrace.xz
Region of Interest Statistics

CPU 0 cumulative IPC: 4.563 instructions: 100000000 cycles: 21913726
CPU 0 Branch Prediction Accuracy: 98.52% MPKI: 0.8698 Average ROB Occupancy at Mispredict: 31.03
Branch type MPKI
BRANCH_DIRECT_JUMP: 0.0496
BRANCH_INDIRECT: 0.436
BRANCH_CONDITIONAL: 0.144
BRANCH_DIRECT_CALL: 0.144
BRANCH_INDIRECT_CALL: 0.0176
BRANCH_RETURN: 0.0789

LLC TOTAL        ACCESS:     369060 HIT:     262619 MISS:     106441
LLC LOAD         ACCESS:      36699 HIT:      19445 MISS:      17254
LLC RFO          ACCESS:     111120 HIT:      85842 MISS:      25278
LLC PREFETCH     ACCESS:      92580 HIT:      47338 MISS:      45242
LLC WRITE        ACCESS:     126428 HIT:     109426 MISS:      17002
LLC TRANSLATION  ACCESS:       2233 HIT:        568 MISS:       1665
LLC PREFETCH REQUESTED:          0 ISSUED:          0 USEFUL:          0 USELESS:          0
LLC AVERAGE MISS LATENCY: 168.8 cycles
cpu0_DTLB TOTAL        ACCESS:   10141817 HIT:   10106440 MISS:      35377
cpu0_DTLB LOAD         ACCESS:   10141817 HIT:   10106440 MISS:      35377
cpu0_DTLB RFO          ACCESS:          0 HIT:          0 MISS:          0
cpu0_DTLB PREFETCH     ACCESS:          0 HIT:          0 MISS:          0
cpu0_DTLB WRITE        ACCESS:          0 HIT:          0 MISS:          0
cpu0_DTLB TRANSLATION  ACCESS:          0 HIT:          0 MISS:          0
cpu0_DTLB PREFETCH REQUESTED:          0 ISSUED:          0 USEFUL:          0 USELESS:          0
cpu0_DTLB AVERAGE MISS LATENCY: 10.38 cycles
cpu0_ITLB TOTAL        ACCESS:     633605 HIT:     620257 MISS:      13348
cpu0_ITLB LOAD         ACCESS:     633605 HIT:     620257 MISS:      13348
cpu0_ITLB RFO          ACCESS:          0 HIT:          0 MISS:          0
cpu0_ITLB PREFETCH     ACCESS:          0 HIT:          0 MISS:          0
cpu0_ITLB WRITE        ACCESS:          0 HIT:          0 MISS:          0
cpu0_ITLB TRANSLATION  ACCESS:          0 HIT:          0 MISS:          0
cpu0_ITLB PREFETCH REQUESTED:          0 ISSUED:          0 USEFUL:          0 USELESS:          0
cpu0_ITLB AVERAGE MISS LATENCY: 18.81 cycles
cpu0_L1D TOTAL        ACCESS:   12845722 HIT:   12326254 MISS:     519468
cpu0_L1D LOAD         ACCESS:    9130981 HIT:    8997942 MISS:     133039
cpu0_L1D RFO          ACCESS:          0 HIT:          0 MISS:          0
cpu0_L1D PREFETCH     ACCESS:     553069 HIT:     458989 MISS:      94080
cpu0_L1D WRITE        ACCESS:    3157169 HIT:    2867753 MISS:     289416
cpu0_L1D TRANSLATION  ACCESS:       4503 HIT:       1570 MISS:       2933
cpu0_L1D PREFETCH REQUESTED:    3223137 ISSUED:     553069 USEFUL:      10402 USELESS:       1092
cpu0_L1D AVERAGE MISS LATENCY: 30.04 cycles
cpu0_L1I TOTAL        ACCESS:     921806 HIT:     769967 MISS:     151839
cpu0_L1I LOAD         ACCESS:     302306 HIT:     267933 MISS:      34373
cpu0_L1I RFO          ACCESS:          0 HIT:          0 MISS:          0
cpu0_L1I PREFETCH     ACCESS:     619500 HIT:     502034 MISS:     117466
cpu0_L1I WRITE        ACCESS:          0 HIT:          0 MISS:          0
cpu0_L1I TRANSLATION  ACCESS:          0 HIT:          0 MISS:          0
cpu0_L1I PREFETCH REQUESTED:     951334 ISSUED:     619500 USEFUL:      65931 USELESS:      46371
cpu0_L1I AVERAGE MISS LATENCY: 32.06 cycles
cpu0_L2C TOTAL        ACCESS:     851187 HIT:     535849 MISS:     315338
cpu0_L2C LOAD         ACCESS:     108104 HIT:      62709 MISS:      45395
cpu0_L2C RFO          ACCESS:     120971 HIT:       9811 MISS:     111160
cpu0_L2C PREFETCH     ACCESS:     480859 HIT:     324309 MISS:     156550
cpu0_L2C WRITE        ACCESS:     138388 HIT:     138388 MISS:          0
cpu0_L2C TRANSLATION  ACCESS:       2865 HIT:        632 MISS:       2233
cpu0_L2C PREFETCH REQUESTED:     299731 ISSUED:     289232 USEFUL:      24230 USELESS:      21197
cpu0_L2C AVERAGE MISS LATENCY: 70.1 cycles
cpu0_STLB TOTAL        ACCESS:      22049 HIT:      17930 MISS:       4119
cpu0_STLB LOAD         ACCESS:      22049 HIT:      17930 MISS:       4119
cpu0_STLB RFO          ACCESS:          0 HIT:          0 MISS:          0
cpu0_STLB PREFETCH     ACCESS:          0 HIT:          0 MISS:          0
cpu0_STLB WRITE        ACCESS:          0 HIT:          0 MISS:          0
cpu0_STLB TRANSLATION  ACCESS:          0 HIT:          0 MISS:          0
cpu0_STLB PREFETCH REQUESTED:          0 ISSUED:          0 USEFUL:          0 USELESS:          0
cpu0_STLB AVERAGE MISS LATENCY: 128.2 cycles

DRAM Statistics

Channel 0 RQ ROW_BUFFER_HIT:      20983
  ROW_BUFFER_MISS:      24477
 AVG DBUS CONGESTED CYCLE: 3.899
WQ ROW_BUFFER_HIT: Channel 0 
  ROW_BUFFER_MISS:       1887
  FULL:      13294

Channel 1 RQ ROW_BUFFER_HIT:      20199
  ROW_BUFFER_MISS:      23763
 AVG DBUS CONGESTED CYCLE: 3.887
WQ ROW_BUFFER_HIT: Channel 1 
  ROW_BUFFER_MISS:       1707
  FULL:      12681
BERTI TO_L1: 1099882 TO_L2: 2627701 TO_L2_BC_MSHR: 1507423
BERTI AVG_LAT: 69.8246 NUM_TRACK_LATENCY: 128966 NUM_CANT_TRACK_LATENCY: 0
BERTI CROSS_PAGE 751260 NO_CROSS_PAGE: 2976323
BERTI FOUND_BERTI: 2290652 NO_FOUND_BERTI: 9876290
BERTI AVERAGE_ISSUED: 3.94712
CPU 0 L1I Entangling prefetcher final stats
IP accesses: 6f71 1bdc40 1810 / 302839
IP misses: 25bf 96fc0 118 / 34906
IP hits: 0 0 0 / 0
IP late: 91b9 246e40 45 / 17156
IP wrong: f801 3e0040 115 / 46195
miss rate: 0.115263
coverage: 0
coverage_late: 0.491492
accuracy: 0
accuracy_late: 0.270809
discarded: 0
evicts entangled j table: 0
evicts entangled k table: 5865
max bb size: 53
formats: 1432 0 5136 2532 1070 2149 0 
hist_lookups: 4377 4699 3739 3241 2826 2365 1819 1288 1063 892 606 444 295 164 89 0 6 5041 
hist_lookups_evict: 0.0182072 %
hist_lookups_shortlat: 15.2971 %
bb_found_hist: 0 76329 31617 15931 7131 3700 1590 1400 413 86 16 101 95 72 24 0 3 0 0 0 1 7 0 0 0 0 0 0 0 0 0 3 3 0 3 0 0 0 0 0 0 0 0 0 0 0 0 0 0 0 0 0 0 2 0 0 0 0 0 0 0 0 0 0 
bb_found_summary: 262093 138527 1.892
entangled_found_hist: 0 41124 28790 54372 10765 1668 331 0 
entangled_found_summary: 315206 137050 2.29994
bb_ent_found_hist: 0 105556 46928 32255 11138 7753 3202 1907 1820 118 32 252 47 59 12 0 3 0 0 0 1 59 0 0 0 0 0 0 0 0 0 3 3 0 5 0 0 0 0 0 0 0 0 0 0 0 0 0 0 0 0 0 0 4 0 0 0 0 0 0 0 0 0 0 
bb_ent_found_summary: 434146 211157 2.05604
