WARNING: physical memory size is smaller than virtual memory size.

*** ChampSim Multicore Out-of-Order Simulator ***
Warmup Instructions: 30000000
Simulation Instructions: 100000000
Number of CPUs: 1
Page size: 4096

BTB:
Basic BTB sets: 1024 ways: 8
Indirect:
history lengths: 0 0 10 16 27 44 60 96 109 219 449 487 714 1313 2146 3881 
ITTAGE tables: 64768 bytes;Region table: 240 bytes;IUM: 384 bytes;Total Storage= 65392 bytes;
RAS:
RAS size: 64
[LLC] INSTR Demand IPV: 1 2 2 1 4 Prefetch IPV: 1 2 1 1 4
[LLC] DATA  Demand IPV: 1 1 1 2 4 Prefetch IPV: 1 1 2 2 4
Berti Prefetcher
CPU 0 Entangling prefetcher
Off-chip DRAM Size: 8 GiB Channels: 2 Width: 64-bit Data Race: 6400 MT/s
[DUEL] Epoch ended. INSTR misses = 54, DATA misses = 46. Winner = DATA
[DUEL] Epoch ended. INSTR misses = 16, DATA misses = 17. Winner = INSTR
[DUEL] Epoch ended. INSTR misses = 0, DATA misses = 0. Winner = INSTR
[DUEL] Epoch ended. INSTR misses = 0, DATA misses = 0. Winner = INSTR
[DUEL] Epoch ended. INSTR misses = 3, DATA misses = 0. Winner = DATA
[DUEL] Epoch ended. INSTR misses = 1, DATA misses = 0. Winner = DATA
[DUEL] Epoch ended. INSTR misses = 1, DATA misses = 0. Winner = DATA
[DUEL] Epoch ended. INSTR misses = 0, DATA misses = 0. Winner = INSTR
[DUEL] Epoch ended. INSTR misses = 0, DATA misses = 0. Winner = INSTR
[DUEL] Epoch ended. INSTR misses = 15, DATA misses = 11. Winner = DATA
[DUEL] Epoch ended. INSTR misses = 6, DATA misses = 2. Winner = DATA
[DUEL] Epoch ended. INSTR misses = 1, DATA misses = 8. Winner = INSTR
[DUEL] Epoch ended. INSTR misses = 0, DATA misses = 0. Winner = INSTR
[DUEL] Epoch ended. INSTR misses = 0, DATA misses = 0. Winner = INSTR
[DUEL] Epoch ended. INSTR misses = 6, DATA misses = 12. Winner = INSTR
Heartbeat CPU 0 instructions: 10000001 cycles: 1715377 heartbeat IPC: 5.83 cumulative IPC: 5.83 (Simulation time: 00 hr 00 min 21 sec)
[DUEL] Epoch ended. INSTR misses = 0, DATA misses = 0. Winner = INSTR
[DUEL] Epoch ended. INSTR misses = 23, DATA misses = 26. Winner = INSTR
[DUEL] Epoch ended. INSTR misses = 91, DATA misses = 87. Winner = DATA
[DUEL] Epoch ended. INSTR misses = 27, DATA misses = 24. Winner = DATA
Heartbeat CPU 0 instructions: 20000000 cycles: 3431775 heartbeat IPC: 5.826 cumulative IPC: 5.828 (Simulation time: 00 hr 00 min 41 sec)
[DUEL] Epoch ended. INSTR misses = 0, DATA misses = 0. Winner = INSTR
*** Reached end of trace: (0, "../traces/secret_traces/crypto/crypto56.champsimtrace.xz")
[DUEL] Epoch ended. INSTR misses = 5, DATA misses = 11. Winner = INSTR
[DUEL] Epoch ended. INSTR misses = 11, DATA misses = 6. Winner = DATA
[DUEL] Epoch ended. INSTR misses = 2, DATA misses = 0. Winner = DATA
[DUEL] Epoch ended. INSTR misses = 0, DATA misses = 0. Winner = INSTR
[DUEL] Epoch ended. INSTR misses = 1, DATA misses = 0. Winner = DATA
[DUEL] Epoch ended. INSTR misses = 0, DATA misses = 0. Winner = INSTR
[DUEL] Epoch ended. INSTR misses = 0, DATA misses = 0. Winner = INSTR
[DUEL] Epoch ended. INSTR misses = 0, DATA misses = 0. Winner = INSTR
[DUEL] Epoch ended. INSTR misses = 0, DATA misses = 0. Winner = INSTR
[DUEL] Epoch ended. INSTR misses = 6, DATA misses = 5. Winner = DATA
[DUEL] Epoch ended. INSTR misses = 3, DATA misses = 2. Winner = DATA
[DUEL] Epoch ended. INSTR misses = 0, DATA misses = 0. Winner = INSTR
[DUEL] Epoch ended. INSTR misses = 1, DATA misses = 5. Winner = INSTR
Heartbeat CPU 0 instructions: 30000005 cycles: 5149918 heartbeat IPC: 5.82 cumulative IPC: 5.825 (Simulation time: 00 hr 01 min 02 sec)
Warmup finished CPU 0 instructions: 30000005 cycles: 5149919 cumulative IPC: 5.825 (Simulation time: 00 hr 01 min 02 sec)
Warmup complete CPU 0 instructions: 30000005 cycles: 5149919 cumulative IPC: 5.825 (Simulation time: 00 hr 01 min 02 sec)
[DUEL] Epoch ended. INSTR misses = 0, DATA misses = 0. Winner = INSTR
Heartbeat CPU 0 instructions: 40000000 cycles: 7239240 heartbeat IPC: 4.786 cumulative IPC: 4.786 (Simulation time: 00 hr 01 min 29 sec)
[DUEL] Epoch ended. INSTR misses = 5, DATA misses = 10. Winner = INSTR
[DUEL] Epoch ended. INSTR misses = 3, DATA misses = 4. Winner = INSTR
[DUEL] Epoch ended. INSTR misses = 38, DATA misses = 38. Winner = INSTR
[DUEL] Epoch ended. INSTR misses = 11, DATA misses = 10. Winner = DATA
Heartbeat CPU 0 instructions: 50000001 cycles: 9780477 heartbeat IPC: 3.935 cumulative IPC: 4.319 (Simulation time: 00 hr 01 min 58 sec)
[DUEL] Epoch ended. INSTR misses = 0, DATA misses = 0. Winner = INSTR
*** Reached end of trace: (0, "../traces/secret_traces/crypto/crypto56.champsimtrace.xz")
[DUEL] Epoch ended. INSTR misses = 3, DATA misses = 3. Winner = INSTR
[DUEL] Epoch ended. INSTR misses = 10, DATA misses = 3. Winner = DATA
[DUEL] Epoch ended. INSTR misses = 2, DATA misses = 0. Winner = DATA
[DUEL] Epoch ended. INSTR misses = 0, DATA misses = 0. Winner = INSTR
[DUEL] Epoch ended. INSTR misses = 1, DATA misses = 0. Winner = DATA
[DUEL] Epoch ended. INSTR misses = 0, DATA misses = 0. Winner = INSTR
[DUEL] Epoch ended. INSTR misses = 0, DATA misses = 0. Winner = INSTR
[DUEL] Epoch ended. INSTR misses = 0, DATA misses = 0. Winner = INSTR
[DUEL] Epoch ended. INSTR misses = 0, DATA misses = 0. Winner = INSTR
[DUEL] Epoch ended. INSTR misses = 7, DATA misses = 4. Winner = DATA
[DUEL] Epoch ended. INSTR misses = 4, DATA misses = 2. Winner = DATA
[DUEL] Epoch ended. INSTR misses = 1, DATA misses = 0. Winner = DATA
[DUEL] Epoch ended. INSTR misses = 1, DATA misses = 5. Winner = INSTR
[DUEL] Epoch ended. INSTR misses = 0, DATA misses = 0. Winner = INSTR
Heartbeat CPU 0 instructions: 60000001 cycles: 12276609 heartbeat IPC: 4.006 cumulative IPC: 4.21 (Simulation time: 00 hr 02 min 27 sec)
[DUEL] Epoch ended. INSTR misses = 5, DATA misses = 7. Winner = INSTR
[DUEL] Epoch ended. INSTR misses = 1, DATA misses = 5. Winner = INSTR
Heartbeat CPU 0 instructions: 70000001 cycles: 14616226 heartbeat IPC: 4.274 cumulative IPC: 4.226 (Simulation time: 00 hr 02 min 55 sec)
[DUEL] Epoch ended. INSTR misses = 34, DATA misses = 33. Winner = DATA
[DUEL] Epoch ended. INSTR misses = 10, DATA misses = 5. Winner = DATA
[DUEL] Epoch ended. INSTR misses = 0, DATA misses = 0. Winner = INSTR
*** Reached end of trace: (0, "../traces/secret_traces/crypto/crypto56.champsimtrace.xz")
[DUEL] Epoch ended. INSTR misses = 7, DATA misses = 3. Winner = DATA
[DUEL] Epoch ended. INSTR misses = 2, DATA misses = 0. Winner = DATA
[DUEL] Epoch ended. INSTR misses = 2, DATA misses = 0. Winner = DATA
[DUEL] Epoch ended. INSTR misses = 0, DATA misses = 0. Winner = INSTR
[DUEL] Epoch ended. INSTR misses = 1, DATA misses = 0. Winner = DATA
[DUEL] Epoch ended. INSTR misses = 0, DATA misses = 0. Winner = INSTR
[DUEL] Epoch ended. INSTR misses = 0, DATA misses = 0. Winner = INSTR
Heartbeat CPU 0 instructions: 80000000 cycles: 17075852 heartbeat IPC: 4.066 cumulative IPC: 4.193 (Simulation time: 00 hr 03 min 24 sec)
[DUEL] Epoch ended. INSTR misses = 0, DATA misses = 0. Winner = INSTR
[DUEL] Epoch ended. INSTR misses = 0, DATA misses = 0. Winner = INSTR
[DUEL] Epoch ended. INSTR misses = 4, DATA misses = 4. Winner = INSTR
[DUEL] Epoch ended. INSTR misses = 4, DATA misses = 2. Winner = DATA
[DUEL] Epoch ended. INSTR misses = 1, DATA misses = 0. Winner = DATA
[DUEL] Epoch ended. INSTR misses = 1, DATA misses = 5. Winner = INSTR
[DUEL] Epoch ended. INSTR misses = 0, DATA misses = 0. Winner = INSTR
Heartbeat CPU 0 instructions: 90000007 cycles: 19276311 heartbeat IPC: 4.545 cumulative IPC: 4.247 (Simulation time: 00 hr 03 min 51 sec)
[DUEL] Epoch ended. INSTR misses = 5, DATA misses = 6. Winner = INSTR
[DUEL] Epoch ended. INSTR misses = 3, DATA misses = 3. Winner = INSTR
[DUEL] Epoch ended. INSTR misses = 27, DATA misses = 29. Winner = INSTR
[DUEL] Epoch ended. INSTR misses = 8, DATA misses = 4. Winner = DATA
Heartbeat CPU 0 instructions: 100000001 cycles: 21747665 heartbeat IPC: 4.046 cumulative IPC: 4.217 (Simulation time: 00 hr 04 min 20 sec)
[DUEL] Epoch ended. INSTR misses = 1, DATA misses = 0. Winner = DATA
*** Reached end of trace: (0, "../traces/secret_traces/crypto/crypto56.champsimtrace.xz")
[DUEL] Epoch ended. INSTR misses = 8, DATA misses = 3. Winner = DATA
[DUEL] Epoch ended. INSTR misses = 3, DATA misses = 0. Winner = DATA
[DUEL] Epoch ended. INSTR misses = 2, DATA misses = 0. Winner = DATA
[DUEL] Epoch ended. INSTR misses = 0, DATA misses = 0. Winner = INSTR
[DUEL] Epoch ended. INSTR misses = 1, DATA misses = 0. Winner = DATA
[DUEL] Epoch ended. INSTR misses = 0, DATA misses = 0. Winner = INSTR
[DUEL] Epoch ended. INSTR misses = 0, DATA misses = 0. Winner = INSTR
[DUEL] Epoch ended. INSTR misses = 0, DATA misses = 0. Winner = INSTR
[DUEL] Epoch ended. INSTR misses = 0, DATA misses = 0. Winner = INSTR
[DUEL] Epoch ended. INSTR misses = 5, DATA misses = 4. Winner = DATA
[DUEL] Epoch ended. INSTR misses = 4, DATA misses = 2. Winner = DATA
[DUEL] Epoch ended. INSTR misses = 1, DATA misses = 0. Winner = DATA
[DUEL] Epoch ended. INSTR misses = 1, DATA misses = 5. Winner = INSTR
Heartbeat CPU 0 instructions: 110000004 cycles: 24136109 heartbeat IPC: 4.187 cumulative IPC: 4.214 (Simulation time: 00 hr 04 min 49 sec)
[DUEL] Epoch ended. INSTR misses = 0, DATA misses = 0. Winner = INSTR
Heartbeat CPU 0 instructions: 120000006 cycles: 26223121 heartbeat IPC: 4.792 cumulative IPC: 4.271 (Simulation time: 00 hr 05 min 16 sec)
[DUEL] Epoch ended. INSTR misses = 5, DATA misses = 5. Winner = INSTR
[DUEL] Epoch ended. INSTR misses = 2, DATA misses = 3. Winner = INSTR
[DUEL] Epoch ended. INSTR misses = 26, DATA misses = 28. Winner = INSTR
[DUEL] Epoch ended. INSTR misses = 7, DATA misses = 4. Winner = DATA
Heartbeat CPU 0 instructions: 130000006 cycles: 28700284 heartbeat IPC: 4.037 cumulative IPC: 4.246 (Simulation time: 00 hr 05 min 45 sec)
Simulation finished CPU 0 instructions: 100000001 cycles: 23550366 cumulative IPC: 4.246 (Simulation time: 00 hr 05 min 45 sec)
Simulation complete CPU 0 instructions: 100000001 cycles: 23550366 cumulative IPC: 4.246 (Simulation time: 00 hr 05 min 45 sec)

ChampSim completed all CPUs

=== Simulation ===
CPU 0 runs ../traces/secret_traces/crypto/crypto56.champsimtrace.xz
Region of Interest Statistics

CPU 0 cumulative IPC: 4.246 instructions: 100000001 cycles: 23550366
CPU 0 Branch Prediction Accuracy: 98.29% MPKI: 0.8403 Average ROB Occupancy at Mispredict: 32.64
Branch type MPKI
BRANCH_DIRECT_JUMP: 0.05
BRANCH_INDIRECT: 0.439
BRANCH_CONDITIONAL: 0.108
BRANCH_DIRECT_CALL: 0.145
BRANCH_INDIRECT_CALL: 0.0185
BRANCH_RETURN: 0.0798

LLC TOTAL        ACCESS:     427592 HIT:     307941 MISS:     119651
LLC LOAD         ACCESS:      43472 HIT:      23053 MISS:      20419
LLC RFO          ACCESS:     131613 HIT:     104209 MISS:      27404
LLC PREFETCH     ACCESS:     104346 HIT:      55274 MISS:      49072
LLC WRITE        ACCESS:     145717 HIT:     124794 MISS:      20923
LLC TRANSLATION  ACCESS:       2444 HIT:        611 MISS:       1833
LLC PREFETCH REQUESTED:          0 ISSUED:          0 USEFUL:          0 USELESS:          0
LLC AVERAGE MISS LATENCY: 163.6 cycles
cpu0_DTLB TOTAL        ACCESS:   13241843 HIT:   13201008 MISS:      40835
cpu0_DTLB LOAD         ACCESS:   13241843 HIT:   13201008 MISS:      40835
cpu0_DTLB RFO          ACCESS:          0 HIT:          0 MISS:          0
cpu0_DTLB PREFETCH     ACCESS:          0 HIT:          0 MISS:          0
cpu0_DTLB WRITE        ACCESS:          0 HIT:          0 MISS:          0
cpu0_DTLB TRANSLATION  ACCESS:          0 HIT:          0 MISS:          0
cpu0_DTLB PREFETCH REQUESTED:          0 ISSUED:          0 USEFUL:          0 USELESS:          0
cpu0_DTLB AVERAGE MISS LATENCY: 10.4 cycles
cpu0_ITLB TOTAL        ACCESS:     663621 HIT:     650328 MISS:      13293
cpu0_ITLB LOAD         ACCESS:     663621 HIT:     650328 MISS:      13293
cpu0_ITLB RFO          ACCESS:          0 HIT:          0 MISS:          0
cpu0_ITLB PREFETCH     ACCESS:          0 HIT:          0 MISS:          0
cpu0_ITLB WRITE        ACCESS:          0 HIT:          0 MISS:          0
cpu0_ITLB TRANSLATION  ACCESS:          0 HIT:          0 MISS:          0
cpu0_ITLB PREFETCH REQUESTED:          0 ISSUED:          0 USEFUL:          0 USELESS:          0
cpu0_ITLB AVERAGE MISS LATENCY: 18.78 cycles
cpu0_L1D TOTAL        ACCESS:   27561573 HIT:   26946700 MISS:     614873
cpu0_L1D LOAD         ACCESS:    7938607 HIT:    7780788 MISS:     157819
cpu0_L1D RFO          ACCESS:          0 HIT:          0 MISS:          0
cpu0_L1D PREFETCH     ACCESS:   16398619 HIT:   16295661 MISS:     102958
cpu0_L1D WRITE        ACCESS:    3219361 HIT:    2868454 MISS:     350907
cpu0_L1D TRANSLATION  ACCESS:       4986 HIT:       1797 MISS:       3189
cpu0_L1D PREFETCH REQUESTED:   22292808 ISSUED:   16398652 USEFUL:      15014 USELESS:       1877
cpu0_L1D AVERAGE MISS LATENCY: 28.82 cycles
cpu0_L1I TOTAL        ACCESS:     964836 HIT:     805431 MISS:     159405
cpu0_L1I LOAD         ACCESS:     316824 HIT:     280331 MISS:      36493
cpu0_L1I RFO          ACCESS:          0 HIT:          0 MISS:          0
cpu0_L1I PREFETCH     ACCESS:     648012 HIT:     525100 MISS:     122912
cpu0_L1I WRITE        ACCESS:          0 HIT:          0 MISS:          0
cpu0_L1I TRANSLATION  ACCESS:          0 HIT:          0 MISS:          0
cpu0_L1I PREFETCH REQUESTED:    1046009 ISSUED:     648012 USEFUL:      69319 USELESS:      48459
cpu0_L1I AVERAGE MISS LATENCY: 32.59 cycles
cpu0_L2C TOTAL        ACCESS:     947357 HIT:     580697 MISS:     366660
cpu0_L2C LOAD         ACCESS:     124181 HIT:      70193 MISS:      53988
cpu0_L2C RFO          ACCESS:     143265 HIT:      11604 MISS:     131661
cpu0_L2C PREFETCH     ACCESS:     510533 HIT:     331966 MISS:     178567
cpu0_L2C WRITE        ACCESS:     166302 HIT:     166302 MISS:          0
cpu0_L2C TRANSLATION  ACCESS:       3076 HIT:        632 MISS:       2444
cpu0_L2C PREFETCH REQUESTED:     325263 ISSUED:     309455 USEFUL:      27139 USELESS:      24457
cpu0_L2C AVERAGE MISS LATENCY: 66.62 cycles
cpu0_STLB TOTAL        ACCESS:      23622 HIT:      19094 MISS:       4528
cpu0_STLB LOAD         ACCESS:      23622 HIT:      19094 MISS:       4528
cpu0_STLB RFO          ACCESS:          0 HIT:          0 MISS:          0
cpu0_STLB PREFETCH     ACCESS:          0 HIT:          0 MISS:          0
cpu0_STLB WRITE        ACCESS:          0 HIT:          0 MISS:          0
cpu0_STLB TRANSLATION  ACCESS:          0 HIT:          0 MISS:          0
cpu0_STLB PREFETCH REQUESTED:          0 ISSUED:          0 USEFUL:          0 USELESS:          0
cpu0_STLB AVERAGE MISS LATENCY: 127.9 cycles

DRAM Statistics

Channel 0 RQ ROW_BUFFER_HIT:      23664
  ROW_BUFFER_MISS:      26471
 AVG DBUS CONGESTED CYCLE: 3.904
WQ ROW_BUFFER_HIT: Channel 0 
  ROW_BUFFER_MISS:       1901
  FULL:      14305

Channel 1 RQ ROW_BUFFER_HIT:      22850
  ROW_BUFFER_MISS:      25711
 AVG DBUS CONGESTED CYCLE: 3.88
WQ ROW_BUFFER_HIT: Channel 1 
  ROW_BUFFER_MISS:       2009
  FULL:      13059
BERTI TO_L1: 23516580 TO_L2: 5102869 TO_L2_BC_MSHR: 1821495
BERTI AVG_LAT: 65.6806 NUM_TRACK_LATENCY: 161116 NUM_CANT_TRACK_LATENCY: 0
BERTI CROSS_PAGE 9573485 NO_CROSS_PAGE: 19045964
BERTI FOUND_BERTI: 3555398 NO_FOUND_BERTI: 7460076
BERTI AVERAGE_ISSUED: 10.8743
CPU 0 L1I Entangling prefetcher final stats
IP accesses: 77e1 1df840 1411 / 317574
IP misses: 25bf 96fc0 118 / 37243
IP hits: 0 0 0 / 0
IP late: 59b0 166c00 46 / 18445
IP wrong: f801 3e0040 103 / 48248
miss rate: 0.117274
coverage: 0
coverage_late: 0.495261
accuracy: 0
accuracy_late: 0.276566
discarded: 0
evicts entangled j table: 0
evicts entangled k table: 6302
max bb size: 53
formats: 1569 0 5032 2521 936 1905 0 
hist_lookups: 3933 4627 3787 3429 3093 2539 1921 1459 1084 910 699 463 290 168 107 0 6 6511 
hist_lookups_evict: 0.0171302 %
hist_lookups_shortlat: 18.5891 %
bb_found_hist: 0 82146 34748 16401 7219 4002 1837 1582 474 130 8 99 113 98 24 0 3 0 0 0 0 6 0 0 0 0 0 0 0 0 0 3 0 0 3 0 0 0 0 0 0 0 0 0 0 0 0 0 0 0 0 0 0 3 0 0 0 0 0 0 0 0 0 0 
bb_found_summary: 281452 148899 1.89023
entangled_found_hist: 0 45655 31334 58364 12602 1991 590 0 
entangled_found_summary: 347318 150536 2.30721
bb_ent_found_hist: 0 115881 54199 33614 14820 8029 4263 2231 1587 326 0 134 162 42 15 0 3 0 0 0 0 12 0 0 0 0 0 0 0 0 0 6 0 0 6 0 0 0 0 0 0 0 0 0 0 0 0 0 0 0 0 0 0 6 0 0 0 0 0 0 0 0 0 0 
bb_ent_found_summary: 486553 235336 2.06749
