WARNING: physical memory size is smaller than virtual memory size.

*** ChampSim Multicore Out-of-Order Simulator ***
Warmup Instructions: 30000000
Simulation Instructions: 100000000
Number of CPUs: 1
Page size: 4096

BTB:
Basic BTB sets: 1024 ways: 8
Indirect:
history lengths: 0 0 10 16 27 44 60 96 109 219 449 487 714 1313 2146 3881 
ITTAGE tables: 64768 bytes;Region table: 240 bytes;IUM: 384 bytes;Total Storage= 65392 bytes;
RAS:
RAS size: 64
[LLC] INSTR Demand IPV: 1 2 2 1 4 Prefetch IPV: 1 2 1 1 4
[LLC] DATA  Demand IPV: 1 1 1 2 4 Prefetch IPV: 1 1 2 2 4
Berti Prefetcher
CPU 0 Entangling prefetcher
Off-chip DRAM Size: 8 GiB Channels: 2 Width: 64-bit Data Race: 6400 MT/s
[DUEL] Epoch ended. INSTR misses = 53, DATA misses = 61. Winner = INSTR
[DUEL] Epoch ended. INSTR misses = 16, DATA misses = 16. Winner = INSTR
[DUEL] Epoch ended. INSTR misses = 0, DATA misses = 0. Winner = INSTR
[DUEL] Epoch ended. INSTR misses = 0, DATA misses = 0. Winner = INSTR
[DUEL] Epoch ended. INSTR misses = 0, DATA misses = 0. Winner = INSTR
[DUEL] Epoch ended. INSTR misses = 0, DATA misses = 0. Winner = INSTR
[DUEL] Epoch ended. INSTR misses = 16, DATA misses = 16. Winner = INSTR
[DUEL] Epoch ended. INSTR misses = 0, DATA misses = 0. Winner = INSTR
[DUEL] Epoch ended. INSTR misses = 0, DATA misses = 0. Winner = INSTR
[DUEL] Epoch ended. INSTR misses = 4, DATA misses = 2. Winner = DATA
[DUEL] Epoch ended. INSTR misses = 8, DATA misses = 2. Winner = DATA
[DUEL] Epoch ended. INSTR misses = 0, DATA misses = 6. Winner = INSTR
[DUEL] Epoch ended. INSTR misses = 2, DATA misses = 0. Winner = DATA
Heartbeat CPU 0 instructions: 10000004 cycles: 1834160 heartbeat IPC: 5.452 cumulative IPC: 5.452 (Simulation time: 00 hr 00 min 23 sec)
[DUEL] Epoch ended. INSTR misses = 7, DATA misses = 20. Winner = INSTR
[DUEL] Epoch ended. INSTR misses = 23, DATA misses = 30. Winner = INSTR
[DUEL] Epoch ended. INSTR misses = 112, DATA misses = 111. Winner = DATA
Heartbeat CPU 0 instructions: 20000002 cycles: 3713667 heartbeat IPC: 5.321 cumulative IPC: 5.386 (Simulation time: 00 hr 00 min 47 sec)
[DUEL] Epoch ended. INSTR misses = 32, DATA misses = 35. Winner = INSTR
Heartbeat CPU 0 instructions: 30000008 cycles: 5556922 heartbeat IPC: 5.425 cumulative IPC: 5.399 (Simulation time: 00 hr 01 min 10 sec)
Warmup finished CPU 0 instructions: 30000008 cycles: 5556923 cumulative IPC: 5.399 (Simulation time: 00 hr 01 min 10 sec)
Warmup complete CPU 0 instructions: 30000008 cycles: 5556923 cumulative IPC: 5.399 (Simulation time: 00 hr 01 min 10 sec)
[DUEL] Epoch ended. INSTR misses = 0, DATA misses = 0. Winner = INSTR
Heartbeat CPU 0 instructions: 40000009 cycles: 7401156 heartbeat IPC: 5.422 cumulative IPC: 5.422 (Simulation time: 00 hr 01 min 37 sec)
[DUEL] Epoch ended. INSTR misses = 0, DATA misses = 3. Winner = INSTR
*** Reached end of trace: (0, "../traces/secret_traces/crypto/crypto33.champsimtrace.xz")
[DUEL] Epoch ended. INSTR misses = 3, DATA misses = 11. Winner = INSTR
[DUEL] Epoch ended. INSTR misses = 9, DATA misses = 10. Winner = INSTR
[DUEL] Epoch ended. INSTR misses = 0, DATA misses = 0. Winner = INSTR
[DUEL] Epoch ended. INSTR misses = 0, DATA misses = 0. Winner = INSTR
[DUEL] Epoch ended. INSTR misses = 0, DATA misses = 0. Winner = INSTR
Heartbeat CPU 0 instructions: 50000003 cycles: 9662853 heartbeat IPC: 4.421 cumulative IPC: 4.871 (Simulation time: 00 hr 02 min 05 sec)
[DUEL] Epoch ended. INSTR misses = 0, DATA misses = 0. Winner = INSTR
[DUEL] Epoch ended. INSTR misses = 0, DATA misses = 0. Winner = INSTR
[DUEL] Epoch ended. INSTR misses = 1, DATA misses = 0. Winner = DATA
[DUEL] Epoch ended. INSTR misses = 0, DATA misses = 0. Winner = INSTR
[DUEL] Epoch ended. INSTR misses = 0, DATA misses = 0. Winner = INSTR
[DUEL] Epoch ended. INSTR misses = 4, DATA misses = 0. Winner = DATA
[DUEL] Epoch ended. INSTR misses = 7, DATA misses = 1. Winner = DATA
[DUEL] Epoch ended. INSTR misses = 0, DATA misses = 3. Winner = INSTR
[DUEL] Epoch ended. INSTR misses = 0, DATA misses = 0. Winner = INSTR
Heartbeat CPU 0 instructions: 60000001 cycles: 11779218 heartbeat IPC: 4.725 cumulative IPC: 4.821 (Simulation time: 00 hr 02 min 33 sec)
[DUEL] Epoch ended. INSTR misses = 3, DATA misses = 12. Winner = INSTR
[DUEL] Epoch ended. INSTR misses = 7, DATA misses = 9. Winner = INSTR
[DUEL] Epoch ended. INSTR misses = 65, DATA misses = 87. Winner = INSTR
Heartbeat CPU 0 instructions: 70000006 cycles: 14153366 heartbeat IPC: 4.212 cumulative IPC: 4.653 (Simulation time: 00 hr 03 min 03 sec)
[DUEL] Epoch ended. INSTR misses = 18, DATA misses = 21. Winner = INSTR
Heartbeat CPU 0 instructions: 80000006 cycles: 16008030 heartbeat IPC: 5.392 cumulative IPC: 4.784 (Simulation time: 00 hr 03 min 30 sec)
[DUEL] Epoch ended. INSTR misses = 0, DATA misses = 0. Winner = INSTR
Heartbeat CPU 0 instructions: 90000011 cycles: 17852211 heartbeat IPC: 5.422 cumulative IPC: 4.88 (Simulation time: 00 hr 03 min 56 sec)
[DUEL] Epoch ended. INSTR misses = 0, DATA misses = 1. Winner = INSTR
*** Reached end of trace: (0, "../traces/secret_traces/crypto/crypto33.champsimtrace.xz")
[DUEL] Epoch ended. INSTR misses = 2, DATA misses = 9. Winner = INSTR
[DUEL] Epoch ended. INSTR misses = 8, DATA misses = 8. Winner = INSTR
[DUEL] Epoch ended. INSTR misses = 0, DATA misses = 0. Winner = INSTR
[DUEL] Epoch ended. INSTR misses = 0, DATA misses = 0. Winner = INSTR
[DUEL] Epoch ended. INSTR misses = 0, DATA misses = 0. Winner = INSTR
[DUEL] Epoch ended. INSTR misses = 0, DATA misses = 0. Winner = INSTR
[DUEL] Epoch ended. INSTR misses = 0, DATA misses = 0. Winner = INSTR
[DUEL] Epoch ended. INSTR misses = 1, DATA misses = 0. Winner = DATA
[DUEL] Epoch ended. INSTR misses = 0, DATA misses = 0. Winner = INSTR
[DUEL] Epoch ended. INSTR misses = 0, DATA misses = 0. Winner = INSTR
[DUEL] Epoch ended. INSTR misses = 2, DATA misses = 0. Winner = DATA
Heartbeat CPU 0 instructions: 100000001 cycles: 20081592 heartbeat IPC: 4.486 cumulative IPC: 4.819 (Simulation time: 00 hr 04 min 25 sec)
[DUEL] Epoch ended. INSTR misses = 7, DATA misses = 2. Winner = DATA
[DUEL] Epoch ended. INSTR misses = 0, DATA misses = 3. Winner = INSTR
[DUEL] Epoch ended. INSTR misses = 0, DATA misses = 0. Winner = INSTR
Heartbeat CPU 0 instructions: 110000001 cycles: 22061167 heartbeat IPC: 5.052 cumulative IPC: 4.847 (Simulation time: 00 hr 04 min 52 sec)
[DUEL] Epoch ended. INSTR misses = 4, DATA misses = 9. Winner = INSTR
[DUEL] Epoch ended. INSTR misses = 4, DATA misses = 7. Winner = INSTR
[DUEL] Epoch ended. INSTR misses = 59, DATA misses = 77. Winner = INSTR
Heartbeat CPU 0 instructions: 120000003 cycles: 24356316 heartbeat IPC: 4.357 cumulative IPC: 4.787 (Simulation time: 00 hr 05 min 22 sec)
[DUEL] Epoch ended. INSTR misses = 15, DATA misses = 21. Winner = INSTR
Heartbeat CPU 0 instructions: 130000011 cycles: 26211737 heartbeat IPC: 5.39 cumulative IPC: 4.841 (Simulation time: 00 hr 05 min 48 sec)
Simulation finished CPU 0 instructions: 100000003 cycles: 20654815 cumulative IPC: 4.841 (Simulation time: 00 hr 05 min 48 sec)
Simulation complete CPU 0 instructions: 100000003 cycles: 20654815 cumulative IPC: 4.841 (Simulation time: 00 hr 05 min 48 sec)

ChampSim completed all CPUs

=== Simulation ===
CPU 0 runs ../traces/secret_traces/crypto/crypto33.champsimtrace.xz
Region of Interest Statistics

CPU 0 cumulative IPC: 4.841 instructions: 100000003 cycles: 20654815
CPU 0 Branch Prediction Accuracy: 99.72% MPKI: 0.5655 Average ROB Occupancy at Mispredict: 31.67
Branch type MPKI
BRANCH_DIRECT_JUMP: 0.0298
BRANCH_INDIRECT: 0.278
BRANCH_CONDITIONAL: 0.111
BRANCH_DIRECT_CALL: 0.0875
BRANCH_INDIRECT_CALL: 0.011
BRANCH_RETURN: 0.0477

LLC TOTAL        ACCESS:     231382 HIT:     163377 MISS:      68005
LLC LOAD         ACCESS:      24572 HIT:      13152 MISS:      11420
LLC RFO          ACCESS:      70859 HIT:      54323 MISS:      16536
LLC PREFETCH     ACCESS:      56143 HIT:      30096 MISS:      26047
LLC WRITE        ACCESS:      78489 HIT:      65527 MISS:      12962
LLC TRANSLATION  ACCESS:       1319 HIT:        279 MISS:       1040
LLC PREFETCH REQUESTED:          0 ISSUED:          0 USEFUL:          0 USELESS:          0
LLC AVERAGE MISS LATENCY: 152.6 cycles
cpu0_DTLB TOTAL        ACCESS:   14420225 HIT:   14397810 MISS:      22415
cpu0_DTLB LOAD         ACCESS:   14420225 HIT:   14397810 MISS:      22415
cpu0_DTLB RFO          ACCESS:          0 HIT:          0 MISS:          0
cpu0_DTLB PREFETCH     ACCESS:          0 HIT:          0 MISS:          0
cpu0_DTLB WRITE        ACCESS:          0 HIT:          0 MISS:          0
cpu0_DTLB TRANSLATION  ACCESS:          0 HIT:          0 MISS:          0
cpu0_DTLB PREFETCH REQUESTED:          0 ISSUED:          0 USEFUL:          0 USELESS:          0
cpu0_DTLB AVERAGE MISS LATENCY: 10.09 cycles
cpu0_ITLB TOTAL        ACCESS:   11001025 HIT:   10992947 MISS:       8078
cpu0_ITLB LOAD         ACCESS:   11001025 HIT:   10992947 MISS:       8078
cpu0_ITLB RFO          ACCESS:          0 HIT:          0 MISS:          0
cpu0_ITLB PREFETCH     ACCESS:          0 HIT:          0 MISS:          0
cpu0_ITLB WRITE        ACCESS:          0 HIT:          0 MISS:          0
cpu0_ITLB TRANSLATION  ACCESS:          0 HIT:          0 MISS:          0
cpu0_ITLB PREFETCH REQUESTED:          0 ISSUED:          0 USEFUL:          0 USELESS:          0
cpu0_ITLB AVERAGE MISS LATENCY: 19.23 cycles
cpu0_L1D TOTAL        ACCESS:   22592607 HIT:   22268522 MISS:     324085
cpu0_L1D LOAD         ACCESS:   10084300 HIT:    9997937 MISS:      86363
cpu0_L1D RFO          ACCESS:          0 HIT:          0 MISS:          0
cpu0_L1D PREFETCH     ACCESS:     277907 HIT:     229473 MISS:      48434
cpu0_L1D WRITE        ACCESS:   12227675 HIT:   12040081 MISS:     187594
cpu0_L1D TRANSLATION  ACCESS:       2725 HIT:       1031 MISS:       1694
cpu0_L1D PREFETCH REQUESTED:    2036178 ISSUED:     277907 USEFUL:       6206 USELESS:        795
cpu0_L1D AVERAGE MISS LATENCY: 29.3 cycles
cpu0_L1I TOTAL        ACCESS:   15852043 HIT:   15756143 MISS:      95900
cpu0_L1I LOAD         ACCESS:    3215455 HIT:    3191581 MISS:      23874
cpu0_L1I RFO          ACCESS:          0 HIT:          0 MISS:          0
cpu0_L1I PREFETCH     ACCESS:   12636588 HIT:   12564562 MISS:      72026
cpu0_L1I WRITE        ACCESS:          0 HIT:          0 MISS:          0
cpu0_L1I TRANSLATION  ACCESS:          0 HIT:          0 MISS:          0
cpu0_L1I PREFETCH REQUESTED:   12848041 ISSUED:   12636596 USEFUL:      39599 USELESS:      28883
cpu0_L1I AVERAGE MISS LATENCY: 29.5 cycles
cpu0_L2C TOTAL        ACCESS:     519635 HIT:     321597 MISS:     198038
cpu0_L2C LOAD         ACCESS:      71595 HIT:      41497 MISS:      30098
cpu0_L2C RFO          ACCESS:      77677 HIT:       6791 MISS:      70886
cpu0_L2C PREFETCH     ACCESS:     279944 HIT:     184209 MISS:      95735
cpu0_L2C WRITE        ACCESS:      88756 HIT:      88756 MISS:          0
cpu0_L2C TRANSLATION  ACCESS:       1663 HIT:        344 MISS:       1319
cpu0_L2C PREFETCH REQUESTED:     179250 ISSUED:     172289 USEFUL:      14447 USELESS:      13604
cpu0_L2C AVERAGE MISS LATENCY: 65.98 cycles
cpu0_STLB TOTAL        ACCESS:      13618 HIT:      11124 MISS:       2494
cpu0_STLB LOAD         ACCESS:      13618 HIT:      11124 MISS:       2494
cpu0_STLB RFO          ACCESS:          0 HIT:          0 MISS:          0
cpu0_STLB PREFETCH     ACCESS:          0 HIT:          0 MISS:          0
cpu0_STLB WRITE        ACCESS:          0 HIT:          0 MISS:          0
cpu0_STLB TRANSLATION  ACCESS:          0 HIT:          0 MISS:          0
cpu0_STLB PREFETCH REQUESTED:          0 ISSUED:          0 USEFUL:          0 USELESS:          0
cpu0_STLB AVERAGE MISS LATENCY: 130.3 cycles

DRAM Statistics

Channel 0 RQ ROW_BUFFER_HIT:      13553
  ROW_BUFFER_MISS:      14364
 AVG DBUS CONGESTED CYCLE: 3.895
WQ ROW_BUFFER_HIT: Channel 0 
  ROW_BUFFER_MISS:       1215
  FULL:       7531

Channel 1 RQ ROW_BUFFER_HIT:      12881
  ROW_BUFFER_MISS:      14233
 AVG DBUS CONGESTED CYCLE: 3.887
WQ ROW_BUFFER_HIT: Channel 1 
  ROW_BUFFER_MISS:       1138
  FULL:       7090
BERTI TO_L1: 819481 TO_L2: 1684041 TO_L2_BC_MSHR: 992384
BERTI AVG_LAT: 59.5179 NUM_TRACK_LATENCY: 94585 NUM_CANT_TRACK_LATENCY: 0
BERTI CROSS_PAGE 508986 NO_CROSS_PAGE: 1994536
BERTI FOUND_BERTI: 502495 NO_FOUND_BERTI: 13090059
BERTI AVERAGE_ISSUED: 4.09913
CPU 0 L1I Entangling prefetcher final stats
IP accesses: 1f30 7cc00 247954 / 3215842
IP misses: f9ad 3e6b40 89 / 24261
IP hits: 0 0 0 / 0
IP late: 20a3 828c0 29 / 11730
IP wrong: f801 3e0040 71 / 28785
miss rate: 0.00754422
coverage: 0
coverage_late: 0.483493
accuracy: 0
accuracy_late: 0.289523
discarded: 0
evicts entangled j table: 0
evicts entangled k table: 3926
max bb size: 53
formats: 1000 0 3503 1693 710 1604 0 
hist_lookups: 3056 3398 2479 2243 1905 1605 1276 922 715 564 444 312 174 83 53 0 3 4168 
hist_lookups_evict: 0.0128206 %
hist_lookups_shortlat: 17.812 %
bb_found_hist: 0 868520 408605 133386 4275 63980 959 752 261 49 2 67 20 52 15 20 2 0 0 0 1 4 0 0 0 0 0 0 0 0 0 2 2 0 2 0 0 0 0 0 0 0 0 0 0 0 0 0 0 0 0 0 0 1 0 0 0 0 0 0 0 0 0 0 
bb_found_summary: 2439001 1480977 1.64689
entangled_found_hist: 0 499493 290373 992173 66610 1295 245 0 
entangled_found_summary: 4331143 1850189 2.34092
bb_ent_found_hist: 0 1305066 407578 377754 182492 128185 2618 209037 950 22 0 129 46 19 14 164 80 0 0 0 1 9 0 0 0 0 0 0 0 0 0 2 2 0 3 0 0 0 0 0 0 0 0 0 0 0 0 0 0 0 0 0 0 1 0 0 0 0 0 0 0 0 0 0 
bb_ent_found_summary: 6117786 2614172 2.34024
