WARNING: physical memory size is smaller than virtual memory size.

*** ChampSim Multicore Out-of-Order Simulator ***
Warmup Instructions: 30000000
Simulation Instructions: 100000000
Number of CPUs: 1
Page size: 4096

BTB:
Basic BTB sets: 1024 ways: 8
Indirect:
history lengths: 0 0 10 16 27 44 60 96 109 219 449 487 714 1313 2146 3881 
ITTAGE tables: 64768 bytes;Region table: 240 bytes;IUM: 384 bytes;Total Storage= 65392 bytes;
RAS:
RAS size: 64
[LLC] INSTR Demand IPV: 1 2 2 1 4 Prefetch IPV: 1 2 1 1 4
[LLC] DATA  Demand IPV: 1 1 1 2 4 Prefetch IPV: 1 1 2 2 4
Berti Prefetcher
CPU 0 Entangling prefetcher
Off-chip DRAM Size: 8 GiB Channels: 2 Width: 64-bit Data Race: 6400 MT/s
[DUEL] Epoch ended. INSTR misses = 41, DATA misses = 50. Winner = INSTR
[DUEL] Epoch ended. INSTR misses = 24, DATA misses = 16. Winner = DATA
[DUEL] Epoch ended. INSTR misses = 0, DATA misses = 0. Winner = INSTR
[DUEL] Epoch ended. INSTR misses = 0, DATA misses = 0. Winner = INSTR
[DUEL] Epoch ended. INSTR misses = 0, DATA misses = 0. Winner = INSTR
[DUEL] Epoch ended. INSTR misses = 0, DATA misses = 0. Winner = INSTR
[DUEL] Epoch ended. INSTR misses = 16, DATA misses = 16. Winner = INSTR
[DUEL] Epoch ended. INSTR misses = 0, DATA misses = 0. Winner = INSTR
[DUEL] Epoch ended. INSTR misses = 4, DATA misses = 0. Winner = DATA
[DUEL] Epoch ended. INSTR misses = 8, DATA misses = 4. Winner = DATA
[DUEL] Epoch ended. INSTR misses = 4, DATA misses = 5. Winner = INSTR
[DUEL] Epoch ended. INSTR misses = 0, DATA misses = 0. Winner = INSTR
[DUEL] Epoch ended. INSTR misses = 1, DATA misses = 0. Winner = DATA
Heartbeat CPU 0 instructions: 10000000 cycles: 1715442 heartbeat IPC: 5.829 cumulative IPC: 5.829 (Simulation time: 00 hr 00 min 22 sec)
[DUEL] Epoch ended. INSTR misses = 1, DATA misses = 9. Winner = INSTR
[DUEL] Epoch ended. INSTR misses = 16, DATA misses = 18. Winner = INSTR
[DUEL] Epoch ended. INSTR misses = 91, DATA misses = 94. Winner = INSTR
Heartbeat CPU 0 instructions: 20000004 cycles: 3431725 heartbeat IPC: 5.827 cumulative IPC: 5.828 (Simulation time: 00 hr 00 min 44 sec)
[DUEL] Epoch ended. INSTR misses = 32, DATA misses = 29. Winner = DATA
Heartbeat CPU 0 instructions: 30000004 cycles: 5098468 heartbeat IPC: 6 cumulative IPC: 5.884 (Simulation time: 00 hr 01 min 06 sec)
Warmup finished CPU 0 instructions: 30000004 cycles: 5098469 cumulative IPC: 5.884 (Simulation time: 00 hr 01 min 06 sec)
Warmup complete CPU 0 instructions: 30000004 cycles: 5098469 cumulative IPC: 5.884 (Simulation time: 00 hr 01 min 06 sec)
[DUEL] Epoch ended. INSTR misses = 0, DATA misses = 0. Winner = INSTR
Heartbeat CPU 0 instructions: 40000008 cycles: 6766268 heartbeat IPC: 5.996 cumulative IPC: 5.996 (Simulation time: 00 hr 01 min 31 sec)
Heartbeat CPU 0 instructions: 50000006 cycles: 8432931 heartbeat IPC: 6 cumulative IPC: 5.998 (Simulation time: 00 hr 01 min 55 sec)
[DUEL] Epoch ended. INSTR misses = 1, DATA misses = 0. Winner = DATA
[DUEL] Epoch ended. INSTR misses = 0, DATA misses = 0. Winner = INSTR
*** Reached end of trace: (0, "../traces/secret_traces/crypto/crypto78.champsimtrace.xz")
[DUEL] Epoch ended. INSTR misses = 16, DATA misses = 11. Winner = DATA
Heartbeat CPU 0 instructions: 60000003 cycles: 10381847 heartbeat IPC: 5.131 cumulative IPC: 5.678 (Simulation time: 00 hr 02 min 22 sec)
[DUEL] Epoch ended. INSTR misses = 3, DATA misses = 5. Winner = INSTR
[DUEL] Epoch ended. INSTR misses = 2, DATA misses = 0. Winner = DATA
[DUEL] Epoch ended. INSTR misses = 0, DATA misses = 0. Winner = INSTR
[DUEL] Epoch ended. INSTR misses = 0, DATA misses = 0. Winner = INSTR
[DUEL] Epoch ended. INSTR misses = 0, DATA misses = 0. Winner = INSTR
[DUEL] Epoch ended. INSTR misses = 0, DATA misses = 0. Winner = INSTR
[DUEL] Epoch ended. INSTR misses = 0, DATA misses = 0. Winner = INSTR
[DUEL] Epoch ended. INSTR misses = 0, DATA misses = 0. Winner = INSTR
[DUEL] Epoch ended. INSTR misses = 0, DATA misses = 2. Winner = INSTR
[DUEL] Epoch ended. INSTR misses = 1, DATA misses = 0. Winner = DATA
[DUEL] Epoch ended. INSTR misses = 1, DATA misses = 1. Winner = INSTR
[DUEL] Epoch ended. INSTR misses = 0, DATA misses = 0. Winner = INSTR
Heartbeat CPU 0 instructions: 70000007 cycles: 12516673 heartbeat IPC: 4.684 cumulative IPC: 5.392 (Simulation time: 00 hr 02 min 49 sec)
[DUEL] Epoch ended. INSTR misses = 1, DATA misses = 2. Winner = INSTR
[DUEL] Epoch ended. INSTR misses = 0, DATA misses = 2. Winner = INSTR
[DUEL] Epoch ended. INSTR misses = 49, DATA misses = 49. Winner = INSTR
Heartbeat CPU 0 instructions: 80000011 cycles: 14704141 heartbeat IPC: 4.571 cumulative IPC: 5.205 (Simulation time: 00 hr 03 min 17 sec)
[DUEL] Epoch ended. INSTR misses = 19, DATA misses = 13. Winner = DATA
Heartbeat CPU 0 instructions: 90000006 cycles: 16384954 heartbeat IPC: 5.949 cumulative IPC: 5.316 (Simulation time: 00 hr 03 min 42 sec)
[DUEL] Epoch ended. INSTR misses = 0, DATA misses = 0. Winner = INSTR
Heartbeat CPU 0 instructions: 100000005 cycles: 18052575 heartbeat IPC: 5.997 cumulative IPC: 5.404 (Simulation time: 00 hr 04 min 07 sec)
Heartbeat CPU 0 instructions: 110000009 cycles: 19719251 heartbeat IPC: 6 cumulative IPC: 5.472 (Simulation time: 00 hr 04 min 32 sec)
[DUEL] Epoch ended. INSTR misses = 0, DATA misses = 0. Winner = INSTR
[DUEL] Epoch ended. INSTR misses = 0, DATA misses = 0. Winner = INSTR
*** Reached end of trace: (0, "../traces/secret_traces/crypto/crypto78.champsimtrace.xz")
[DUEL] Epoch ended. INSTR misses = 6, DATA misses = 5. Winner = DATA
[DUEL] Epoch ended. INSTR misses = 2, DATA misses = 2. Winner = INSTR
Heartbeat CPU 0 instructions: 120000003 cycles: 21659048 heartbeat IPC: 5.155 cumulative IPC: 5.435 (Simulation time: 00 hr 04 min 58 sec)
[DUEL] Epoch ended. INSTR misses = 1, DATA misses = 0. Winner = DATA
[DUEL] Epoch ended. INSTR misses = 0, DATA misses = 0. Winner = INSTR
[DUEL] Epoch ended. INSTR misses = 0, DATA misses = 0. Winner = INSTR
[DUEL] Epoch ended. INSTR misses = 0, DATA misses = 0. Winner = INSTR
[DUEL] Epoch ended. INSTR misses = 0, DATA misses = 0. Winner = INSTR
[DUEL] Epoch ended. INSTR misses = 0, DATA misses = 0. Winner = INSTR
[DUEL] Epoch ended. INSTR misses = 0, DATA misses = 0. Winner = INSTR
[DUEL] Epoch ended. INSTR misses = 0, DATA misses = 2. Winner = INSTR
[DUEL] Epoch ended. INSTR misses = 5, DATA misses = 0. Winner = DATA
[DUEL] Epoch ended. INSTR misses = 1, DATA misses = 1. Winner = INSTR
[DUEL] Epoch ended. INSTR misses = 0, DATA misses = 0. Winner = INSTR
Heartbeat CPU 0 instructions: 130000002 cycles: 23641448 heartbeat IPC: 5.044 cumulative IPC: 5.393 (Simulation time: 00 hr 05 min 25 sec)
Simulation finished CPU 0 instructions: 100000003 cycles: 18542982 cumulative IPC: 5.393 (Simulation time: 00 hr 05 min 25 sec)
Simulation complete CPU 0 instructions: 100000003 cycles: 18542982 cumulative IPC: 5.393 (Simulation time: 00 hr 05 min 25 sec)

ChampSim completed all CPUs

=== Simulation ===
CPU 0 runs ../traces/secret_traces/crypto/crypto78.champsimtrace.xz
Region of Interest Statistics

CPU 0 cumulative IPC: 5.393 instructions: 100000003 cycles: 18542982
CPU 0 Branch Prediction Accuracy: 99.67% MPKI: 0.4673 Average ROB Occupancy at Mispredict: 31.75
Branch type MPKI
BRANCH_DIRECT_JUMP: 0.0233
BRANCH_INDIRECT: 0.229
BRANCH_CONDITIONAL: 0.0988
BRANCH_DIRECT_CALL: 0.069
BRANCH_INDIRECT_CALL: 0.00944
BRANCH_RETURN: 0.0375

LLC TOTAL        ACCESS:     157188 HIT:     110755 MISS:      46433
LLC LOAD         ACCESS:      15855 HIT:       7821 MISS:       8034
LLC RFO          ACCESS:      46273 HIT:      36653 MISS:       9620
LLC PREFETCH     ACCESS:      40432 HIT:      20573 MISS:      19859
LLC WRITE        ACCESS:      53578 HIT:      45506 MISS:       8072
LLC TRANSLATION  ACCESS:       1050 HIT:        202 MISS:        848
LLC PREFETCH REQUESTED:          0 ISSUED:          0 USEFUL:          0 USELESS:          0
LLC AVERAGE MISS LATENCY: 157.5 cycles
cpu0_DTLB TOTAL        ACCESS:   13493579 HIT:   13477905 MISS:      15674
cpu0_DTLB LOAD         ACCESS:   13493579 HIT:   13477905 MISS:      15674
cpu0_DTLB RFO          ACCESS:          0 HIT:          0 MISS:          0
cpu0_DTLB PREFETCH     ACCESS:          0 HIT:          0 MISS:          0
cpu0_DTLB WRITE        ACCESS:          0 HIT:          0 MISS:          0
cpu0_DTLB TRANSLATION  ACCESS:          0 HIT:          0 MISS:          0
cpu0_DTLB PREFETCH REQUESTED:          0 ISSUED:          0 USEFUL:          0 USELESS:          0
cpu0_DTLB AVERAGE MISS LATENCY: 12.75 cycles
cpu0_ITLB TOTAL        ACCESS:     303157 HIT:     296631 MISS:       6526
cpu0_ITLB LOAD         ACCESS:     303157 HIT:     296631 MISS:       6526
cpu0_ITLB RFO          ACCESS:          0 HIT:          0 MISS:          0
cpu0_ITLB PREFETCH     ACCESS:          0 HIT:          0 MISS:          0
cpu0_ITLB WRITE        ACCESS:          0 HIT:          0 MISS:          0
cpu0_ITLB TRANSLATION  ACCESS:          0 HIT:          0 MISS:          0
cpu0_ITLB PREFETCH REQUESTED:          0 ISSUED:          0 USEFUL:          0 USELESS:          0
cpu0_ITLB AVERAGE MISS LATENCY: 20.25 cycles
cpu0_L1D TOTAL        ACCESS:   21547650 HIT:   21328672 MISS:     218978
cpu0_L1D LOAD         ACCESS:   13796925 HIT:   13737604 MISS:      59321
cpu0_L1D RFO          ACCESS:          0 HIT:          0 MISS:          0
cpu0_L1D PREFETCH     ACCESS:     262139 HIT:     219956 MISS:      42183
cpu0_L1D WRITE        ACCESS:    7486359 HIT:    7370323 MISS:     116036
cpu0_L1D TRANSLATION  ACCESS:       2227 HIT:        789 MISS:       1438
cpu0_L1D PREFETCH REQUESTED:    1350659 ISSUED:     262139 USEFUL:       4319 USELESS:        475
cpu0_L1D AVERAGE MISS LATENCY: 27.69 cycles
cpu0_L1I TOTAL        ACCESS:     441119 HIT:     367245 MISS:      73874
cpu0_L1I LOAD         ACCESS:     145196 HIT:     126621 MISS:      18575
cpu0_L1I RFO          ACCESS:          0 HIT:          0 MISS:          0
cpu0_L1I PREFETCH     ACCESS:     295923 HIT:     240624 MISS:      55299
cpu0_L1I WRITE        ACCESS:          0 HIT:          0 MISS:          0
cpu0_L1I TRANSLATION  ACCESS:          0 HIT:          0 MISS:          0
cpu0_L1I PREFETCH REQUESTED:     441678 ISSUED:     295923 USEFUL:      29494 USELESS:      22883
cpu0_L1I AVERAGE MISS LATENCY: 29.62 cycles
cpu0_L2C TOTAL        ACCESS:     380910 HIT:     245055 MISS:     135855
cpu0_L2C LOAD         ACCESS:      51103 HIT:      31565 MISS:      19538
cpu0_L2C RFO          ACCESS:      50294 HIT:       4006 MISS:      46288
cpu0_L2C PREFETCH     ACCESS:     219559 HIT:     150580 MISS:      68979
cpu0_L2C WRITE        ACCESS:      58576 HIT:      58576 MISS:          0
cpu0_L2C TRANSLATION  ACCESS:       1378 HIT:        328 MISS:       1050
cpu0_L2C PREFETCH REQUESTED:     138305 ISSUED:     132364 USEFUL:      10055 USELESS:       9331
cpu0_L2C AVERAGE MISS LATENCY: 66.68 cycles
cpu0_STLB TOTAL        ACCESS:      10439 HIT:       8387 MISS:       2052
cpu0_STLB LOAD         ACCESS:      10439 HIT:       8387 MISS:       2052
cpu0_STLB RFO          ACCESS:          0 HIT:          0 MISS:          0
cpu0_STLB PREFETCH     ACCESS:          0 HIT:          0 MISS:          0
cpu0_STLB WRITE        ACCESS:          0 HIT:          0 MISS:          0
cpu0_STLB TRANSLATION  ACCESS:          0 HIT:          0 MISS:          0
cpu0_STLB PREFETCH REQUESTED:          0 ISSUED:          0 USEFUL:          0 USELESS:          0
cpu0_STLB AVERAGE MISS LATENCY: 138.5 cycles

DRAM Statistics

Channel 0 RQ ROW_BUFFER_HIT:       8810
  ROW_BUFFER_MISS:      10668
 AVG DBUS CONGESTED CYCLE: 3.884
WQ ROW_BUFFER_HIT: Channel 0 
  ROW_BUFFER_MISS:        844
  FULL:       5521

Channel 1 RQ ROW_BUFFER_HIT:       8478
  ROW_BUFFER_MISS:      10396
 AVG DBUS CONGESTED CYCLE: 3.87
WQ ROW_BUFFER_HIT: Channel 1 
  ROW_BUFFER_MISS:        856
  FULL:       5125
BERTI TO_L1: 829688 TO_L2: 1042385 TO_L2_BC_MSHR: 508311
BERTI AVG_LAT: 55.2582 NUM_TRACK_LATENCY: 74842 NUM_CANT_TRACK_LATENCY: 0
BERTI CROSS_PAGE 368774 NO_CROSS_PAGE: 1503299
BERTI FOUND_BERTI: 425483 NO_FOUND_BERTI: 18202395
BERTI AVERAGE_ISSUED: 4.25849
CPU 0 L1I Entangling prefetcher final stats
IP accesses: 6f71 1bdc40 1127 / 145452
IP misses: 25bf 96fc0 94 / 18831
IP hits: 0 0 0 / 0
IP late: 6e9e 1ba780 48 / 9108
IP wrong: 295e a5780 114 / 22667
miss rate: 0.129466
coverage: 0
coverage_late: 0.483671
accuracy: 0
accuracy_late: 0.286641
discarded: 0
evicts entangled j table: 0
evicts entangled k table: 2910
max bb size: 53
formats: 707 0 2683 1350 600 1369 0 
hist_lookups: 2642 2662 1818 1616 1465 1246 896 645 486 413 364 209 135 90 34 0 3 3620 
hist_lookups_evict: 0.0163542 %
hist_lookups_shortlat: 19.734 %
bb_found_hist: 0 36598 13792 7836 3436 1726 820 510 189 57 0 54 33 20 12 15 2 0 0 0 1 4 0 0 0 0 0 0 0 0 0 2 2 0 2 0 0 0 0 0 0 0 0 0 0 0 0 0 0 0 0 0 0 1 0 0 0 0 0 0 0 0 0 0 
bb_found_summary: 122605 65112 1.88299
entangled_found_hist: 0 18574 14105 25437 4482 934 310 0 
entangled_found_summary: 147553 63842 2.31123
bb_ent_found_hist: 0 50749 20593 14806 6052 3299 1403 672 660 34 0 111 42 15 26 62 133 0 0 0 1 7 0 0 0 0 0 0 0 0 0 2 2 0 3 0 0 0 0 0 0 0 0 0 0 0 0 0 0 0 0 0 0 2 0 0 0 0 0 0 0 0 0 0 
bb_ent_found_summary: 201607 98674 2.04317
