WARNING: physical memory size is smaller than virtual memory size.

*** ChampSim Multicore Out-of-Order Simulator ***
Warmup Instructions: 30000000
Simulation Instructions: 100000000
Number of CPUs: 1
Page size: 4096

BTB:
Basic BTB sets: 1024 ways: 8
Indirect:
history lengths: 0 0 10 16 27 44 60 96 109 219 449 487 714 1313 2146 3881 
ITTAGE tables: 64768 bytes;Region table: 240 bytes;IUM: 384 bytes;Total Storage= 65392 bytes;
RAS:
RAS size: 64
[LLC] INSTR Demand IPV: 1 2 2 1 4 Prefetch IPV: 1 2 1 1 4
[LLC] DATA  Demand IPV: 1 1 1 2 4 Prefetch IPV: 1 1 2 2 4
Berti Prefetcher
CPU 0 Entangling prefetcher
Off-chip DRAM Size: 8 GiB Channels: 2 Width: 64-bit Data Race: 6400 MT/s
[DUEL] Epoch ended. INSTR misses = 53, DATA misses = 45. Winner = DATA
[DUEL] Epoch ended. INSTR misses = 16, DATA misses = 16. Winner = INSTR
[DUEL] Epoch ended. INSTR misses = 1, DATA misses = 0. Winner = DATA
[DUEL] Epoch ended. INSTR misses = 0, DATA misses = 0. Winner = INSTR
[DUEL] Epoch ended. INSTR misses = 0, DATA misses = 0. Winner = INSTR
[DUEL] Epoch ended. INSTR misses = 0, DATA misses = 0. Winner = INSTR
[DUEL] Epoch ended. INSTR misses = 0, DATA misses = 0. Winner = INSTR
[DUEL] Epoch ended. INSTR misses = 0, DATA misses = 0. Winner = INSTR
[DUEL] Epoch ended. INSTR misses = 0, DATA misses = 0. Winner = INSTR
[DUEL] Epoch ended. INSTR misses = 5, DATA misses = 10. Winner = INSTR
[DUEL] Epoch ended. INSTR misses = 0, DATA misses = 0. Winner = INSTR
[DUEL] Epoch ended. INSTR misses = 8, DATA misses = 1. Winner = DATA
[DUEL] Epoch ended. INSTR misses = 16, DATA misses = 18. Winner = INSTR
Heartbeat CPU 0 instructions: 10000005 cycles: 1715439 heartbeat IPC: 5.829 cumulative IPC: 5.829 (Simulation time: 00 hr 00 min 21 sec)
[DUEL] Epoch ended. INSTR misses = 2, DATA misses = 10. Winner = INSTR
[DUEL] Epoch ended. INSTR misses = 26, DATA misses = 32. Winner = INSTR
[DUEL] Epoch ended. INSTR misses = 101, DATA misses = 105. Winner = INSTR
[DUEL] Epoch ended. INSTR misses = 32, DATA misses = 26. Winner = DATA
Heartbeat CPU 0 instructions: 20000004 cycles: 3431874 heartbeat IPC: 5.826 cumulative IPC: 5.828 (Simulation time: 00 hr 00 min 42 sec)
[DUEL] Epoch ended. INSTR misses = 0, DATA misses = 0. Winner = INSTR
*** Reached end of trace: (0, "../traces/secret_traces/crypto/crypto97.champsimtrace.xz")
[DUEL] Epoch ended. INSTR misses = 5, DATA misses = 11. Winner = INSTR
[DUEL] Epoch ended. INSTR misses = 25, DATA misses = 18. Winner = DATA
[DUEL] Epoch ended. INSTR misses = 1, DATA misses = 2. Winner = INSTR
[DUEL] Epoch ended. INSTR misses = 0, DATA misses = 0. Winner = INSTR
[DUEL] Epoch ended. INSTR misses = 0, DATA misses = 0. Winner = INSTR
[DUEL] Epoch ended. INSTR misses = 0, DATA misses = 0. Winner = INSTR
[DUEL] Epoch ended. INSTR misses = 0, DATA misses = 0. Winner = INSTR
[DUEL] Epoch ended. INSTR misses = 2, DATA misses = 1. Winner = DATA
[DUEL] Epoch ended. INSTR misses = 0, DATA misses = 0. Winner = INSTR
[DUEL] Epoch ended. INSTR misses = 5, DATA misses = 5. Winner = INSTR
[DUEL] Epoch ended. INSTR misses = 0, DATA misses = 0. Winner = INSTR
[DUEL] Epoch ended. INSTR misses = 4, DATA misses = 0. Winner = DATA
[DUEL] Epoch ended. INSTR misses = 3, DATA misses = 2. Winner = DATA
Heartbeat CPU 0 instructions: 30000002 cycles: 5151716 heartbeat IPC: 5.814 cumulative IPC: 5.823 (Simulation time: 00 hr 01 min 04 sec)
Warmup finished CPU 0 instructions: 30000002 cycles: 5151717 cumulative IPC: 5.823 (Simulation time: 00 hr 01 min 04 sec)
Warmup complete CPU 0 instructions: 30000002 cycles: 5151717 cumulative IPC: 5.823 (Simulation time: 00 hr 01 min 04 sec)
[DUEL] Epoch ended. INSTR misses = 1, DATA misses = 9. Winner = INSTR
[DUEL] Epoch ended. INSTR misses = 10, DATA misses = 8. Winner = DATA
[DUEL] Epoch ended. INSTR misses = 50, DATA misses = 47. Winner = DATA
[DUEL] Epoch ended. INSTR misses = 15, DATA misses = 11. Winner = DATA
Heartbeat CPU 0 instructions: 40000000 cycles: 11491022 heartbeat IPC: 1.577 cumulative IPC: 1.577 (Simulation time: 00 hr 02 min 04 sec)
[DUEL] Epoch ended. INSTR misses = 0, DATA misses = 0. Winner = INSTR
*** Reached end of trace: (0, "../traces/secret_traces/crypto/crypto97.champsimtrace.xz")
[DUEL] Epoch ended. INSTR misses = 11, DATA misses = 16. Winner = INSTR
[DUEL] Epoch ended. INSTR misses = 16, DATA misses = 12. Winner = DATA
[DUEL] Epoch ended. INSTR misses = 0, DATA misses = 2. Winner = INSTR
[DUEL] Epoch ended. INSTR misses = 0, DATA misses = 0. Winner = INSTR
[DUEL] Epoch ended. INSTR misses = 0, DATA misses = 0. Winner = INSTR
[DUEL] Epoch ended. INSTR misses = 0, DATA misses = 0. Winner = INSTR
[DUEL] Epoch ended. INSTR misses = 0, DATA misses = 0. Winner = INSTR
[DUEL] Epoch ended. INSTR misses = 0, DATA misses = 0. Winner = INSTR
[DUEL] Epoch ended. INSTR misses = 0, DATA misses = 0. Winner = INSTR
[DUEL] Epoch ended. INSTR misses = 2, DATA misses = 4. Winner = INSTR
[DUEL] Epoch ended. INSTR misses = 1, DATA misses = 0. Winner = DATA
[DUEL] Epoch ended. INSTR misses = 3, DATA misses = 0. Winner = DATA
[DUEL] Epoch ended. INSTR misses = 3, DATA misses = 2. Winner = DATA
Heartbeat CPU 0 instructions: 50000002 cycles: 16682424 heartbeat IPC: 1.926 cumulative IPC: 1.734 (Simulation time: 00 hr 02 min 55 sec)
Heartbeat CPU 0 instructions: 60000001 cycles: 22737322 heartbeat IPC: 1.652 cumulative IPC: 1.706 (Simulation time: 00 hr 03 min 53 sec)
[DUEL] Epoch ended. INSTR misses = 4, DATA misses = 10. Winner = INSTR
[DUEL] Epoch ended. INSTR misses = 10, DATA misses = 6. Winner = DATA
[DUEL] Epoch ended. INSTR misses = 42, DATA misses = 42. Winner = INSTR
[DUEL] Epoch ended. INSTR misses = 9, DATA misses = 8. Winner = DATA
[DUEL] Epoch ended. INSTR misses = 0, DATA misses = 0. Winner = INSTR
*** Reached end of trace: (0, "../traces/secret_traces/crypto/crypto97.champsimtrace.xz")
[DUEL] Epoch ended. INSTR misses = 6, DATA misses = 19. Winner = INSTR
[DUEL] Epoch ended. INSTR misses = 18, DATA misses = 11. Winner = DATA
[DUEL] Epoch ended. INSTR misses = 0, DATA misses = 0. Winner = INSTR
[DUEL] Epoch ended. INSTR misses = 0, DATA misses = 0. Winner = INSTR
[DUEL] Epoch ended. INSTR misses = 0, DATA misses = 0. Winner = INSTR
[DUEL] Epoch ended. INSTR misses = 0, DATA misses = 0. Winner = INSTR
[DUEL] Epoch ended. INSTR misses = 0, DATA misses = 0. Winner = INSTR
[DUEL] Epoch ended. INSTR misses = 0, DATA misses = 0. Winner = INSTR
[DUEL] Epoch ended. INSTR misses = 0, DATA misses = 0. Winner = INSTR
[DUEL] Epoch ended. INSTR misses = 1, DATA misses = 3. Winner = INSTR
[DUEL] Epoch ended. INSTR misses = 1, DATA misses = 0. Winner = DATA
[DUEL] Epoch ended. INSTR misses = 3, DATA misses = 0. Winner = DATA
Heartbeat CPU 0 instructions: 70000002 cycles: 27987528 heartbeat IPC: 1.905 cumulative IPC: 1.752 (Simulation time: 00 hr 04 min 44 sec)
[DUEL] Epoch ended. INSTR misses = 2, DATA misses = 2. Winner = INSTR
Heartbeat CPU 0 instructions: 80000000 cycles: 34057810 heartbeat IPC: 1.647 cumulative IPC: 1.73 (Simulation time: 00 hr 05 min 43 sec)
[DUEL] Epoch ended. INSTR misses = 0, DATA misses = 7. Winner = INSTR
[DUEL] Epoch ended. INSTR misses = 4, DATA misses = 6. Winner = INSTR
[DUEL] Epoch ended. INSTR misses = 36, DATA misses = 42. Winner = INSTR
[DUEL] Epoch ended. INSTR misses = 9, DATA misses = 8. Winner = DATA
[DUEL] Epoch ended. INSTR misses = 0, DATA misses = 0. Winner = INSTR
*** Reached end of trace: (0, "../traces/secret_traces/crypto/crypto97.champsimtrace.xz")
[DUEL] Epoch ended. INSTR misses = 6, DATA misses = 10. Winner = INSTR
[DUEL] Epoch ended. INSTR misses = 17, DATA misses = 11. Winner = DATA
[DUEL] Epoch ended. INSTR misses = 0, DATA misses = 2. Winner = INSTR
[DUEL] Epoch ended. INSTR misses = 0, DATA misses = 0. Winner = INSTR
[DUEL] Epoch ended. INSTR misses = 0, DATA misses = 0. Winner = INSTR
[DUEL] Epoch ended. INSTR misses = 0, DATA misses = 0. Winner = INSTR
[DUEL] Epoch ended. INSTR misses = 0, DATA misses = 0. Winner = INSTR
[DUEL] Epoch ended. INSTR misses = 0, DATA misses = 0. Winner = INSTR
[DUEL] Epoch ended. INSTR misses = 0, DATA misses = 0. Winner = INSTR
[DUEL] Epoch ended. INSTR misses = 1, DATA misses = 2. Winner = INSTR
Heartbeat CPU 0 instructions: 90000008 cycles: 39416648 heartbeat IPC: 1.866 cumulative IPC: 1.751 (Simulation time: 00 hr 06 min 35 sec)
[DUEL] Epoch ended. INSTR misses = 1, DATA misses = 0. Winner = DATA
[DUEL] Epoch ended. INSTR misses = 4, DATA misses = 0. Winner = DATA
[DUEL] Epoch ended. INSTR misses = 2, DATA misses = 3. Winner = INSTR
Heartbeat CPU 0 instructions: 100000000 cycles: 45286364 heartbeat IPC: 1.704 cumulative IPC: 1.744 (Simulation time: 00 hr 07 min 32 sec)
[DUEL] Epoch ended. INSTR misses = 0, DATA misses = 7. Winner = INSTR
[DUEL] Epoch ended. INSTR misses = 4, DATA misses = 5. Winner = INSTR
[DUEL] Epoch ended. INSTR misses = 36, DATA misses = 42. Winner = INSTR
[DUEL] Epoch ended. INSTR misses = 8, DATA misses = 6. Winner = DATA
[DUEL] Epoch ended. INSTR misses = 0, DATA misses = 0. Winner = INSTR
*** Reached end of trace: (0, "../traces/secret_traces/crypto/crypto97.champsimtrace.xz")
[DUEL] Epoch ended. INSTR misses = 6, DATA misses = 11. Winner = INSTR
[DUEL] Epoch ended. INSTR misses = 15, DATA misses = 12. Winner = DATA
Heartbeat CPU 0 instructions: 110000001 cycles: 51340146 heartbeat IPC: 1.652 cumulative IPC: 1.732 (Simulation time: 00 hr 08 min 29 sec)
[DUEL] Epoch ended. INSTR misses = 0, DATA misses = 1. Winner = INSTR
[DUEL] Epoch ended. INSTR misses = 0, DATA misses = 0. Winner = INSTR
[DUEL] Epoch ended. INSTR misses = 0, DATA misses = 0. Winner = INSTR
[DUEL] Epoch ended. INSTR misses = 0, DATA misses = 0. Winner = INSTR
[DUEL] Epoch ended. INSTR misses = 0, DATA misses = 0. Winner = INSTR
[DUEL] Epoch ended. INSTR misses = 0, DATA misses = 0. Winner = INSTR
[DUEL] Epoch ended. INSTR misses = 0, DATA misses = 0. Winner = INSTR
[DUEL] Epoch ended. INSTR misses = 1, DATA misses = 6. Winner = INSTR
[DUEL] Epoch ended. INSTR misses = 1, DATA misses = 0. Winner = DATA
[DUEL] Epoch ended. INSTR misses = 6, DATA misses = 0. Winner = DATA
[DUEL] Epoch ended. INSTR misses = 2, DATA misses = 3. Winner = INSTR
Heartbeat CPU 0 instructions: 120000000 cycles: 56481942 heartbeat IPC: 1.945 cumulative IPC: 1.753 (Simulation time: 00 hr 09 min 20 sec)
[DUEL] Epoch ended. INSTR misses = 0, DATA misses = 7. Winner = INSTR
[DUEL] Epoch ended. INSTR misses = 4, DATA misses = 4. Winner = INSTR
[DUEL] Epoch ended. INSTR misses = 38, DATA misses = 41. Winner = INSTR
[DUEL] Epoch ended. INSTR misses = 9, DATA misses = 5. Winner = DATA
Heartbeat CPU 0 instructions: 130000001 cycles: 62595481 heartbeat IPC: 1.636 cumulative IPC: 1.741 (Simulation time: 00 hr 10 min 18 sec)
Simulation finished CPU 0 instructions: 100000000 cycles: 57443766 cumulative IPC: 1.741 (Simulation time: 00 hr 10 min 18 sec)
Simulation complete CPU 0 instructions: 100000000 cycles: 57443766 cumulative IPC: 1.741 (Simulation time: 00 hr 10 min 18 sec)

ChampSim completed all CPUs

=== Simulation ===
CPU 0 runs ../traces/secret_traces/crypto/crypto97.champsimtrace.xz
Region of Interest Statistics

CPU 0 cumulative IPC: 1.741 instructions: 100000000 cycles: 57443766
CPU 0 Branch Prediction Accuracy: 98.49% MPKI: 1.05 Average ROB Occupancy at Mispredict: 33.65
Branch type MPKI
BRANCH_DIRECT_JUMP: 0.0635
BRANCH_INDIRECT: 0.555
BRANCH_CONDITIONAL: 0.126
BRANCH_DIRECT_CALL: 0.184
BRANCH_INDIRECT_CALL: 0.0223
BRANCH_RETURN: 0.1

LLC TOTAL        ACCESS:     533242 HIT:     394747 MISS:     138495
LLC LOAD         ACCESS:      50643 HIT:      27001 MISS:      23642
LLC RFO          ACCESS:     164807 HIT:     137218 MISS:      27589
LLC PREFETCH     ACCESS:     133185 HIT:      67667 MISS:      65518
LLC WRITE        ACCESS:     181598 HIT:     162129 MISS:      19469
LLC TRANSLATION  ACCESS:       3009 HIT:        732 MISS:       2277
LLC PREFETCH REQUESTED:          0 ISSUED:          0 USEFUL:          0 USELESS:          0
LLC AVERAGE MISS LATENCY: 163.6 cycles
cpu0_DTLB TOTAL        ACCESS:   24790559 HIT:   24739268 MISS:      51291
cpu0_DTLB LOAD         ACCESS:   24790559 HIT:   24739268 MISS:      51291
cpu0_DTLB RFO          ACCESS:          0 HIT:          0 MISS:          0
cpu0_DTLB PREFETCH     ACCESS:          0 HIT:          0 MISS:          0
cpu0_DTLB WRITE        ACCESS:          0 HIT:          0 MISS:          0
cpu0_DTLB TRANSLATION  ACCESS:          0 HIT:          0 MISS:          0
cpu0_DTLB PREFETCH REQUESTED:          0 ISSUED:          0 USEFUL:          0 USELESS:          0
cpu0_DTLB AVERAGE MISS LATENCY: 9.047 cycles
cpu0_ITLB TOTAL        ACCESS:     842202 HIT:     825658 MISS:      16544
cpu0_ITLB LOAD         ACCESS:     842202 HIT:     825658 MISS:      16544
cpu0_ITLB RFO          ACCESS:          0 HIT:          0 MISS:          0
cpu0_ITLB PREFETCH     ACCESS:          0 HIT:          0 MISS:          0
cpu0_ITLB WRITE        ACCESS:          0 HIT:          0 MISS:          0
cpu0_ITLB TRANSLATION  ACCESS:          0 HIT:          0 MISS:          0
cpu0_ITLB PREFETCH REQUESTED:          0 ISSUED:          0 USEFUL:          0 USELESS:          0
cpu0_ITLB AVERAGE MISS LATENCY: 19.81 cycles
cpu0_L1D TOTAL        ACCESS:   44166714 HIT:   43360850 MISS:     805864
cpu0_L1D LOAD         ACCESS:   13603827 HIT:   13407502 MISS:     196325
cpu0_L1D RFO          ACCESS:          0 HIT:          0 MISS:          0
cpu0_L1D PREFETCH     ACCESS:   26583786 HIT:   26423579 MISS:     160207
cpu0_L1D WRITE        ACCESS:    3972974 HIT:    3527526 MISS:     445448
cpu0_L1D TRANSLATION  ACCESS:       6127 HIT:       2243 MISS:       3884
cpu0_L1D PREFETCH REQUESTED:   30073786 ISSUED:   26583787 USEFUL:      19188 USELESS:       1685
cpu0_L1D AVERAGE MISS LATENCY: 24.65 cycles
cpu0_L1I TOTAL        ACCESS:    1226814 HIT:    1027004 MISS:     199810
cpu0_L1I LOAD         ACCESS:     403439 HIT:     358752 MISS:      44687
cpu0_L1I RFO          ACCESS:          0 HIT:          0 MISS:          0
cpu0_L1I PREFETCH     ACCESS:     823375 HIT:     668252 MISS:     155123
cpu0_L1I WRITE        ACCESS:          0 HIT:          0 MISS:          0
cpu0_L1I TRANSLATION  ACCESS:          0 HIT:          0 MISS:          0
cpu0_L1I PREFETCH REQUESTED:    1336852 ISSUED:     823375 USEFUL:      88367 USELESS:      60462
cpu0_L1I AVERAGE MISS LATENCY: 33.36 cycles
cpu0_L2C TOTAL        ACCESS:    1242332 HIT:     786309 MISS:     456023
cpu0_L2C LOAD         ACCESS:     152698 HIT:      88993 MISS:      63705
cpu0_L2C RFO          ACCESS:     182159 HIT:      17278 MISS:     164881
cpu0_L2C PREFETCH     ACCESS:     695350 HIT:     470922 MISS:     224428
cpu0_L2C WRITE        ACCESS:     208318 HIT:     208318 MISS:          0
cpu0_L2C TRANSLATION  ACCESS:       3807 HIT:        798 MISS:       3009
cpu0_L2C PREFETCH REQUESTED:     434226 ISSUED:     413822 USEFUL:      34817 USELESS:      30980
cpu0_L2C AVERAGE MISS LATENCY: 62.64 cycles
cpu0_STLB TOTAL        ACCESS:      29433 HIT:      23849 MISS:       5584
cpu0_STLB LOAD         ACCESS:      29433 HIT:      23849 MISS:       5584
cpu0_STLB RFO          ACCESS:          0 HIT:          0 MISS:          0
cpu0_STLB PREFETCH     ACCESS:          0 HIT:          0 MISS:          0
cpu0_STLB WRITE        ACCESS:          0 HIT:          0 MISS:          0
cpu0_STLB TRANSLATION  ACCESS:          0 HIT:          0 MISS:          0
cpu0_STLB PREFETCH REQUESTED:          0 ISSUED:          0 USEFUL:          0 USELESS:          0
cpu0_STLB AVERAGE MISS LATENCY: 120.6 cycles

DRAM Statistics

Channel 0 RQ ROW_BUFFER_HIT:      28383
  ROW_BUFFER_MISS:      32472
 AVG DBUS CONGESTED CYCLE: 3.889
WQ ROW_BUFFER_HIT: Channel 0 
  ROW_BUFFER_MISS:       2134
  FULL:      14376

Channel 1 RQ ROW_BUFFER_HIT:      27054
  ROW_BUFFER_MISS:      31097
 AVG DBUS CONGESTED CYCLE: 3.858
WQ ROW_BUFFER_HIT: Channel 1 
  ROW_BUFFER_MISS:       2161
  FULL:      13093
BERTI TO_L1: 31705128 TO_L2: 6323320 TO_L2_BC_MSHR: 1862797
BERTI AVG_LAT: 66.8808 NUM_TRACK_LATENCY: 189345 NUM_CANT_TRACK_LATENCY: 0
BERTI CROSS_PAGE 5161449 NO_CROSS_PAGE: 32866999
BERTI FOUND_BERTI: 3337181 NO_FOUND_BERTI: 14396592
BERTI AVERAGE_ISSUED: 13.1027
CPU 0 L1I Entangling prefetcher final stats
IP accesses: 6f71 1bdc40 1858 / 404919
IP misses: 5d9d 176740 191 / 46167
IP hits: 0 0 0 / 0
IP late: 3ffa ffe80 56 / 22199
IP wrong: f801 3e0040 151 / 60199
miss rate: 0.114016
coverage: 0
coverage_late: 0.480842
accuracy: 0
accuracy_late: 0.269412
discarded: 0
evicts entangled j table: 0
evicts entangled k table: 7620
max bb size: 53
formats: 1922 0 6162 2991 1175 2200 0 
hist_lookups: 4721 5458 4482 4269 3741 3056 2307 1810 1429 1162 925 525 350 227 117 0 12 7903 
hist_lookups_evict: 0.0282393 %
hist_lookups_shortlat: 18.598 %
bb_found_hist: 0 104618 44568 20844 10397 4568 2686 1954 593 111 8 125 44 130 31 0 4 0 0 0 0 8 0 0 0 0 0 0 0 0 0 4 4 0 4 0 0 0 0 0 0 0 0 0 0 0 0 0 0 0 0 0 0 4 0 0 0 0 0 0 0 0 0 0 
bb_found_summary: 361190 190705 1.89398
entangled_found_hist: 0 54820 40627 76421 14834 2158 683 0 
entangled_found_summary: 439561 189543 2.31906
bb_ent_found_hist: 0 150842 66784 44101 19338 11858 4523 2692 1958 104 0 276 144 55 19 0 4 0 0 0 0 41 0 0 0 0 0 0 0 0 0 8 4 0 8 0 0 0 0 0 0 0 0 0 0 0 0 0 0 0 0 0 0 4 0 0 0 0 0 0 0 0 0 0 
bb_ent_found_summary: 623467 302763 2.05926
