WARNING: physical memory size is smaller than virtual memory size.

*** ChampSim Multicore Out-of-Order Simulator ***
Warmup Instructions: 30000000
Simulation Instructions: 100000000
Number of CPUs: 1
Page size: 4096

BTB:
Basic BTB sets: 1024 ways: 8
Indirect:
history lengths: 0 0 10 16 27 44 60 96 109 219 449 487 714 1313 2146 3881 
ITTAGE tables: 64768 bytes;Region table: 240 bytes;IUM: 384 bytes;Total Storage= 65392 bytes;
RAS:
RAS size: 64
[LLC] INSTR Demand IPV: 1 2 2 1 4 Prefetch IPV: 1 2 1 1 4
[LLC] DATA  Demand IPV: 1 1 1 2 4 Prefetch IPV: 1 1 2 2 4
Berti Prefetcher
CPU 0 Entangling prefetcher
Off-chip DRAM Size: 8 GiB Channels: 2 Width: 64-bit Data Race: 6400 MT/s
[DUEL] Epoch ended. INSTR misses = 53, DATA misses = 60. Winner = INSTR
[DUEL] Epoch ended. INSTR misses = 20, DATA misses = 21. Winner = INSTR
[DUEL] Epoch ended. INSTR misses = 0, DATA misses = 0. Winner = INSTR
[DUEL] Epoch ended. INSTR misses = 0, DATA misses = 0. Winner = INSTR
[DUEL] Epoch ended. INSTR misses = 0, DATA misses = 0. Winner = INSTR
[DUEL] Epoch ended. INSTR misses = 0, DATA misses = 0. Winner = INSTR
[DUEL] Epoch ended. INSTR misses = 16, DATA misses = 16. Winner = INSTR
[DUEL] Epoch ended. INSTR misses = 0, DATA misses = 0. Winner = INSTR
[DUEL] Epoch ended. INSTR misses = 0, DATA misses = 3. Winner = INSTR
[DUEL] Epoch ended. INSTR misses = 9, DATA misses = 4. Winner = DATA
[DUEL] Epoch ended. INSTR misses = 2, DATA misses = 0. Winner = DATA
[DUEL] Epoch ended. INSTR misses = 3, DATA misses = 0. Winner = DATA
[DUEL] Epoch ended. INSTR misses = 12, DATA misses = 1. Winner = DATA
Heartbeat CPU 0 instructions: 10000002 cycles: 1715571 heartbeat IPC: 5.829 cumulative IPC: 5.829 (Simulation time: 00 hr 00 min 20 sec)
[DUEL] Epoch ended. INSTR misses = 0, DATA misses = 9. Winner = INSTR
[DUEL] Epoch ended. INSTR misses = 24, DATA misses = 21. Winner = DATA
[DUEL] Epoch ended. INSTR misses = 99, DATA misses = 100. Winner = INSTR
Heartbeat CPU 0 instructions: 20000001 cycles: 3431929 heartbeat IPC: 5.826 cumulative IPC: 5.828 (Simulation time: 00 hr 00 min 41 sec)
[DUEL] Epoch ended. INSTR misses = 34, DATA misses = 30. Winner = DATA
Heartbeat CPU 0 instructions: 30000001 cycles: 5098715 heartbeat IPC: 6 cumulative IPC: 5.884 (Simulation time: 00 hr 01 min 00 sec)
Warmup finished CPU 0 instructions: 30000001 cycles: 5098716 cumulative IPC: 5.884 (Simulation time: 00 hr 01 min 00 sec)
Warmup complete CPU 0 instructions: 30000001 cycles: 5098716 cumulative IPC: 5.884 (Simulation time: 00 hr 01 min 00 sec)
[DUEL] Epoch ended. INSTR misses = 0, DATA misses = 1. Winner = INSTR
Heartbeat CPU 0 instructions: 40000000 cycles: 6766381 heartbeat IPC: 5.996 cumulative IPC: 5.996 (Simulation time: 00 hr 01 min 23 sec)
Heartbeat CPU 0 instructions: 50000003 cycles: 8433042 heartbeat IPC: 6 cumulative IPC: 5.998 (Simulation time: 00 hr 01 min 45 sec)
[DUEL] Epoch ended. INSTR misses = 0, DATA misses = 0. Winner = INSTR
[DUEL] Epoch ended. INSTR misses = 0, DATA misses = 0. Winner = INSTR
*** Reached end of trace: (0, "../traces/secret_traces/crypto/crypto38.champsimtrace.xz")
[DUEL] Epoch ended. INSTR misses = 15, DATA misses = 22. Winner = INSTR
[DUEL] Epoch ended. INSTR misses = 17, DATA misses = 16. Winner = DATA
[DUEL] Epoch ended. INSTR misses = 1, DATA misses = 3. Winner = INSTR
Heartbeat CPU 0 instructions: 60000008 cycles: 10531213 heartbeat IPC: 4.766 cumulative IPC: 5.522 (Simulation time: 00 hr 02 min 09 sec)
[DUEL] Epoch ended. INSTR misses = 0, DATA misses = 0. Winner = INSTR
[DUEL] Epoch ended. INSTR misses = 0, DATA misses = 0. Winner = INSTR
[DUEL] Epoch ended. INSTR misses = 0, DATA misses = 0. Winner = INSTR
[DUEL] Epoch ended. INSTR misses = 0, DATA misses = 0. Winner = INSTR
[DUEL] Epoch ended. INSTR misses = 0, DATA misses = 0. Winner = INSTR
[DUEL] Epoch ended. INSTR misses = 0, DATA misses = 0. Winner = INSTR
[DUEL] Epoch ended. INSTR misses = 2, DATA misses = 3. Winner = INSTR
[DUEL] Epoch ended. INSTR misses = 4, DATA misses = 0. Winner = DATA
[DUEL] Epoch ended. INSTR misses = 1, DATA misses = 0. Winner = DATA
[DUEL] Epoch ended. INSTR misses = 6, DATA misses = 0. Winner = DATA
Heartbeat CPU 0 instructions: 70000001 cycles: 12549792 heartbeat IPC: 4.954 cumulative IPC: 5.368 (Simulation time: 00 hr 02 min 34 sec)
[DUEL] Epoch ended. INSTR misses = 0, DATA misses = 1. Winner = INSTR
[DUEL] Epoch ended. INSTR misses = 7, DATA misses = 4. Winner = DATA
[DUEL] Epoch ended. INSTR misses = 57, DATA misses = 68. Winner = INSTR
Heartbeat CPU 0 instructions: 80000008 cycles: 14864347 heartbeat IPC: 4.32 cumulative IPC: 5.12 (Simulation time: 00 hr 03 min 00 sec)
[DUEL] Epoch ended. INSTR misses = 19, DATA misses = 15. Winner = DATA
Heartbeat CPU 0 instructions: 90000007 cycles: 16546946 heartbeat IPC: 5.943 cumulative IPC: 5.241 (Simulation time: 00 hr 03 min 23 sec)
[DUEL] Epoch ended. INSTR misses = 0, DATA misses = 1. Winner = INSTR
Heartbeat CPU 0 instructions: 100000003 cycles: 18214666 heartbeat IPC: 5.996 cumulative IPC: 5.337 (Simulation time: 00 hr 03 min 45 sec)
Heartbeat CPU 0 instructions: 110000000 cycles: 19881329 heartbeat IPC: 6 cumulative IPC: 5.412 (Simulation time: 00 hr 04 min 08 sec)
[DUEL] Epoch ended. INSTR misses = 0, DATA misses = 0. Winner = INSTR
[DUEL] Epoch ended. INSTR misses = 0, DATA misses = 0. Winner = INSTR
*** Reached end of trace: (0, "../traces/secret_traces/crypto/crypto38.champsimtrace.xz")
[DUEL] Epoch ended. INSTR misses = 13, DATA misses = 13. Winner = INSTR
[DUEL] Epoch ended. INSTR misses = 11, DATA misses = 14. Winner = INSTR
[DUEL] Epoch ended. INSTR misses = 1, DATA misses = 3. Winner = INSTR
[DUEL] Epoch ended. INSTR misses = 0, DATA misses = 0. Winner = INSTR
[DUEL] Epoch ended. INSTR misses = 0, DATA misses = 0. Winner = INSTR
[DUEL] Epoch ended. INSTR misses = 0, DATA misses = 0. Winner = INSTR
Heartbeat CPU 0 instructions: 120000005 cycles: 21921006 heartbeat IPC: 4.903 cumulative IPC: 5.35 (Simulation time: 00 hr 04 min 32 sec)
[DUEL] Epoch ended. INSTR misses = 0, DATA misses = 0. Winner = INSTR
[DUEL] Epoch ended. INSTR misses = 0, DATA misses = 0. Winner = INSTR
[DUEL] Epoch ended. INSTR misses = 0, DATA misses = 0. Winner = INSTR
[DUEL] Epoch ended. INSTR misses = 4, DATA misses = 3. Winner = DATA
[DUEL] Epoch ended. INSTR misses = 4, DATA misses = 1. Winner = DATA
[DUEL] Epoch ended. INSTR misses = 2, DATA misses = 1. Winner = DATA
[DUEL] Epoch ended. INSTR misses = 7, DATA misses = 0. Winner = DATA
Heartbeat CPU 0 instructions: 130000004 cycles: 23852857 heartbeat IPC: 5.176 cumulative IPC: 5.332 (Simulation time: 00 hr 04 min 57 sec)
Simulation finished CPU 0 instructions: 100000003 cycles: 18754142 cumulative IPC: 5.332 (Simulation time: 00 hr 04 min 57 sec)
Simulation complete CPU 0 instructions: 100000003 cycles: 18754142 cumulative IPC: 5.332 (Simulation time: 00 hr 04 min 57 sec)

ChampSim completed all CPUs

=== Simulation ===
CPU 0 runs ../traces/secret_traces/crypto/crypto38.champsimtrace.xz
Region of Interest Statistics

CPU 0 cumulative IPC: 5.332 instructions: 100000003 cycles: 18754142
CPU 0 Branch Prediction Accuracy: 99.55% MPKI: 0.4694 Average ROB Occupancy at Mispredict: 32.68
Branch type MPKI
BRANCH_DIRECT_JUMP: 0.0233
BRANCH_INDIRECT: 0.229
BRANCH_CONDITIONAL: 0.1
BRANCH_DIRECT_CALL: 0.0692
BRANCH_INDIRECT_CALL: 0.00959
BRANCH_RETURN: 0.0378

LLC TOTAL        ACCESS:     157471 HIT:     103591 MISS:      53880
LLC LOAD         ACCESS:      16136 HIT:       8287 MISS:       7849
LLC RFO          ACCESS:      44755 HIT:      28802 MISS:      15953
LLC PREFETCH     ACCESS:      41972 HIT:      20954 MISS:      21018
LLC WRITE        ACCESS:      53541 HIT:      45366 MISS:       8175
LLC TRANSLATION  ACCESS:       1067 HIT:        182 MISS:        885
LLC PREFETCH REQUESTED:          0 ISSUED:          0 USEFUL:          0 USELESS:          0
LLC AVERAGE MISS LATENCY: 182.9 cycles
cpu0_DTLB TOTAL        ACCESS:   11432664 HIT:   11417299 MISS:      15365
cpu0_DTLB LOAD         ACCESS:   11432664 HIT:   11417299 MISS:      15365
cpu0_DTLB RFO          ACCESS:          0 HIT:          0 MISS:          0
cpu0_DTLB PREFETCH     ACCESS:          0 HIT:          0 MISS:          0
cpu0_DTLB WRITE        ACCESS:          0 HIT:          0 MISS:          0
cpu0_DTLB TRANSLATION  ACCESS:          0 HIT:          0 MISS:          0
cpu0_DTLB PREFETCH REQUESTED:          0 ISSUED:          0 USEFUL:          0 USELESS:          0
cpu0_DTLB AVERAGE MISS LATENCY: 12.56 cycles
cpu0_ITLB TOTAL        ACCESS:     303955 HIT:     297377 MISS:       6578
cpu0_ITLB LOAD         ACCESS:     303955 HIT:     297377 MISS:       6578
cpu0_ITLB RFO          ACCESS:          0 HIT:          0 MISS:          0
cpu0_ITLB PREFETCH     ACCESS:          0 HIT:          0 MISS:          0
cpu0_ITLB WRITE        ACCESS:          0 HIT:          0 MISS:          0
cpu0_ITLB TRANSLATION  ACCESS:          0 HIT:          0 MISS:          0
cpu0_ITLB PREFETCH REQUESTED:          0 ISSUED:          0 USEFUL:          0 USELESS:          0
cpu0_ITLB AVERAGE MISS LATENCY: 21.32 cycles
cpu0_L1D TOTAL        ACCESS:   16675808 HIT:   16441508 MISS:     234300
cpu0_L1D LOAD         ACCESS:   11197367 HIT:   11138107 MISS:      59260
cpu0_L1D RFO          ACCESS:          0 HIT:          0 MISS:          0
cpu0_L1D PREFETCH     ACCESS:     268297 HIT:     211098 MISS:      57199
cpu0_L1D WRITE        ACCESS:    5207958 HIT:    5091538 MISS:     116420
cpu0_L1D TRANSLATION  ACCESS:       2186 HIT:        765 MISS:       1421
cpu0_L1D PREFETCH REQUESTED:    1725915 ISSUED:     268297 USEFUL:       4590 USELESS:        598
cpu0_L1D AVERAGE MISS LATENCY: 34.8 cycles
cpu0_L1I TOTAL        ACCESS:     441204 HIT:     367782 MISS:      73422
cpu0_L1I LOAD         ACCESS:     145617 HIT:     126691 MISS:      18926
cpu0_L1I RFO          ACCESS:          0 HIT:          0 MISS:          0
cpu0_L1I PREFETCH     ACCESS:     295587 HIT:     241091 MISS:      54496
cpu0_L1I WRITE        ACCESS:          0 HIT:          0 MISS:          0
cpu0_L1I TRANSLATION  ACCESS:          0 HIT:          0 MISS:          0
cpu0_L1I PREFETCH REQUESTED:     450740 ISSUED:     295587 USEFUL:      29236 USELESS:      22436
cpu0_L1I AVERAGE MISS LATENCY: 32.09 cycles
cpu0_L2C TOTAL        ACCESS:     413757 HIT:     278165 MISS:     135592
cpu0_L2C LOAD         ACCESS:      50966 HIT:      31414 MISS:      19552
cpu0_L2C RFO          ACCESS:      50282 HIT:       5504 MISS:      44778
cpu0_L2C PREFETCH     ACCESS:     252553 HIT:     182358 MISS:      70195
cpu0_L2C WRITE        ACCESS:      58578 HIT:      58578 MISS:          0
cpu0_L2C TRANSLATION  ACCESS:       1378 HIT:        311 MISS:       1067
cpu0_L2C PREFETCH REQUESTED:     154321 ISSUED:     149198 USEFUL:      11785 USELESS:       9330
cpu0_L2C AVERAGE MISS LATENCY: 85.76 cycles
cpu0_STLB TOTAL        ACCESS:      10476 HIT:       8471 MISS:       2005
cpu0_STLB LOAD         ACCESS:      10476 HIT:       8471 MISS:       2005
cpu0_STLB RFO          ACCESS:          0 HIT:          0 MISS:          0
cpu0_STLB PREFETCH     ACCESS:          0 HIT:          0 MISS:          0
cpu0_STLB WRITE        ACCESS:          0 HIT:          0 MISS:          0
cpu0_STLB TRANSLATION  ACCESS:          0 HIT:          0 MISS:          0
cpu0_STLB PREFETCH REQUESTED:          0 ISSUED:          0 USEFUL:          0 USELESS:          0
cpu0_STLB AVERAGE MISS LATENCY: 144.2 cycles

DRAM Statistics

Channel 0 RQ ROW_BUFFER_HIT:      10253
  ROW_BUFFER_MISS:      13027
 AVG DBUS CONGESTED CYCLE: 3.908
WQ ROW_BUFFER_HIT: Channel 0 
  ROW_BUFFER_MISS:       1084
  FULL:       8420

Channel 1 RQ ROW_BUFFER_HIT:       9805
  ROW_BUFFER_MISS:      12600
 AVG DBUS CONGESTED CYCLE: 3.898
WQ ROW_BUFFER_HIT: Channel 1 
  ROW_BUFFER_MISS:       1079
  FULL:       7821
BERTI TO_L1: 804256 TO_L2: 1407254 TO_L2_BC_MSHR: 808137
BERTI AVG_LAT: 60.3559 NUM_TRACK_LATENCY: 74995 NUM_CANT_TRACK_LATENCY: 0
BERTI CROSS_PAGE 452292 NO_CROSS_PAGE: 1759218
BERTI FOUND_BERTI: 536402 NO_FOUND_BERTI: 14440639
BERTI AVERAGE_ISSUED: 4.24252
CPU 0 L1I Entangling prefetcher final stats
IP accesses: 6f71 1bdc40 1112 / 146151
IP misses: 7b01 1ec040 101 / 19460
IP hits: 0 0 0 / 0
IP late: f9b1 3e6c40 24 / 9083
IP wrong: 7b5e 1ed780 59 / 22350
miss rate: 0.13315
coverage: 0
coverage_late: 0.466753
accuracy: 0
accuracy_late: 0.288964
discarded: 0
evicts entangled j table: 0
evicts entangled k table: 2973
max bb size: 53
formats: 763 0 2759 1343 595 1356 0 
hist_lookups: 2705 2738 1985 1740 1447 1234 915 685 538 409 324 256 143 77 45 0 0 3425 
hist_lookups_evict: 0 %
hist_lookups_shortlat: 18.3489 %
bb_found_hist: 0 35896 14185 8044 3468 1650 789 509 188 46 12 54 36 20 12 15 2 0 0 0 0 4 0 0 0 0 0 0 0 0 0 2 0 0 2 0 0 0 0 0 0 0 0 0 0 0 0 0 0 0 0 0 0 2 0 0 0 0 0 0 0 0 0 0 
bb_found_summary: 122886 64936 1.89242
entangled_found_hist: 0 17708 14948 25877 5148 735 267 0 
entangled_found_summary: 151104 64683 2.33607
bb_ent_found_hist: 0 50224 22416 14516 6112 3601 1600 740 663 19 38 69 46 23 18 87 84 0 0 0 0 9 0 0 0 0 0 0 0 0 0 2 0 0 3 0 0 0 0 0 0 0 0 0 0 0 0 0 0 0 0 0 0 2 0 0 0 0 0 0 0 0 0 0 
bb_ent_found_summary: 206662 100272 2.06102
