WARNING: physical memory size is smaller than virtual memory size.

*** ChampSim Multicore Out-of-Order Simulator ***
Warmup Instructions: 30000000
Simulation Instructions: 100000000
Number of CPUs: 1
Page size: 4096

BTB:
Basic BTB sets: 1024 ways: 8
Indirect:
history lengths: 0 0 10 16 27 44 60 96 109 219 449 487 714 1313 2146 3881 
ITTAGE tables: 64768 bytes;Region table: 240 bytes;IUM: 384 bytes;Total Storage= 65392 bytes;
RAS:
RAS size: 64
[LLC] INSTR Demand IPV: 1 2 2 1 4 Prefetch IPV: 1 2 1 1 4
[LLC] DATA  Demand IPV: 1 1 1 2 4 Prefetch IPV: 1 1 2 2 4
Berti Prefetcher
CPU 0 Entangling prefetcher
Off-chip DRAM Size: 8 GiB Channels: 2 Width: 64-bit Data Race: 6400 MT/s
[DUEL] Epoch ended. INSTR misses = 38, DATA misses = 40. Winner = INSTR
[DUEL] Epoch ended. INSTR misses = 16, DATA misses = 16. Winner = INSTR
[DUEL] Epoch ended. INSTR misses = 0, DATA misses = 0. Winner = INSTR
[DUEL] Epoch ended. INSTR misses = 0, DATA misses = 0. Winner = INSTR
[DUEL] Epoch ended. INSTR misses = 3, DATA misses = 0. Winner = DATA
[DUEL] Epoch ended. INSTR misses = 1, DATA misses = 0. Winner = DATA
[DUEL] Epoch ended. INSTR misses = 1, DATA misses = 0. Winner = DATA
[DUEL] Epoch ended. INSTR misses = 0, DATA misses = 0. Winner = INSTR
[DUEL] Epoch ended. INSTR misses = 0, DATA misses = 0. Winner = INSTR
[DUEL] Epoch ended. INSTR misses = 0, DATA misses = 2. Winner = INSTR
[DUEL] Epoch ended. INSTR misses = 1, DATA misses = 0. Winner = DATA
[DUEL] Epoch ended. INSTR misses = 0, DATA misses = 0. Winner = INSTR
[DUEL] Epoch ended. INSTR misses = 16, DATA misses = 17. Winner = INSTR
Heartbeat CPU 0 instructions: 10000005 cycles: 1715434 heartbeat IPC: 5.829 cumulative IPC: 5.829 (Simulation time: 00 hr 00 min 20 sec)
[DUEL] Epoch ended. INSTR misses = 6, DATA misses = 4. Winner = DATA
[DUEL] Epoch ended. INSTR misses = 25, DATA misses = 31. Winner = INSTR
[DUEL] Epoch ended. INSTR misses = 88, DATA misses = 86. Winner = DATA
[DUEL] Epoch ended. INSTR misses = 32, DATA misses = 30. Winner = DATA
Heartbeat CPU 0 instructions: 20000001 cycles: 3432000 heartbeat IPC: 5.826 cumulative IPC: 5.828 (Simulation time: 00 hr 00 min 39 sec)
[DUEL] Epoch ended. INSTR misses = 0, DATA misses = 0. Winner = INSTR
Heartbeat CPU 0 instructions: 30000000 cycles: 5098742 heartbeat IPC: 6 cumulative IPC: 5.884 (Simulation time: 00 hr 00 min 58 sec)
Warmup finished CPU 0 instructions: 30000000 cycles: 5098743 cumulative IPC: 5.884 (Simulation time: 00 hr 00 min 58 sec)
Warmup complete CPU 0 instructions: 30000000 cycles: 5098743 cumulative IPC: 5.884 (Simulation time: 00 hr 00 min 58 sec)
[DUEL] Epoch ended. INSTR misses = 0, DATA misses = 0. Winner = INSTR
*** Reached end of trace: (0, "../traces/secret_traces/crypto/crypto74.champsimtrace.xz")
[DUEL] Epoch ended. INSTR misses = 9, DATA misses = 3. Winner = DATA
[DUEL] Epoch ended. INSTR misses = 7, DATA misses = 6. Winner = DATA
[DUEL] Epoch ended. INSTR misses = 3, DATA misses = 0. Winner = DATA
[DUEL] Epoch ended. INSTR misses = 0, DATA misses = 0. Winner = INSTR
[DUEL] Epoch ended. INSTR misses = 0, DATA misses = 0. Winner = INSTR
[DUEL] Epoch ended. INSTR misses = 0, DATA misses = 0. Winner = INSTR
[DUEL] Epoch ended. INSTR misses = 1, DATA misses = 0. Winner = DATA
[DUEL] Epoch ended. INSTR misses = 0, DATA misses = 2. Winner = INSTR
[DUEL] Epoch ended. INSTR misses = 0, DATA misses = 0. Winner = INSTR
[DUEL] Epoch ended. INSTR misses = 2, DATA misses = 0. Winner = DATA
[DUEL] Epoch ended. INSTR misses = 0, DATA misses = 0. Winner = INSTR
[DUEL] Epoch ended. INSTR misses = 2, DATA misses = 1. Winner = DATA
[DUEL] Epoch ended. INSTR misses = 1, DATA misses = 0. Winner = DATA
[DUEL] Epoch ended. INSTR misses = 0, DATA misses = 0. Winner = INSTR
Heartbeat CPU 0 instructions: 40000001 cycles: 7729857 heartbeat IPC: 3.801 cumulative IPC: 3.801 (Simulation time: 00 hr 01 min 27 sec)
[DUEL] Epoch ended. INSTR misses = 1, DATA misses = 3. Winner = INSTR
[DUEL] Epoch ended. INSTR misses = 2, DATA misses = 6. Winner = INSTR
[DUEL] Epoch ended. INSTR misses = 19, DATA misses = 27. Winner = INSTR
[DUEL] Epoch ended. INSTR misses = 11, DATA misses = 4. Winner = DATA
Heartbeat CPU 0 instructions: 50000004 cycles: 10258666 heartbeat IPC: 3.954 cumulative IPC: 3.876 (Simulation time: 00 hr 01 min 56 sec)
[DUEL] Epoch ended. INSTR misses = 0, DATA misses = 0. Winner = INSTR
Heartbeat CPU 0 instructions: 60000001 cycles: 12236886 heartbeat IPC: 5.055 cumulative IPC: 4.203 (Simulation time: 00 hr 02 min 22 sec)
[DUEL] Epoch ended. INSTR misses = 0, DATA misses = 0. Winner = INSTR
*** Reached end of trace: (0, "../traces/secret_traces/crypto/crypto74.champsimtrace.xz")
[DUEL] Epoch ended. INSTR misses = 5, DATA misses = 2. Winner = DATA
[DUEL] Epoch ended. INSTR misses = 3, DATA misses = 2. Winner = DATA
[DUEL] Epoch ended. INSTR misses = 0, DATA misses = 0. Winner = INSTR
[DUEL] Epoch ended. INSTR misses = 0, DATA misses = 0. Winner = INSTR
[DUEL] Epoch ended. INSTR misses = 2, DATA misses = 0. Winner = DATA
[DUEL] Epoch ended. INSTR misses = 0, DATA misses = 0. Winner = INSTR
[DUEL] Epoch ended. INSTR misses = 2, DATA misses = 0. Winner = DATA
[DUEL] Epoch ended. INSTR misses = 0, DATA misses = 0. Winner = INSTR
[DUEL] Epoch ended. INSTR misses = 0, DATA misses = 0. Winner = INSTR
[DUEL] Epoch ended. INSTR misses = 2, DATA misses = 0. Winner = DATA
[DUEL] Epoch ended. INSTR misses = 0, DATA misses = 0. Winner = INSTR
[DUEL] Epoch ended. INSTR misses = 2, DATA misses = 0. Winner = DATA
[DUEL] Epoch ended. INSTR misses = 1, DATA misses = 0. Winner = DATA
[DUEL] Epoch ended. INSTR misses = 0, DATA misses = 0. Winner = INSTR
Heartbeat CPU 0 instructions: 70000000 cycles: 14703065 heartbeat IPC: 4.055 cumulative IPC: 4.165 (Simulation time: 00 hr 02 min 51 sec)
[DUEL] Epoch ended. INSTR misses = 1, DATA misses = 4. Winner = INSTR
[DUEL] Epoch ended. INSTR misses = 4, DATA misses = 2. Winner = DATA
[DUEL] Epoch ended. INSTR misses = 22, DATA misses = 26. Winner = INSTR
[DUEL] Epoch ended. INSTR misses = 10, DATA misses = 3. Winner = DATA
Heartbeat CPU 0 instructions: 80000006 cycles: 17181060 heartbeat IPC: 4.036 cumulative IPC: 4.138 (Simulation time: 00 hr 03 min 20 sec)
Heartbeat CPU 0 instructions: 90000002 cycles: 19145890 heartbeat IPC: 5.089 cumulative IPC: 4.271 (Simulation time: 00 hr 03 min 46 sec)
[DUEL] Epoch ended. INSTR misses = 0, DATA misses = 0. Winner = INSTR
[DUEL] Epoch ended. INSTR misses = 1, DATA misses = 0. Winner = DATA
*** Reached end of trace: (0, "../traces/secret_traces/crypto/crypto74.champsimtrace.xz")
[DUEL] Epoch ended. INSTR misses = 7, DATA misses = 4. Winner = DATA
[DUEL] Epoch ended. INSTR misses = 5, DATA misses = 3. Winner = DATA
[DUEL] Epoch ended. INSTR misses = 0, DATA misses = 0. Winner = INSTR
[DUEL] Epoch ended. INSTR misses = 0, DATA misses = 0. Winner = INSTR
[DUEL] Epoch ended. INSTR misses = 0, DATA misses = 0. Winner = INSTR
[DUEL] Epoch ended. INSTR misses = 0, DATA misses = 0. Winner = INSTR
[DUEL] Epoch ended. INSTR misses = 1, DATA misses = 0. Winner = DATA
[DUEL] Epoch ended. INSTR misses = 0, DATA misses = 0. Winner = INSTR
[DUEL] Epoch ended. INSTR misses = 0, DATA misses = 0. Winner = INSTR
[DUEL] Epoch ended. INSTR misses = 0, DATA misses = 0. Winner = INSTR
[DUEL] Epoch ended. INSTR misses = 0, DATA misses = 0. Winner = INSTR
[DUEL] Epoch ended. INSTR misses = 1, DATA misses = 0. Winner = DATA
[DUEL] Epoch ended. INSTR misses = 1, DATA misses = 0. Winner = DATA
[DUEL] Epoch ended. INSTR misses = 0, DATA misses = 0. Winner = INSTR
Heartbeat CPU 0 instructions: 100000006 cycles: 21581101 heartbeat IPC: 4.106 cumulative IPC: 4.247 (Simulation time: 00 hr 04 min 15 sec)
Heartbeat CPU 0 instructions: 110000000 cycles: 23545924 heartbeat IPC: 5.09 cumulative IPC: 4.337 (Simulation time: 00 hr 04 min 40 sec)
[DUEL] Epoch ended. INSTR misses = 3, DATA misses = 3. Winner = INSTR
[DUEL] Epoch ended. INSTR misses = 3, DATA misses = 1. Winner = DATA
[DUEL] Epoch ended. INSTR misses = 17, DATA misses = 25. Winner = INSTR
[DUEL] Epoch ended. INSTR misses = 9, DATA misses = 2. Winner = DATA
Heartbeat CPU 0 instructions: 120000004 cycles: 25947907 heartbeat IPC: 4.163 cumulative IPC: 4.317 (Simulation time: 00 hr 05 min 09 sec)
[DUEL] Epoch ended. INSTR misses = 0, DATA misses = 0. Winner = INSTR
[DUEL] Epoch ended. INSTR misses = 0, DATA misses = 0. Winner = INSTR
*** Reached end of trace: (0, "../traces/secret_traces/crypto/crypto74.champsimtrace.xz")
[DUEL] Epoch ended. INSTR misses = 7, DATA misses = 5. Winner = DATA
[DUEL] Epoch ended. INSTR misses = 4, DATA misses = 4. Winner = INSTR
[DUEL] Epoch ended. INSTR misses = 0, DATA misses = 0. Winner = INSTR
[DUEL] Epoch ended. INSTR misses = 0, DATA misses = 0. Winner = INSTR
[DUEL] Epoch ended. INSTR misses = 0, DATA misses = 0. Winner = INSTR
[DUEL] Epoch ended. INSTR misses = 0, DATA misses = 0. Winner = INSTR
[DUEL] Epoch ended. INSTR misses = 1, DATA misses = 0. Winner = DATA
[DUEL] Epoch ended. INSTR misses = 0, DATA misses = 0. Winner = INSTR
[DUEL] Epoch ended. INSTR misses = 0, DATA misses = 0. Winner = INSTR
[DUEL] Epoch ended. INSTR misses = 0, DATA misses = 0. Winner = INSTR
[DUEL] Epoch ended. INSTR misses = 0, DATA misses = 0. Winner = INSTR
[DUEL] Epoch ended. INSTR misses = 1, DATA misses = 0. Winner = DATA
[DUEL] Epoch ended. INSTR misses = 1, DATA misses = 0. Winner = DATA
[DUEL] Epoch ended. INSTR misses = 0, DATA misses = 0. Winner = INSTR
Heartbeat CPU 0 instructions: 130000001 cycles: 28352600 heartbeat IPC: 4.159 cumulative IPC: 4.3 (Simulation time: 00 hr 05 min 38 sec)
Simulation finished CPU 0 instructions: 100000001 cycles: 23253858 cumulative IPC: 4.3 (Simulation time: 00 hr 05 min 38 sec)
Simulation complete CPU 0 instructions: 100000001 cycles: 23253858 cumulative IPC: 4.3 (Simulation time: 00 hr 05 min 38 sec)

ChampSim completed all CPUs

=== Simulation ===
CPU 0 runs ../traces/secret_traces/crypto/crypto74.champsimtrace.xz
Region of Interest Statistics

CPU 0 cumulative IPC: 4.3 instructions: 100000001 cycles: 23253858
CPU 0 Branch Prediction Accuracy: 98.32% MPKI: 0.9534 Average ROB Occupancy at Mispredict: 33.43
Branch type MPKI
BRANCH_DIRECT_JUMP: 0.0531
BRANCH_INDIRECT: 0.486
BRANCH_CONDITIONAL: 0.154
BRANCH_DIRECT_CALL: 0.155
BRANCH_INDIRECT_CALL: 0.0199
BRANCH_RETURN: 0.0847

LLC TOTAL        ACCESS:     392856 HIT:     277564 MISS:     115292
LLC LOAD         ACCESS:      38664 HIT:      19659 MISS:      19005
LLC RFO          ACCESS:     117745 HIT:      90193 MISS:      27552
LLC PREFETCH     ACCESS:      99914 HIT:      50409 MISS:      49505
LLC WRITE        ACCESS:     134019 HIT:     116690 MISS:      17329
LLC TRANSLATION  ACCESS:       2514 HIT:        613 MISS:       1901
LLC PREFETCH REQUESTED:          0 ISSUED:          0 USEFUL:          0 USELESS:          0
LLC AVERAGE MISS LATENCY: 172.7 cycles
cpu0_DTLB TOTAL        ACCESS:   14347291 HIT:   14308833 MISS:      38458
cpu0_DTLB LOAD         ACCESS:   14347291 HIT:   14308833 MISS:      38458
cpu0_DTLB RFO          ACCESS:          0 HIT:          0 MISS:          0
cpu0_DTLB PREFETCH     ACCESS:          0 HIT:          0 MISS:          0
cpu0_DTLB WRITE        ACCESS:          0 HIT:          0 MISS:          0
cpu0_DTLB TRANSLATION  ACCESS:          0 HIT:          0 MISS:          0
cpu0_DTLB PREFETCH REQUESTED:          0 ISSUED:          0 USEFUL:          0 USELESS:          0
cpu0_DTLB AVERAGE MISS LATENCY: 10.54 cycles
cpu0_ITLB TOTAL        ACCESS:     680196 HIT:     665661 MISS:      14535
cpu0_ITLB LOAD         ACCESS:     680196 HIT:     665661 MISS:      14535
cpu0_ITLB RFO          ACCESS:          0 HIT:          0 MISS:          0
cpu0_ITLB PREFETCH     ACCESS:          0 HIT:          0 MISS:          0
cpu0_ITLB WRITE        ACCESS:          0 HIT:          0 MISS:          0
cpu0_ITLB TRANSLATION  ACCESS:          0 HIT:          0 MISS:          0
cpu0_ITLB PREFETCH REQUESTED:          0 ISSUED:          0 USEFUL:          0 USELESS:          0
cpu0_ITLB AVERAGE MISS LATENCY: 20.07 cycles
cpu0_L1D TOTAL        ACCESS:   26649390 HIT:   26099348 MISS:     550042
cpu0_L1D LOAD         ACCESS:    8953816 HIT:    8808778 MISS:     145038
cpu0_L1D RFO          ACCESS:          0 HIT:          0 MISS:          0
cpu0_L1D PREFETCH     ACCESS:   14585861 HIT:   14487913 MISS:      97948
cpu0_L1D WRITE        ACCESS:    3104692 HIT:    2800900 MISS:     303792
cpu0_L1D TRANSLATION  ACCESS:       5021 HIT:       1757 MISS:       3264
cpu0_L1D PREFETCH REQUESTED:   19563394 ISSUED:   14585861 USEFUL:      13460 USELESS:       1503
cpu0_L1D AVERAGE MISS LATENCY: 30.94 cycles
cpu0_L1I TOTAL        ACCESS:     990879 HIT:     828823 MISS:     162056
cpu0_L1I LOAD         ACCESS:     323428 HIT:     286824 MISS:      36604
cpu0_L1I RFO          ACCESS:          0 HIT:          0 MISS:          0
cpu0_L1I PREFETCH     ACCESS:     667451 HIT:     541999 MISS:     125452
cpu0_L1I WRITE        ACCESS:          0 HIT:          0 MISS:          0
cpu0_L1I TRANSLATION  ACCESS:          0 HIT:          0 MISS:          0
cpu0_L1I PREFETCH REQUESTED:    1024634 ISSUED:     667451 USEFUL:      69877 USELESS:      50368
cpu0_L1I AVERAGE MISS LATENCY: 32.23 cycles
cpu0_L2C TOTAL        ACCESS:     911456 HIT:     572497 MISS:     338959
cpu0_L2C LOAD         ACCESS:     117329 HIT:      69153 MISS:      48176
cpu0_L2C RFO          ACCESS:     127801 HIT:      10008 MISS:     117793
cpu0_L2C PREFETCH     ACCESS:     513246 HIT:     342770 MISS:     170476
cpu0_L2C WRITE        ACCESS:     149911 HIT:     149911 MISS:          0
cpu0_L2C TRANSLATION  ACCESS:       3169 HIT:        655 MISS:       2514
cpu0_L2C PREFETCH REQUESTED:     320340 ISSUED:     310236 USEFUL:      26923 USELESS:      23060
cpu0_L2C AVERAGE MISS LATENCY: 71.33 cycles
cpu0_STLB TOTAL        ACCESS:      23722 HIT:      19112 MISS:       4610
cpu0_STLB LOAD         ACCESS:      23722 HIT:      19112 MISS:       4610
cpu0_STLB RFO          ACCESS:          0 HIT:          0 MISS:          0
cpu0_STLB PREFETCH     ACCESS:          0 HIT:          0 MISS:          0
cpu0_STLB WRITE        ACCESS:          0 HIT:          0 MISS:          0
cpu0_STLB TRANSLATION  ACCESS:          0 HIT:          0 MISS:          0
cpu0_STLB PREFETCH REQUESTED:          0 ISSUED:          0 USEFUL:          0 USELESS:          0
cpu0_STLB AVERAGE MISS LATENCY: 130.9 cycles

DRAM Statistics

Channel 0 RQ ROW_BUFFER_HIT:      22997
  ROW_BUFFER_MISS:      26819
 AVG DBUS CONGESTED CYCLE: 3.897
WQ ROW_BUFFER_HIT: Channel 0 
  ROW_BUFFER_MISS:       2068
  FULL:      14334

Channel 1 RQ ROW_BUFFER_HIT:      21941
  ROW_BUFFER_MISS:      26181
 AVG DBUS CONGESTED CYCLE: 3.883
WQ ROW_BUFFER_HIT: Channel 1 
  ROW_BUFFER_MISS:       1997
  FULL:      13234
BERTI TO_L1: 16234358 TO_L2: 6809930 TO_L2_BC_MSHR: 1689599
BERTI AVG_LAT: 72.0977 NUM_TRACK_LATENCY: 141605 NUM_CANT_TRACK_LATENCY: 0
BERTI CROSS_PAGE 3150800 NO_CROSS_PAGE: 19893488
BERTI FOUND_BERTI: 3877030 NO_FOUND_BERTI: 8048103
BERTI AVERAGE_ISSUED: 10.0729
CPU 0 L1I Entangling prefetcher final stats
IP accesses: 6f71 1bdc40 1791 / 324241
IP misses: 25bf 96fc0 186 / 37417
IP hits: 0 0 0 / 0
IP late: 6e9e 1ba780 54 / 18238
IP wrong: f7ec 3dfb00 110 / 50154
miss rate: 0.115399
coverage: 0
coverage_late: 0.487426
accuracy: 0
accuracy_late: 0.266669
discarded: 0
evicts entangled j table: 0
evicts entangled k table: 5994
max bb size: 53
formats: 1479 0 5321 2701 1130 2218 0 
hist_lookups: 4611 4925 3725 3255 2916 2400 1960 1455 1161 860 628 425 312 171 77 0 6 5322 
hist_lookups_evict: 0.0175393 %
hist_lookups_shortlat: 15.5574 %
bb_found_hist: 0 81827 33285 17385 7365 3729 1721 1510 442 108 4 110 96 72 25 0 4 0 0 0 0 8 0 0 0 0 0 0 0 0 0 4 0 0 4 0 0 0 0 0 0 0 0 0 0 0 0 0 0 0 0 0 0 4 0 0 0 0 0 0 0 0 0 0 
bb_found_summary: 278453 147703 1.88523
entangled_found_hist: 0 43398 33315 56987 10930 1588 762 0 
entangled_found_summary: 337221 146980 2.29434
bb_ent_found_hist: 0 113760 50700 36302 12575 9207 2988 2121 1384 164 0 181 104 28 13 0 199 0 0 0 0 60 0 0 0 0 0 0 0 0 0 4 0 0 7 0 0 0 0 0 0 0 0 0 0 0 0 0 0 0 0 0 0 7 0 0 0 0 0 0 0 0 0 0 
bb_ent_found_summary: 474686 229804 2.06562
