WARNING: physical memory size is smaller than virtual memory size.

*** ChampSim Multicore Out-of-Order Simulator ***
Warmup Instructions: 30000000
Simulation Instructions: 100000000
Number of CPUs: 1
Page size: 4096

BTB:
Basic BTB sets: 1024 ways: 8
Indirect:
history lengths: 0 0 10 16 27 44 60 96 109 219 449 487 714 1313 2146 3881 
ITTAGE tables: 64768 bytes;Region table: 240 bytes;IUM: 384 bytes;Total Storage= 65392 bytes;
RAS:
RAS size: 64
[LLC] INSTR Demand IPV: 1 2 2 1 4 Prefetch IPV: 1 2 1 1 4
[LLC] DATA  Demand IPV: 1 1 1 2 4 Prefetch IPV: 1 1 2 2 4
Berti Prefetcher
CPU 0 Entangling prefetcher
Off-chip DRAM Size: 8 GiB Channels: 2 Width: 64-bit Data Race: 6400 MT/s
[DUEL] Epoch ended. INSTR misses = 55, DATA misses = 63. Winner = INSTR
[DUEL] Epoch ended. INSTR misses = 0, DATA misses = 2. Winner = INSTR
[DUEL] Epoch ended. INSTR misses = 0, DATA misses = 0. Winner = INSTR
[DUEL] Epoch ended. INSTR misses = 0, DATA misses = 0. Winner = INSTR
[DUEL] Epoch ended. INSTR misses = 0, DATA misses = 0. Winner = INSTR
[DUEL] Epoch ended. INSTR misses = 0, DATA misses = 0. Winner = INSTR
[DUEL] Epoch ended. INSTR misses = 16, DATA misses = 16. Winner = INSTR
[DUEL] Epoch ended. INSTR misses = 0, DATA misses = 0. Winner = INSTR
[DUEL] Epoch ended. INSTR misses = 0, DATA misses = 0. Winner = INSTR
[DUEL] Epoch ended. INSTR misses = 1, DATA misses = 2. Winner = INSTR
[DUEL] Epoch ended. INSTR misses = 5, DATA misses = 14. Winner = INSTR
[DUEL] Epoch ended. INSTR misses = 0, DATA misses = 0. Winner = INSTR
Heartbeat CPU 0 instructions: 10000002 cycles: 1714880 heartbeat IPC: 5.831 cumulative IPC: 5.831 (Simulation time: 00 hr 00 min 20 sec)
[DUEL] Epoch ended. INSTR misses = 0, DATA misses = 9. Winner = INSTR
*** Reached end of trace: (0, "../traces/secret_traces/crypto/crypto22.champsimtrace.xz")
[DUEL] Epoch ended. INSTR misses = 5, DATA misses = 1. Winner = DATA
[DUEL] Epoch ended. INSTR misses = 0, DATA misses = 0. Winner = INSTR
[DUEL] Epoch ended. INSTR misses = 0, DATA misses = 0. Winner = INSTR
[DUEL] Epoch ended. INSTR misses = 0, DATA misses = 0. Winner = INSTR
[DUEL] Epoch ended. INSTR misses = 0, DATA misses = 0. Winner = INSTR
[DUEL] Epoch ended. INSTR misses = 0, DATA misses = 0. Winner = INSTR
[DUEL] Epoch ended. INSTR misses = 0, DATA misses = 0. Winner = INSTR
[DUEL] Epoch ended. INSTR misses = 0, DATA misses = 0. Winner = INSTR
[DUEL] Epoch ended. INSTR misses = 0, DATA misses = 0. Winner = INSTR
[DUEL] Epoch ended. INSTR misses = 0, DATA misses = 0. Winner = INSTR
[DUEL] Epoch ended. INSTR misses = 0, DATA misses = 0. Winner = INSTR
[DUEL] Epoch ended. INSTR misses = 0, DATA misses = 1. Winner = INSTR
Heartbeat CPU 0 instructions: 20000009 cycles: 3432098 heartbeat IPC: 5.823 cumulative IPC: 5.827 (Simulation time: 00 hr 00 min 40 sec)
[DUEL] Epoch ended. INSTR misses = 0, DATA misses = 0. Winner = INSTR
Heartbeat CPU 0 instructions: 30000000 cycles: 5100507 heartbeat IPC: 5.994 cumulative IPC: 5.882 (Simulation time: 00 hr 00 min 59 sec)
Warmup finished CPU 0 instructions: 30000000 cycles: 5100508 cumulative IPC: 5.882 (Simulation time: 00 hr 00 min 59 sec)
Warmup complete CPU 0 instructions: 30000000 cycles: 5100508 cumulative IPC: 5.882 (Simulation time: 00 hr 00 min 59 sec)
[DUEL] Epoch ended. INSTR misses = 0, DATA misses = 0. Winner = INSTR
*** Reached end of trace: (0, "../traces/secret_traces/crypto/crypto22.champsimtrace.xz")
[DUEL] Epoch ended. INSTR misses = 4, DATA misses = 1. Winner = DATA
[DUEL] Epoch ended. INSTR misses = 1, DATA misses = 0. Winner = DATA
[DUEL] Epoch ended. INSTR misses = 0, DATA misses = 0. Winner = INSTR
[DUEL] Epoch ended. INSTR misses = 0, DATA misses = 0. Winner = INSTR
[DUEL] Epoch ended. INSTR misses = 0, DATA misses = 0. Winner = INSTR
[DUEL] Epoch ended. INSTR misses = 0, DATA misses = 0. Winner = INSTR
[DUEL] Epoch ended. INSTR misses = 0, DATA misses = 0. Winner = INSTR
[DUEL] Epoch ended. INSTR misses = 0, DATA misses = 0. Winner = INSTR
[DUEL] Epoch ended. INSTR misses = 0, DATA misses = 0. Winner = INSTR
[DUEL] Epoch ended. INSTR misses = 0, DATA misses = 1. Winner = INSTR
[DUEL] Epoch ended. INSTR misses = 0, DATA misses = 0. Winner = INSTR
[DUEL] Epoch ended. INSTR misses = 0, DATA misses = 1. Winner = INSTR
[DUEL] Epoch ended. INSTR misses = 0, DATA misses = 0. Winner = INSTR
Heartbeat CPU 0 instructions: 40000002 cycles: 7266163 heartbeat IPC: 4.618 cumulative IPC: 4.618 (Simulation time: 00 hr 01 min 28 sec)
Heartbeat CPU 0 instructions: 50000001 cycles: 9111365 heartbeat IPC: 5.419 cumulative IPC: 4.986 (Simulation time: 00 hr 01 min 55 sec)
[DUEL] Epoch ended. INSTR misses = 0, DATA misses = 0. Winner = INSTR
*** Reached end of trace: (0, "../traces/secret_traces/crypto/crypto22.champsimtrace.xz")
[DUEL] Epoch ended. INSTR misses = 0, DATA misses = 0. Winner = INSTR
[DUEL] Epoch ended. INSTR misses = 2, DATA misses = 0. Winner = DATA
[DUEL] Epoch ended. INSTR misses = 0, DATA misses = 0. Winner = INSTR
[DUEL] Epoch ended. INSTR misses = 0, DATA misses = 0. Winner = INSTR
[DUEL] Epoch ended. INSTR misses = 0, DATA misses = 0. Winner = INSTR
[DUEL] Epoch ended. INSTR misses = 0, DATA misses = 0. Winner = INSTR
[DUEL] Epoch ended. INSTR misses = 0, DATA misses = 0. Winner = INSTR
[DUEL] Epoch ended. INSTR misses = 0, DATA misses = 0. Winner = INSTR
[DUEL] Epoch ended. INSTR misses = 0, DATA misses = 0. Winner = INSTR
[DUEL] Epoch ended. INSTR misses = 0, DATA misses = 0. Winner = INSTR
[DUEL] Epoch ended. INSTR misses = 0, DATA misses = 0. Winner = INSTR
[DUEL] Epoch ended. INSTR misses = 0, DATA misses = 0. Winner = INSTR
[DUEL] Epoch ended. INSTR misses = 0, DATA misses = 0. Winner = INSTR
Heartbeat CPU 0 instructions: 60000006 cycles: 11239774 heartbeat IPC: 4.698 cumulative IPC: 4.887 (Simulation time: 00 hr 02 min 23 sec)
[DUEL] Epoch ended. INSTR misses = 0, DATA misses = 0. Winner = INSTR
*** Reached end of trace: (0, "../traces/secret_traces/crypto/crypto22.champsimtrace.xz")
[DUEL] Epoch ended. INSTR misses = 0, DATA misses = 0. Winner = INSTR
[DUEL] Epoch ended. INSTR misses = 0, DATA misses = 0. Winner = INSTR
[DUEL] Epoch ended. INSTR misses = 0, DATA misses = 0. Winner = INSTR
[DUEL] Epoch ended. INSTR misses = 0, DATA misses = 0. Winner = INSTR
[DUEL] Epoch ended. INSTR misses = 0, DATA misses = 0. Winner = INSTR
[DUEL] Epoch ended. INSTR misses = 0, DATA misses = 0. Winner = INSTR
[DUEL] Epoch ended. INSTR misses = 0, DATA misses = 0. Winner = INSTR
[DUEL] Epoch ended. INSTR misses = 0, DATA misses = 0. Winner = INSTR
[DUEL] Epoch ended. INSTR misses = 0, DATA misses = 0. Winner = INSTR
[DUEL] Epoch ended. INSTR misses = 0, DATA misses = 0. Winner = INSTR
[DUEL] Epoch ended. INSTR misses = 0, DATA misses = 0. Winner = INSTR
[DUEL] Epoch ended. INSTR misses = 0, DATA misses = 0. Winner = INSTR
Heartbeat CPU 0 instructions: 70000005 cycles: 13336554 heartbeat IPC: 4.769 cumulative IPC: 4.857 (Simulation time: 00 hr 02 min 52 sec)
[DUEL] Epoch ended. INSTR misses = 0, DATA misses = 0. Winner = INSTR
Heartbeat CPU 0 instructions: 80000001 cycles: 15201588 heartbeat IPC: 5.362 cumulative IPC: 4.95 (Simulation time: 00 hr 03 min 19 sec)
[DUEL] Epoch ended. INSTR misses = 0, DATA misses = 0. Winner = INSTR
*** Reached end of trace: (0, "../traces/secret_traces/crypto/crypto22.champsimtrace.xz")
[DUEL] Epoch ended. INSTR misses = 0, DATA misses = 0. Winner = INSTR
[DUEL] Epoch ended. INSTR misses = 0, DATA misses = 0. Winner = INSTR
[DUEL] Epoch ended. INSTR misses = 0, DATA misses = 0. Winner = INSTR
[DUEL] Epoch ended. INSTR misses = 0, DATA misses = 0. Winner = INSTR
[DUEL] Epoch ended. INSTR misses = 0, DATA misses = 0. Winner = INSTR
[DUEL] Epoch ended. INSTR misses = 0, DATA misses = 0. Winner = INSTR
[DUEL] Epoch ended. INSTR misses = 0, DATA misses = 0. Winner = INSTR
[DUEL] Epoch ended. INSTR misses = 0, DATA misses = 0. Winner = INSTR
[DUEL] Epoch ended. INSTR misses = 0, DATA misses = 0. Winner = INSTR
[DUEL] Epoch ended. INSTR misses = 0, DATA misses = 0. Winner = INSTR
[DUEL] Epoch ended. INSTR misses = 0, DATA misses = 0. Winner = INSTR
[DUEL] Epoch ended. INSTR misses = 0, DATA misses = 0. Winner = INSTR
[DUEL] Epoch ended. INSTR misses = 0, DATA misses = 0. Winner = INSTR
Heartbeat CPU 0 instructions: 90000002 cycles: 17312018 heartbeat IPC: 4.738 cumulative IPC: 4.913 (Simulation time: 00 hr 03 min 47 sec)
Heartbeat CPU 0 instructions: 100000002 cycles: 19157139 heartbeat IPC: 5.42 cumulative IPC: 4.98 (Simulation time: 00 hr 04 min 15 sec)
[DUEL] Epoch ended. INSTR misses = 0, DATA misses = 0. Winner = INSTR
*** Reached end of trace: (0, "../traces/secret_traces/crypto/crypto22.champsimtrace.xz")
[DUEL] Epoch ended. INSTR misses = 0, DATA misses = 0. Winner = INSTR
[DUEL] Epoch ended. INSTR misses = 0, DATA misses = 0. Winner = INSTR
[DUEL] Epoch ended. INSTR misses = 0, DATA misses = 0. Winner = INSTR
[DUEL] Epoch ended. INSTR misses = 0, DATA misses = 0. Winner = INSTR
[DUEL] Epoch ended. INSTR misses = 0, DATA misses = 0. Winner = INSTR
[DUEL] Epoch ended. INSTR misses = 0, DATA misses = 0. Winner = INSTR
[DUEL] Epoch ended. INSTR misses = 0, DATA misses = 0. Winner = INSTR
[DUEL] Epoch ended. INSTR misses = 0, DATA misses = 0. Winner = INSTR
[DUEL] Epoch ended. INSTR misses = 0, DATA misses = 0. Winner = INSTR
[DUEL] Epoch ended. INSTR misses = 0, DATA misses = 0. Winner = INSTR
[DUEL] Epoch ended. INSTR misses = 0, DATA misses = 0. Winner = INSTR
[DUEL] Epoch ended. INSTR misses = 0, DATA misses = 0. Winner = INSTR
[DUEL] Epoch ended. INSTR misses = 0, DATA misses = 0. Winner = INSTR
Heartbeat CPU 0 instructions: 110000001 cycles: 21264031 heartbeat IPC: 4.746 cumulative IPC: 4.949 (Simulation time: 00 hr 04 min 43 sec)
[DUEL] Epoch ended. INSTR misses = 0, DATA misses = 0. Winner = INSTR
*** Reached end of trace: (0, "../traces/secret_traces/crypto/crypto22.champsimtrace.xz")
[DUEL] Epoch ended. INSTR misses = 0, DATA misses = 0. Winner = INSTR
[DUEL] Epoch ended. INSTR misses = 0, DATA misses = 0. Winner = INSTR
[DUEL] Epoch ended. INSTR misses = 0, DATA misses = 0. Winner = INSTR
[DUEL] Epoch ended. INSTR misses = 0, DATA misses = 0. Winner = INSTR
[DUEL] Epoch ended. INSTR misses = 0, DATA misses = 0. Winner = INSTR
[DUEL] Epoch ended. INSTR misses = 0, DATA misses = 0. Winner = INSTR
[DUEL] Epoch ended. INSTR misses = 0, DATA misses = 0. Winner = INSTR
[DUEL] Epoch ended. INSTR misses = 0, DATA misses = 0. Winner = INSTR
[DUEL] Epoch ended. INSTR misses = 0, DATA misses = 0. Winner = INSTR
[DUEL] Epoch ended. INSTR misses = 0, DATA misses = 0. Winner = INSTR
[DUEL] Epoch ended. INSTR misses = 0, DATA misses = 0. Winner = INSTR
Heartbeat CPU 0 instructions: 120000004 cycles: 23335287 heartbeat IPC: 4.828 cumulative IPC: 4.936 (Simulation time: 00 hr 05 min 11 sec)
[DUEL] Epoch ended. INSTR misses = 0, DATA misses = 0. Winner = INSTR
[DUEL] Epoch ended. INSTR misses = 0, DATA misses = 0. Winner = INSTR
Heartbeat CPU 0 instructions: 130000005 cycles: 25213474 heartbeat IPC: 5.324 cumulative IPC: 4.972 (Simulation time: 00 hr 05 min 38 sec)
Simulation finished CPU 0 instructions: 100000005 cycles: 20112967 cumulative IPC: 4.972 (Simulation time: 00 hr 05 min 38 sec)
Simulation complete CPU 0 instructions: 100000005 cycles: 20112967 cumulative IPC: 4.972 (Simulation time: 00 hr 05 min 38 sec)

ChampSim completed all CPUs

=== Simulation ===
CPU 0 runs ../traces/secret_traces/crypto/crypto22.champsimtrace.xz
Region of Interest Statistics

CPU 0 cumulative IPC: 4.972 instructions: 100000005 cycles: 20112967
CPU 0 Branch Prediction Accuracy: 98.21% MPKI: 0.7753 Average ROB Occupancy at Mispredict: 27.27
Branch type MPKI
BRANCH_DIRECT_JUMP: 0.0431
BRANCH_INDIRECT: 0.441
BRANCH_CONDITIONAL: 0.0824
BRANCH_DIRECT_CALL: 0.124
BRANCH_INDIRECT_CALL: 0.0173
BRANCH_RETURN: 0.0675

LLC TOTAL        ACCESS:     193414 HIT:     191851 MISS:       1563
LLC LOAD         ACCESS:      25373 HIT:      25353 MISS:         20
LLC RFO          ACCESS:      54191 HIT:      54189 MISS:          2
LLC PREFETCH     ACCESS:      52802 HIT:      51379 MISS:       1423
LLC WRITE        ACCESS:      60246 HIT:      60246 MISS:          0
LLC TRANSLATION  ACCESS:        802 HIT:        684 MISS:        118
LLC PREFETCH REQUESTED:          0 ISSUED:          0 USEFUL:          0 USELESS:          0
LLC AVERAGE MISS LATENCY: 159.1 cycles
cpu0_DTLB TOTAL        ACCESS:   14747652 HIT:   14725490 MISS:      22162
cpu0_DTLB LOAD         ACCESS:   14747652 HIT:   14725490 MISS:      22162
cpu0_DTLB RFO          ACCESS:          0 HIT:          0 MISS:          0
cpu0_DTLB PREFETCH     ACCESS:          0 HIT:          0 MISS:          0
cpu0_DTLB WRITE        ACCESS:          0 HIT:          0 MISS:          0
cpu0_DTLB TRANSLATION  ACCESS:          0 HIT:          0 MISS:          0
cpu0_DTLB PREFETCH REQUESTED:          0 ISSUED:          0 USEFUL:          0 USELESS:          0
cpu0_DTLB AVERAGE MISS LATENCY: 5.273 cycles
cpu0_ITLB TOTAL        ACCESS:     596487 HIT:     584996 MISS:      11491
cpu0_ITLB LOAD         ACCESS:     596487 HIT:     584996 MISS:      11491
cpu0_ITLB RFO          ACCESS:          0 HIT:          0 MISS:          0
cpu0_ITLB PREFETCH     ACCESS:          0 HIT:          0 MISS:          0
cpu0_ITLB WRITE        ACCESS:          0 HIT:          0 MISS:          0
cpu0_ITLB TRANSLATION  ACCESS:          0 HIT:          0 MISS:          0
cpu0_ITLB PREFETCH REQUESTED:          0 ISSUED:          0 USEFUL:          0 USELESS:          0
cpu0_ITLB AVERAGE MISS LATENCY: 7.233 cycles
cpu0_L1D TOTAL        ACCESS:   24124188 HIT:   23824390 MISS:     299798
cpu0_L1D LOAD         ACCESS:   12953718 HIT:   12860358 MISS:      93360
cpu0_L1D RFO          ACCESS:          0 HIT:          0 MISS:          0
cpu0_L1D PREFETCH     ACCESS:    8930596 HIT:    8855660 MISS:      74936
cpu0_L1D WRITE        ACCESS:    2237703 HIT:    2107378 MISS:     130325
cpu0_L1D TRANSLATION  ACCESS:       2171 HIT:        994 MISS:       1177
cpu0_L1D PREFETCH REQUESTED:   10243922 ISSUED:    8930596 USEFUL:       6458 USELESS:       1655
cpu0_L1D AVERAGE MISS LATENCY: 11.05 cycles
cpu0_L1I TOTAL        ACCESS:     867565 HIT:     750050 MISS:     117515
cpu0_L1I LOAD         ACCESS:     284211 HIT:     261322 MISS:      22889
cpu0_L1I RFO          ACCESS:          0 HIT:          0 MISS:          0
cpu0_L1I PREFETCH     ACCESS:     583354 HIT:     488728 MISS:      94626
cpu0_L1I WRITE        ACCESS:          0 HIT:          0 MISS:          0
cpu0_L1I TRANSLATION  ACCESS:          0 HIT:          0 MISS:          0
cpu0_L1I PREFETCH REQUESTED:     857595 ISSUED:     583354 USEFUL:      59190 USELESS:      32057
cpu0_L1I AVERAGE MISS LATENCY: 15.39 cycles
cpu0_L2C TOTAL        ACCESS:     616696 HIT:     464680 MISS:     152016
cpu0_L2C LOAD         ACCESS:      79237 HIT:      53524 MISS:      25713
cpu0_L2C RFO          ACCESS:      67115 HIT:      12902 MISS:      54213
cpu0_L2C PREFETCH     ACCESS:     386282 HIT:     314994 MISS:      71288
cpu0_L2C WRITE        ACCESS:      82988 HIT:      82988 MISS:          0
cpu0_L2C TRANSLATION  ACCESS:       1074 HIT:        272 MISS:        802
cpu0_L2C PREFETCH REQUESTED:     239986 ISSUED:     225533 USEFUL:      10045 USELESS:      16486
cpu0_L2C AVERAGE MISS LATENCY: 19.35 cycles
cpu0_STLB TOTAL        ACCESS:      19260 HIT:      17221 MISS:       2039
cpu0_STLB LOAD         ACCESS:      19260 HIT:      17221 MISS:       2039
cpu0_STLB RFO          ACCESS:          0 HIT:          0 MISS:          0
cpu0_STLB PREFETCH     ACCESS:          0 HIT:          0 MISS:          0
cpu0_STLB WRITE        ACCESS:          0 HIT:          0 MISS:          0
cpu0_STLB TRANSLATION  ACCESS:          0 HIT:          0 MISS:          0
cpu0_STLB PREFETCH REQUESTED:          0 ISSUED:          0 USEFUL:          0 USELESS:          0
cpu0_STLB AVERAGE MISS LATENCY: 38.42 cycles

DRAM Statistics

Channel 0 RQ ROW_BUFFER_HIT:         94
  ROW_BUFFER_MISS:        704
 AVG DBUS CONGESTED CYCLE: 3.624
WQ ROW_BUFFER_HIT: Channel 0 
  ROW_BUFFER_MISS:          0
  FULL:          0

Channel 1 RQ ROW_BUFFER_HIT:        114
  ROW_BUFFER_MISS:        651
 AVG DBUS CONGESTED CYCLE: 3.62
WQ ROW_BUFFER_HIT: Channel 1 
  ROW_BUFFER_MISS:          0
  FULL:          1
BERTI TO_L1: 12111988 TO_L2: 1107190 TO_L2_BC_MSHR: 179365
BERTI AVG_LAT: 19.1447 NUM_TRACK_LATENCY: 96998 NUM_CANT_TRACK_LATENCY: 0
BERTI CROSS_PAGE 1643814 NO_CROSS_PAGE: 11575364
BERTI FOUND_BERTI: 1518496 NO_FOUND_BERTI: 15513634
BERTI AVERAGE_ISSUED: 11.511
CPU 0 L1I Entangling prefetcher final stats
IP accesses: 6f71 1bdc40 2758 / 284736
IP misses: f7cb 3df2c0 238 / 23414
IP hits: 0 0 0 / 0
IP late: 6e9e 1ba780 74 / 11386
IP wrong: 251e 94780 286 / 31923
miss rate: 0.0822306
coverage: 0
coverage_late: 0.486291
accuracy: 0
accuracy_late: 0.262902
discarded: 0
evicts entangled j table: 0
evicts entangled k table: 3945
max bb size: 53
formats: 1207 0 2972 1612 551 1112 0 
hist_lookups: 2648 3070 2237 1952 1845 1584 1163 919 689 619 483 287 172 77 44 0 33 4295 
hist_lookups_evict: 0.149207 %
hist_lookups_shortlat: 19.4195 %
bb_found_hist: 0 70772 27420 14538 6751 2641 1354 1064 303 139 0 40 24 0 24 30 6 0 0 0 0 12 0 0 0 0 0 0 0 0 0 6 0 0 6 0 0 0 0 0 0 0 0 0 0 0 0 0 0 0 0 0 0 6 0 0 0 0 0 0 0 0 0 0 
bb_found_summary: 231252 125136 1.84801
entangled_found_hist: 0 42701 25343 45000 10397 1839 614 0 
entangled_found_summary: 282854 125894 2.24677
bb_ent_found_hist: 0 89457 38831 28736 14420 6781 1895 1649 1088 56 0 52 86 0 6 181 402 0 0 0 0 29 0 0 0 0 0 0 0 0 0 11 0 0 12 0 0 0 0 0 0 0 0 0 0 0 0 0 0 0 0 0 0 11 0 0 0 0 0 0 0 0 0 0 
bb_ent_found_summary: 389809 183703 2.12196
