WARNING: physical memory size is smaller than virtual memory size.

*** ChampSim Multicore Out-of-Order Simulator ***
Warmup Instructions: 30000000
Simulation Instructions: 100000000
Number of CPUs: 1
Page size: 4096

BTB:
Basic BTB sets: 1024 ways: 8
Indirect:
history lengths: 0 0 10 16 27 44 60 96 109 219 449 487 714 1313 2146 3881 
ITTAGE tables: 64768 bytes;Region table: 240 bytes;IUM: 384 bytes;Total Storage= 65392 bytes;
RAS:
RAS size: 64
[LLC] INSTR Demand IPV: 1 2 2 1 4 Prefetch IPV: 1 2 1 1 4
[LLC] DATA  Demand IPV: 1 1 1 2 4 Prefetch IPV: 1 1 2 2 4
Berti Prefetcher
CPU 0 Entangling prefetcher
Off-chip DRAM Size: 8 GiB Channels: 2 Width: 64-bit Data Race: 6400 MT/s
[DUEL] Epoch ended. INSTR misses = 53, DATA misses = 45. Winner = DATA
[DUEL] Epoch ended. INSTR misses = 16, DATA misses = 16. Winner = INSTR
[DUEL] Epoch ended. INSTR misses = 1, DATA misses = 0. Winner = DATA
[DUEL] Epoch ended. INSTR misses = 0, DATA misses = 0. Winner = INSTR
[DUEL] Epoch ended. INSTR misses = 0, DATA misses = 0. Winner = INSTR
[DUEL] Epoch ended. INSTR misses = 0, DATA misses = 0. Winner = INSTR
[DUEL] Epoch ended. INSTR misses = 0, DATA misses = 0. Winner = INSTR
[DUEL] Epoch ended. INSTR misses = 0, DATA misses = 0. Winner = INSTR
[DUEL] Epoch ended. INSTR misses = 0, DATA misses = 0. Winner = INSTR
[DUEL] Epoch ended. INSTR misses = 5, DATA misses = 10. Winner = INSTR
[DUEL] Epoch ended. INSTR misses = 0, DATA misses = 0. Winner = INSTR
[DUEL] Epoch ended. INSTR misses = 8, DATA misses = 1. Winner = DATA
[DUEL] Epoch ended. INSTR misses = 16, DATA misses = 18. Winner = INSTR
Heartbeat CPU 0 instructions: 10000005 cycles: 1715486 heartbeat IPC: 5.829 cumulative IPC: 5.829 (Simulation time: 00 hr 00 min 20 sec)
[DUEL] Epoch ended. INSTR misses = 12, DATA misses = 7. Winner = DATA
[DUEL] Epoch ended. INSTR misses = 24, DATA misses = 28. Winner = INSTR
[DUEL] Epoch ended. INSTR misses = 72, DATA misses = 85. Winner = INSTR
Heartbeat CPU 0 instructions: 20000005 cycles: 3431927 heartbeat IPC: 5.826 cumulative IPC: 5.828 (Simulation time: 00 hr 00 min 40 sec)
[DUEL] Epoch ended. INSTR misses = 26, DATA misses = 30. Winner = INSTR
*** Reached end of trace: (0, "../traces/secret_traces/crypto/crypto105.champsimtrace.xz")
[DUEL] Epoch ended. INSTR misses = 6, DATA misses = 5. Winner = DATA
[DUEL] Epoch ended. INSTR misses = 13, DATA misses = 4. Winner = DATA
[DUEL] Epoch ended. INSTR misses = 0, DATA misses = 0. Winner = INSTR
[DUEL] Epoch ended. INSTR misses = 1, DATA misses = 0. Winner = DATA
[DUEL] Epoch ended. INSTR misses = 0, DATA misses = 0. Winner = INSTR
[DUEL] Epoch ended. INSTR misses = 0, DATA misses = 0. Winner = INSTR
[DUEL] Epoch ended. INSTR misses = 0, DATA misses = 0. Winner = INSTR
[DUEL] Epoch ended. INSTR misses = 0, DATA misses = 0. Winner = INSTR
[DUEL] Epoch ended. INSTR misses = 0, DATA misses = 0. Winner = INSTR
[DUEL] Epoch ended. INSTR misses = 4, DATA misses = 3. Winner = DATA
[DUEL] Epoch ended. INSTR misses = 0, DATA misses = 0. Winner = INSTR
[DUEL] Epoch ended. INSTR misses = 1, DATA misses = 1. Winner = INSTR
Heartbeat CPU 0 instructions: 30000002 cycles: 5149890 heartbeat IPC: 5.821 cumulative IPC: 5.825 (Simulation time: 00 hr 01 min 00 sec)
Warmup finished CPU 0 instructions: 30000002 cycles: 5149891 cumulative IPC: 5.825 (Simulation time: 00 hr 01 min 00 sec)
Warmup complete CPU 0 instructions: 30000002 cycles: 5149891 cumulative IPC: 5.825 (Simulation time: 00 hr 01 min 00 sec)
[DUEL] Epoch ended. INSTR misses = 1, DATA misses = 0. Winner = DATA
Heartbeat CPU 0 instructions: 40000000 cycles: 9184749 heartbeat IPC: 2.478 cumulative IPC: 2.478 (Simulation time: 00 hr 01 min 42 sec)
[DUEL] Epoch ended. INSTR misses = 5, DATA misses = 7. Winner = INSTR
[DUEL] Epoch ended. INSTR misses = 4, DATA misses = 3. Winner = DATA
[DUEL] Epoch ended. INSTR misses = 23, DATA misses = 51. Winner = INSTR
Heartbeat CPU 0 instructions: 50000002 cycles: 13611411 heartbeat IPC: 2.259 cumulative IPC: 2.364 (Simulation time: 00 hr 02 min 27 sec)
[DUEL] Epoch ended. INSTR misses = 21, DATA misses = 18. Winner = DATA
*** Reached end of trace: (0, "../traces/secret_traces/crypto/crypto105.champsimtrace.xz")
[DUEL] Epoch ended. INSTR misses = 0, DATA misses = 5. Winner = INSTR
[DUEL] Epoch ended. INSTR misses = 9, DATA misses = 3. Winner = DATA
[DUEL] Epoch ended. INSTR misses = 0, DATA misses = 0. Winner = INSTR
[DUEL] Epoch ended. INSTR misses = 1, DATA misses = 0. Winner = DATA
[DUEL] Epoch ended. INSTR misses = 0, DATA misses = 0. Winner = INSTR
[DUEL] Epoch ended. INSTR misses = 0, DATA misses = 0. Winner = INSTR
[DUEL] Epoch ended. INSTR misses = 0, DATA misses = 0. Winner = INSTR
[DUEL] Epoch ended. INSTR misses = 0, DATA misses = 0. Winner = INSTR
[DUEL] Epoch ended. INSTR misses = 0, DATA misses = 0. Winner = INSTR
[DUEL] Epoch ended. INSTR misses = 4, DATA misses = 2. Winner = DATA
[DUEL] Epoch ended. INSTR misses = 1, DATA misses = 0. Winner = DATA
[DUEL] Epoch ended. INSTR misses = 2, DATA misses = 0. Winner = DATA
[DUEL] Epoch ended. INSTR misses = 1, DATA misses = 0. Winner = DATA
Heartbeat CPU 0 instructions: 60000006 cycles: 17430734 heartbeat IPC: 2.618 cumulative IPC: 2.443 (Simulation time: 00 hr 03 min 06 sec)
[DUEL] Epoch ended. INSTR misses = 3, DATA misses = 7. Winner = INSTR
[DUEL] Epoch ended. INSTR misses = 4, DATA misses = 3. Winner = DATA
[DUEL] Epoch ended. INSTR misses = 22, DATA misses = 45. Winner = INSTR
Heartbeat CPU 0 instructions: 70000000 cycles: 21717634 heartbeat IPC: 2.333 cumulative IPC: 2.414 (Simulation time: 00 hr 03 min 49 sec)
[DUEL] Epoch ended. INSTR misses = 17, DATA misses = 17. Winner = INSTR
*** Reached end of trace: (0, "../traces/secret_traces/crypto/crypto105.champsimtrace.xz")
[DUEL] Epoch ended. INSTR misses = 4, DATA misses = 1. Winner = DATA
[DUEL] Epoch ended. INSTR misses = 6, DATA misses = 3. Winner = DATA
[DUEL] Epoch ended. INSTR misses = 0, DATA misses = 0. Winner = INSTR
[DUEL] Epoch ended. INSTR misses = 1, DATA misses = 0. Winner = DATA
[DUEL] Epoch ended. INSTR misses = 0, DATA misses = 0. Winner = INSTR
[DUEL] Epoch ended. INSTR misses = 0, DATA misses = 0. Winner = INSTR
[DUEL] Epoch ended. INSTR misses = 0, DATA misses = 0. Winner = INSTR
[DUEL] Epoch ended. INSTR misses = 0, DATA misses = 0. Winner = INSTR
[DUEL] Epoch ended. INSTR misses = 0, DATA misses = 0. Winner = INSTR
[DUEL] Epoch ended. INSTR misses = 1, DATA misses = 1. Winner = INSTR
[DUEL] Epoch ended. INSTR misses = 1, DATA misses = 0. Winner = DATA
[DUEL] Epoch ended. INSTR misses = 2, DATA misses = 0. Winner = DATA
Heartbeat CPU 0 instructions: 80000000 cycles: 25414100 heartbeat IPC: 2.705 cumulative IPC: 2.467 (Simulation time: 00 hr 04 min 28 sec)
[DUEL] Epoch ended. INSTR misses = 1, DATA misses = 1. Winner = INSTR
Heartbeat CPU 0 instructions: 90000000 cycles: 29450400 heartbeat IPC: 2.478 cumulative IPC: 2.469 (Simulation time: 00 hr 05 min 10 sec)
[DUEL] Epoch ended. INSTR misses = 3, DATA misses = 6. Winner = INSTR
[DUEL] Epoch ended. INSTR misses = 3, DATA misses = 3. Winner = INSTR
[DUEL] Epoch ended. INSTR misses = 20, DATA misses = 42. Winner = INSTR
Heartbeat CPU 0 instructions: 100000000 cycles: 33692853 heartbeat IPC: 2.357 cumulative IPC: 2.452 (Simulation time: 00 hr 05 min 54 sec)
[DUEL] Epoch ended. INSTR misses = 15, DATA misses = 16. Winner = INSTR
*** Reached end of trace: (0, "../traces/secret_traces/crypto/crypto105.champsimtrace.xz")
[DUEL] Epoch ended. INSTR misses = 6, DATA misses = 7. Winner = INSTR
[DUEL] Epoch ended. INSTR misses = 10, DATA misses = 5. Winner = DATA
[DUEL] Epoch ended. INSTR misses = 3, DATA misses = 0. Winner = DATA
[DUEL] Epoch ended. INSTR misses = 1, DATA misses = 1. Winner = INSTR
[DUEL] Epoch ended. INSTR misses = 0, DATA misses = 0. Winner = INSTR
[DUEL] Epoch ended. INSTR misses = 0, DATA misses = 0. Winner = INSTR
[DUEL] Epoch ended. INSTR misses = 0, DATA misses = 0. Winner = INSTR
[DUEL] Epoch ended. INSTR misses = 0, DATA misses = 0. Winner = INSTR
[DUEL] Epoch ended. INSTR misses = 0, DATA misses = 0. Winner = INSTR
[DUEL] Epoch ended. INSTR misses = 1, DATA misses = 0. Winner = DATA
[DUEL] Epoch ended. INSTR misses = 7, DATA misses = 1. Winner = DATA
[DUEL] Epoch ended. INSTR misses = 2, DATA misses = 1. Winner = DATA
[DUEL] Epoch ended. INSTR misses = 3, DATA misses = 1. Winner = DATA
Heartbeat CPU 0 instructions: 110000000 cycles: 37404000 heartbeat IPC: 2.695 cumulative IPC: 2.48 (Simulation time: 00 hr 06 min 33 sec)
[DUEL] Epoch ended. INSTR misses = 4, DATA misses = 6. Winner = INSTR
[DUEL] Epoch ended. INSTR misses = 3, DATA misses = 3. Winner = INSTR
[DUEL] Epoch ended. INSTR misses = 23, DATA misses = 41. Winner = INSTR
Heartbeat CPU 0 instructions: 120000007 cycles: 41605907 heartbeat IPC: 2.38 cumulative IPC: 2.469 (Simulation time: 00 hr 07 min 16 sec)
[DUEL] Epoch ended. INSTR misses = 19, DATA misses = 16. Winner = DATA
*** Reached end of trace: (0, "../traces/secret_traces/crypto/crypto105.champsimtrace.xz")
[DUEL] Epoch ended. INSTR misses = 1, DATA misses = 1. Winner = INSTR
[DUEL] Epoch ended. INSTR misses = 9, DATA misses = 3. Winner = DATA
[DUEL] Epoch ended. INSTR misses = 0, DATA misses = 0. Winner = INSTR
[DUEL] Epoch ended. INSTR misses = 1, DATA misses = 0. Winner = DATA
[DUEL] Epoch ended. INSTR misses = 0, DATA misses = 0. Winner = INSTR
[DUEL] Epoch ended. INSTR misses = 0, DATA misses = 0. Winner = INSTR
Heartbeat CPU 0 instructions: 130000002 cycles: 45504055 heartbeat IPC: 2.565 cumulative IPC: 2.478 (Simulation time: 00 hr 07 min 56 sec)
Simulation finished CPU 0 instructions: 100000000 cycles: 40354165 cumulative IPC: 2.478 (Simulation time: 00 hr 07 min 56 sec)
Simulation complete CPU 0 instructions: 100000000 cycles: 40354165 cumulative IPC: 2.478 (Simulation time: 00 hr 07 min 56 sec)

ChampSim completed all CPUs

=== Simulation ===
CPU 0 runs ../traces/secret_traces/crypto/crypto105.champsimtrace.xz
Region of Interest Statistics

CPU 0 cumulative IPC: 2.478 instructions: 100000000 cycles: 40354165
CPU 0 Branch Prediction Accuracy: 98.94% MPKI: 0.9242 Average ROB Occupancy at Mispredict: 33.31
Branch type MPKI
BRANCH_DIRECT_JUMP: 0.0556
BRANCH_INDIRECT: 0.488
BRANCH_CONDITIONAL: 0.115
BRANCH_DIRECT_CALL: 0.159
BRANCH_INDIRECT_CALL: 0.0198
BRANCH_RETURN: 0.0869

LLC TOTAL        ACCESS:     448537 HIT:     327415 MISS:     121122
LLC LOAD         ACCESS:      43477 HIT:      23300 MISS:      20177
LLC RFO          ACCESS:     137153 HIT:     111394 MISS:      25759
LLC PREFETCH     ACCESS:     111518 HIT:      56090 MISS:      55428
LLC WRITE        ACCESS:     153773 HIT:     135980 MISS:      17793
LLC TRANSLATION  ACCESS:       2616 HIT:        651 MISS:       1965
LLC PREFETCH REQUESTED:          0 ISSUED:          0 USEFUL:          0 USELESS:          0
LLC AVERAGE MISS LATENCY: 168.1 cycles
cpu0_DTLB TOTAL        ACCESS:   14812108 HIT:   14768801 MISS:      43307
cpu0_DTLB LOAD         ACCESS:   14812108 HIT:   14768801 MISS:      43307
cpu0_DTLB RFO          ACCESS:          0 HIT:          0 MISS:          0
cpu0_DTLB PREFETCH     ACCESS:          0 HIT:          0 MISS:          0
cpu0_DTLB WRITE        ACCESS:          0 HIT:          0 MISS:          0
cpu0_DTLB TRANSLATION  ACCESS:          0 HIT:          0 MISS:          0
cpu0_DTLB PREFETCH REQUESTED:          0 ISSUED:          0 USEFUL:          0 USELESS:          0
cpu0_DTLB AVERAGE MISS LATENCY: 10.34 cycles
cpu0_ITLB TOTAL        ACCESS:     733387 HIT:     718864 MISS:      14523
cpu0_ITLB LOAD         ACCESS:     733387 HIT:     718864 MISS:      14523
cpu0_ITLB RFO          ACCESS:          0 HIT:          0 MISS:          0
cpu0_ITLB PREFETCH     ACCESS:          0 HIT:          0 MISS:          0
cpu0_ITLB WRITE        ACCESS:          0 HIT:          0 MISS:          0
cpu0_ITLB TRANSLATION  ACCESS:          0 HIT:          0 MISS:          0
cpu0_ITLB PREFETCH REQUESTED:          0 ISSUED:          0 USEFUL:          0 USELESS:          0
cpu0_ITLB AVERAGE MISS LATENCY: 20.3 cycles
cpu0_L1D TOTAL        ACCESS:   18620941 HIT:   17975939 MISS:     645002
cpu0_L1D LOAD         ACCESS:   13382447 HIT:   13219317 MISS:     163130
cpu0_L1D RFO          ACCESS:          0 HIT:          0 MISS:          0
cpu0_L1D PREFETCH     ACCESS:     483005 HIT:     371651 MISS:     111354
cpu0_L1D WRITE        ACCESS:    4750156 HIT:    4383040 MISS:     367116
cpu0_L1D TRANSLATION  ACCESS:       5333 HIT:       1931 MISS:       3402
cpu0_L1D PREFETCH REQUESTED:    3490542 ISSUED:     483014 USEFUL:      13873 USELESS:       1399
cpu0_L1D AVERAGE MISS LATENCY: 27.21 cycles
cpu0_L1I TOTAL        ACCESS:    1067263 HIT:     893480 MISS:     173783
cpu0_L1I LOAD         ACCESS:     349208 HIT:     309660 MISS:      39548
cpu0_L1I RFO          ACCESS:          0 HIT:          0 MISS:          0
cpu0_L1I PREFETCH     ACCESS:     718055 HIT:     583820 MISS:     134235
cpu0_L1I WRITE        ACCESS:          0 HIT:          0 MISS:          0
cpu0_L1I TRANSLATION  ACCESS:          0 HIT:          0 MISS:          0
cpu0_L1I PREFETCH REQUESTED:    1150472 ISSUED:     718055 USEFUL:      75884 USELESS:      52812
cpu0_L1I AVERAGE MISS LATENCY: 33.16 cycles
cpu0_L2C TOTAL        ACCESS:    1010233 HIT:     625790 MISS:     384443
cpu0_L2C LOAD         ACCESS:     129952 HIT:      74865 MISS:      55087
cpu0_L2C RFO          ACCESS:     150186 HIT:      12971 MISS:     137215
cpu0_L2C PREFETCH     ACCESS:     555448 HIT:     365923 MISS:     189525
cpu0_L2C WRITE        ACCESS:     171363 HIT:     171363 MISS:          0
cpu0_L2C TRANSLATION  ACCESS:       3284 HIT:        668 MISS:       2616
cpu0_L2C PREFETCH REQUESTED:     349685 ISSUED:     335718 USEFUL:      29241 USELESS:      25505
cpu0_L2C AVERAGE MISS LATENCY: 65.56 cycles
cpu0_STLB TOTAL        ACCESS:      25480 HIT:      20630 MISS:       4850
cpu0_STLB LOAD         ACCESS:      25480 HIT:      20630 MISS:       4850
cpu0_STLB RFO          ACCESS:          0 HIT:          0 MISS:          0
cpu0_STLB PREFETCH     ACCESS:          0 HIT:          0 MISS:          0
cpu0_STLB WRITE        ACCESS:          0 HIT:          0 MISS:          0
cpu0_STLB TRANSLATION  ACCESS:          0 HIT:          0 MISS:          0
cpu0_STLB PREFETCH REQUESTED:          0 ISSUED:          0 USEFUL:          0 USELESS:          0
cpu0_STLB AVERAGE MISS LATENCY: 130.7 cycles

DRAM Statistics

Channel 0 RQ ROW_BUFFER_HIT:      24589
  ROW_BUFFER_MISS:      28020
 AVG DBUS CONGESTED CYCLE: 3.899
WQ ROW_BUFFER_HIT: Channel 0 
  ROW_BUFFER_MISS:       1890
  FULL:      13943

Channel 1 RQ ROW_BUFFER_HIT:      23343
  ROW_BUFFER_MISS:      27331
 AVG DBUS CONGESTED CYCLE: 3.873
WQ ROW_BUFFER_HIT: Channel 1 
  ROW_BUFFER_MISS:       1943
  FULL:      12726
BERTI TO_L1: 1300607 TO_L2: 3008130 TO_L2_BC_MSHR: 1741520
BERTI AVG_LAT: 68.356 NUM_TRACK_LATENCY: 162086 NUM_CANT_TRACK_LATENCY: 0
BERTI CROSS_PAGE 879234 NO_CROSS_PAGE: 3429503
BERTI FOUND_BERTI: 2610818 NO_FOUND_BERTI: 15173699
BERTI AVERAGE_ISSUED: 4.31916
CPU 0 L1I Entangling prefetcher final stats
IP accesses: 6f71 1bdc40 2110 / 349949
IP misses: 25bf 96fc0 160 / 40289
IP hits: 0 0 0 / 0
IP late: 91b9 246e40 51 / 19692
IP wrong: b2 2c80 112 / 52610
miss rate: 0.115129
coverage: 0
coverage_late: 0.488769
accuracy: 0
accuracy_late: 0.272358
discarded: 0
evicts entangled j table: 0
evicts entangled k table: 6752
max bb size: 53
formats: 1802 0 5522 2594 1071 1982 0 
hist_lookups: 4268 4836 3807 3455 3309 2832 2181 1618 1292 1048 762 474 302 155 76 0 9 7502 
hist_lookups_evict: 0.0237305 %
hist_lookups_shortlat: 19.7807 %
bb_found_hist: 0 90087 37681 18205 9381 3958 1816 1679 508 117 6 105 39 104 27 0 3 0 0 0 0 7 0 0 0 0 0 0 0 0 0 3 3 0 3 0 0 0 0 0 0 0 0 0 0 0 0 0 0 0 0 0 0 3 0 0 0 0 0 0 0 0 0 0 
bb_found_summary: 309202 163735 1.88843
entangled_found_hist: 0 48617 35270 63561 13843 1865 873 0 
entangled_found_summary: 379775 164029 2.3153
bb_ent_found_hist: 0 126326 57405 38873 17303 8691 4434 3048 1487 74 0 176 144 112 17 0 3 0 0 0 0 26 0 0 0 0 0 0 0 0 0 6 3 0 6 0 0 0 0 0 0 0 0 0 0 0 0 0 0 0 0 0 0 3 0 0 0 0 0 0 0 0 0 0 
bb_ent_found_summary: 537521 258137 2.08231
