WARNING: physical memory size is smaller than virtual memory size.

*** ChampSim Multicore Out-of-Order Simulator ***
Warmup Instructions: 30000000
Simulation Instructions: 100000000
Number of CPUs: 1
Page size: 4096

BTB:
Basic BTB sets: 1024 ways: 8
Indirect:
history lengths: 0 0 10 16 27 44 60 96 109 219 449 487 714 1313 2146 3881 
ITTAGE tables: 64768 bytes;Region table: 240 bytes;IUM: 384 bytes;Total Storage= 65392 bytes;
RAS:
RAS size: 64
[LLC] INSTR Demand IPV: 1 2 2 1 4 Prefetch IPV: 1 2 1 1 4
[LLC] DATA  Demand IPV: 1 1 1 2 4 Prefetch IPV: 1 1 2 2 4
Berti Prefetcher
CPU 0 Entangling prefetcher
Off-chip DRAM Size: 8 GiB Channels: 2 Width: 64-bit Data Race: 6400 MT/s
[DUEL] Epoch ended. INSTR misses = 50, DATA misses = 46. Winner = DATA
[DUEL] Epoch ended. INSTR misses = 16, DATA misses = 16. Winner = INSTR
[DUEL] Epoch ended. INSTR misses = 0, DATA misses = 0. Winner = INSTR
[DUEL] Epoch ended. INSTR misses = 0, DATA misses = 0. Winner = INSTR
[DUEL] Epoch ended. INSTR misses = 0, DATA misses = 0. Winner = INSTR
[DUEL] Epoch ended. INSTR misses = 0, DATA misses = 0. Winner = INSTR
[DUEL] Epoch ended. INSTR misses = 16, DATA misses = 16. Winner = INSTR
[DUEL] Epoch ended. INSTR misses = 0, DATA misses = 0. Winner = INSTR
[DUEL] Epoch ended. INSTR misses = 0, DATA misses = 0. Winner = INSTR
[DUEL] Epoch ended. INSTR misses = 0, DATA misses = 1. Winner = INSTR
[DUEL] Epoch ended. INSTR misses = 0, DATA misses = 0. Winner = INSTR
[DUEL] Epoch ended. INSTR misses = 4, DATA misses = 3. Winner = DATA
Heartbeat CPU 0 instructions: 10000005 cycles: 1714784 heartbeat IPC: 5.832 cumulative IPC: 5.832 (Simulation time: 00 hr 00 min 20 sec)
[DUEL] Epoch ended. INSTR misses = 16, DATA misses = 18. Winner = INSTR
[DUEL] Epoch ended. INSTR misses = 17, DATA misses = 16. Winner = DATA
[DUEL] Epoch ended. INSTR misses = 111, DATA misses = 96. Winner = DATA
Heartbeat CPU 0 instructions: 20000005 cycles: 3431516 heartbeat IPC: 5.825 cumulative IPC: 5.828 (Simulation time: 00 hr 00 min 40 sec)
[DUEL] Epoch ended. INSTR misses = 21, DATA misses = 7. Winner = DATA
Heartbeat CPU 0 instructions: 30000004 cycles: 5098267 heartbeat IPC: 6 cumulative IPC: 5.884 (Simulation time: 00 hr 01 min 00 sec)
Warmup finished CPU 0 instructions: 30000004 cycles: 5098268 cumulative IPC: 5.884 (Simulation time: 00 hr 01 min 00 sec)
Warmup complete CPU 0 instructions: 30000004 cycles: 5098268 cumulative IPC: 5.884 (Simulation time: 00 hr 01 min 00 sec)
[DUEL] Epoch ended. INSTR misses = 0, DATA misses = 0. Winner = INSTR
Heartbeat CPU 0 instructions: 40000004 cycles: 6766028 heartbeat IPC: 5.996 cumulative IPC: 5.996 (Simulation time: 00 hr 01 min 22 sec)
Heartbeat CPU 0 instructions: 50000004 cycles: 8432695 heartbeat IPC: 6 cumulative IPC: 5.998 (Simulation time: 00 hr 01 min 44 sec)
[DUEL] Epoch ended. INSTR misses = 0, DATA misses = 0. Winner = INSTR
[DUEL] Epoch ended. INSTR misses = 0, DATA misses = 0. Winner = INSTR
*** Reached end of trace: (0, "../traces/secret_traces/crypto/crypto41.champsimtrace.xz")
[DUEL] Epoch ended. INSTR misses = 14, DATA misses = 6. Winner = DATA
[DUEL] Epoch ended. INSTR misses = 10, DATA misses = 11. Winner = INSTR
[DUEL] Epoch ended. INSTR misses = 0, DATA misses = 0. Winner = INSTR
[DUEL] Epoch ended. INSTR misses = 0, DATA misses = 0. Winner = INSTR
[DUEL] Epoch ended. INSTR misses = 0, DATA misses = 0. Winner = INSTR
[DUEL] Epoch ended. INSTR misses = 0, DATA misses = 1. Winner = INSTR
[DUEL] Epoch ended. INSTR misses = 0, DATA misses = 0. Winner = INSTR
Heartbeat CPU 0 instructions: 60000004 cycles: 10612707 heartbeat IPC: 4.587 cumulative IPC: 5.44 (Simulation time: 00 hr 02 min 09 sec)
[DUEL] Epoch ended. INSTR misses = 0, DATA misses = 3. Winner = INSTR
[DUEL] Epoch ended. INSTR misses = 0, DATA misses = 0. Winner = INSTR
[DUEL] Epoch ended. INSTR misses = 5, DATA misses = 2. Winner = DATA
[DUEL] Epoch ended. INSTR misses = 1, DATA misses = 4. Winner = INSTR
[DUEL] Epoch ended. INSTR misses = 0, DATA misses = 0. Winner = INSTR
[DUEL] Epoch ended. INSTR misses = 5, DATA misses = 1. Winner = DATA
Heartbeat CPU 0 instructions: 70000000 cycles: 12495940 heartbeat IPC: 5.31 cumulative IPC: 5.407 (Simulation time: 00 hr 02 min 33 sec)
[DUEL] Epoch ended. INSTR misses = 7, DATA misses = 11. Winner = INSTR
[DUEL] Epoch ended. INSTR misses = 4, DATA misses = 0. Winner = DATA
[DUEL] Epoch ended. INSTR misses = 40, DATA misses = 22. Winner = DATA
Heartbeat CPU 0 instructions: 80000000 cycles: 14721249 heartbeat IPC: 4.494 cumulative IPC: 5.196 (Simulation time: 00 hr 02 min 59 sec)
[DUEL] Epoch ended. INSTR misses = 13, DATA misses = 1. Winner = DATA
Heartbeat CPU 0 instructions: 90000000 cycles: 16402624 heartbeat IPC: 5.948 cumulative IPC: 5.308 (Simulation time: 00 hr 03 min 21 sec)
[DUEL] Epoch ended. INSTR misses = 3, DATA misses = 0. Winner = DATA
Heartbeat CPU 0 instructions: 100000000 cycles: 18070172 heartbeat IPC: 5.997 cumulative IPC: 5.396 (Simulation time: 00 hr 03 min 44 sec)
[DUEL] Epoch ended. INSTR misses = 0, DATA misses = 0. Winner = INSTR
Heartbeat CPU 0 instructions: 110000001 cycles: 19738024 heartbeat IPC: 5.996 cumulative IPC: 5.465 (Simulation time: 00 hr 04 min 06 sec)
[DUEL] Epoch ended. INSTR misses = 0, DATA misses = 0. Winner = INSTR
*** Reached end of trace: (0, "../traces/secret_traces/crypto/crypto41.champsimtrace.xz")
[DUEL] Epoch ended. INSTR misses = 8, DATA misses = 3. Winner = DATA
[DUEL] Epoch ended. INSTR misses = 2, DATA misses = 0. Winner = DATA
[DUEL] Epoch ended. INSTR misses = 0, DATA misses = 0. Winner = INSTR
[DUEL] Epoch ended. INSTR misses = 0, DATA misses = 0. Winner = INSTR
[DUEL] Epoch ended. INSTR misses = 0, DATA misses = 0. Winner = INSTR
[DUEL] Epoch ended. INSTR misses = 1, DATA misses = 0. Winner = DATA
[DUEL] Epoch ended. INSTR misses = 0, DATA misses = 0. Winner = INSTR
[DUEL] Epoch ended. INSTR misses = 2, DATA misses = 0. Winner = DATA
[DUEL] Epoch ended. INSTR misses = 0, DATA misses = 0. Winner = INSTR
[DUEL] Epoch ended. INSTR misses = 3, DATA misses = 0. Winner = DATA
[DUEL] Epoch ended. INSTR misses = 1, DATA misses = 6. Winner = INSTR
[DUEL] Epoch ended. INSTR misses = 0, DATA misses = 0. Winner = INSTR
Heartbeat CPU 0 instructions: 120000000 cycles: 21920683 heartbeat IPC: 4.582 cumulative IPC: 5.35 (Simulation time: 00 hr 04 min 32 sec)
[DUEL] Epoch ended. INSTR misses = 4, DATA misses = 2. Winner = DATA
Heartbeat CPU 0 instructions: 130000000 cycles: 23635665 heartbeat IPC: 5.831 cumulative IPC: 5.395 (Simulation time: 00 hr 04 min 54 sec)
Simulation finished CPU 0 instructions: 100000008 cycles: 18537399 cumulative IPC: 5.395 (Simulation time: 00 hr 04 min 54 sec)
Simulation complete CPU 0 instructions: 100000008 cycles: 18537399 cumulative IPC: 5.395 (Simulation time: 00 hr 04 min 54 sec)

ChampSim completed all CPUs

=== Simulation ===
CPU 0 runs ../traces/secret_traces/crypto/crypto41.champsimtrace.xz
Region of Interest Statistics

CPU 0 cumulative IPC: 5.395 instructions: 100000008 cycles: 18537399
CPU 0 Branch Prediction Accuracy: 99.65% MPKI: 0.4342 Average ROB Occupancy at Mispredict: 30.71
Branch type MPKI
BRANCH_DIRECT_JUMP: 0.0225
BRANCH_INDIRECT: 0.214
BRANCH_CONDITIONAL: 0.0929
BRANCH_DIRECT_CALL: 0.062
BRANCH_INDIRECT_CALL: 0.00828
BRANCH_RETURN: 0.0341

LLC TOTAL        ACCESS:     154077 HIT:     105298 MISS:      48779
LLC LOAD         ACCESS:      16447 HIT:       8335 MISS:       8112
LLC RFO          ACCESS:      45169 HIT:      32371 MISS:      12798
LLC PREFETCH     ACCESS:      38963 HIT:      19930 MISS:      19033
LLC WRITE        ACCESS:      52526 HIT:      44455 MISS:       8071
LLC TRANSLATION  ACCESS:        972 HIT:        207 MISS:        765
LLC PREFETCH REQUESTED:          0 ISSUED:          0 USEFUL:          0 USELESS:          0
LLC AVERAGE MISS LATENCY: 166.4 cycles
cpu0_DTLB TOTAL        ACCESS:   12320343 HIT:   12305077 MISS:      15266
cpu0_DTLB LOAD         ACCESS:   12320343 HIT:   12305077 MISS:      15266
cpu0_DTLB RFO          ACCESS:          0 HIT:          0 MISS:          0
cpu0_DTLB PREFETCH     ACCESS:          0 HIT:          0 MISS:          0
cpu0_DTLB WRITE        ACCESS:          0 HIT:          0 MISS:          0
cpu0_DTLB TRANSLATION  ACCESS:          0 HIT:          0 MISS:          0
cpu0_DTLB PREFETCH REQUESTED:          0 ISSUED:          0 USEFUL:          0 USELESS:          0
cpu0_DTLB AVERAGE MISS LATENCY: 11.8 cycles
cpu0_ITLB TOTAL        ACCESS:     298819 HIT:     292592 MISS:       6227
cpu0_ITLB LOAD         ACCESS:     298819 HIT:     292592 MISS:       6227
cpu0_ITLB RFO          ACCESS:          0 HIT:          0 MISS:          0
cpu0_ITLB PREFETCH     ACCESS:          0 HIT:          0 MISS:          0
cpu0_ITLB WRITE        ACCESS:          0 HIT:          0 MISS:          0
cpu0_ITLB TRANSLATION  ACCESS:          0 HIT:          0 MISS:          0
cpu0_ITLB PREFETCH REQUESTED:          0 ISSUED:          0 USEFUL:          0 USELESS:          0
cpu0_ITLB AVERAGE MISS LATENCY: 20.44 cycles
cpu0_L1D TOTAL        ACCESS:   19466112 HIT:   19249573 MISS:     216539
cpu0_L1D LOAD         ACCESS:    9324617 HIT:    9266829 MISS:      57788
cpu0_L1D RFO          ACCESS:          0 HIT:          0 MISS:          0
cpu0_L1D PREFETCH     ACCESS:     252992 HIT:     209242 MISS:      43750
cpu0_L1D WRITE        ACCESS:    9886463 HIT:    9772788 MISS:     113675
cpu0_L1D TRANSLATION  ACCESS:       2040 HIT:        714 MISS:       1326
cpu0_L1D PREFETCH REQUESTED:    1541618 ISSUED:     252992 USEFUL:       4038 USELESS:        474
cpu0_L1D AVERAGE MISS LATENCY: 32.5 cycles
cpu0_L1I TOTAL        ACCESS:     433968 HIT:     361575 MISS:      72393
cpu0_L1I LOAD         ACCESS:     142899 HIT:     124451 MISS:      18448
cpu0_L1I RFO          ACCESS:          0 HIT:          0 MISS:          0
cpu0_L1I PREFETCH     ACCESS:     291069 HIT:     237124 MISS:      53945
cpu0_L1I WRITE        ACCESS:          0 HIT:          0 MISS:          0
cpu0_L1I TRANSLATION  ACCESS:          0 HIT:          0 MISS:          0
cpu0_L1I PREFETCH REQUESTED:     438360 ISSUED:     291069 USEFUL:      28877 USELESS:      22245
cpu0_L1I AVERAGE MISS LATENCY: 29.97 cycles
cpu0_L2C TOTAL        ACCESS:     386476 HIT:     255747 MISS:     130729
cpu0_L2C LOAD         ACCESS:      50913 HIT:      30931 MISS:      19982
cpu0_L2C RFO          ACCESS:      49446 HIT:       4247 MISS:      45199
cpu0_L2C PREFETCH     ACCESS:     226955 HIT:     162379 MISS:      64576
cpu0_L2C WRITE        ACCESS:      57899 HIT:      57899 MISS:          0
cpu0_L2C TRANSLATION  ACCESS:       1263 HIT:        291 MISS:        972
cpu0_L2C PREFETCH REQUESTED:     140868 ISSUED:     137000 USEFUL:      10999 USELESS:       8806
cpu0_L2C AVERAGE MISS LATENCY: 75.73 cycles
cpu0_STLB TOTAL        ACCESS:      10211 HIT:       8325 MISS:       1886
cpu0_STLB LOAD         ACCESS:      10211 HIT:       8325 MISS:       1886
cpu0_STLB RFO          ACCESS:          0 HIT:          0 MISS:          0
cpu0_STLB PREFETCH     ACCESS:          0 HIT:          0 MISS:          0
cpu0_STLB WRITE        ACCESS:          0 HIT:          0 MISS:          0
cpu0_STLB TRANSLATION  ACCESS:          0 HIT:          0 MISS:          0
cpu0_STLB PREFETCH REQUESTED:          0 ISSUED:          0 USEFUL:          0 USELESS:          0
cpu0_STLB AVERAGE MISS LATENCY: 139.3 cycles

DRAM Statistics

Channel 0 RQ ROW_BUFFER_HIT:       9353
  ROW_BUFFER_MISS:      11336
 AVG DBUS CONGESTED CYCLE: 3.908
WQ ROW_BUFFER_HIT: Channel 0 
  ROW_BUFFER_MISS:       1008
  FULL:       7030

Channel 1 RQ ROW_BUFFER_HIT:       9131
  ROW_BUFFER_MISS:      10872
 AVG DBUS CONGESTED CYCLE: 3.889
WQ ROW_BUFFER_HIT: Channel 1 
  ROW_BUFFER_MISS:        929
  FULL:       6615
BERTI TO_L1: 795592 TO_L2: 1235284 TO_L2_BC_MSHR: 679032
BERTI AVG_LAT: 55.9307 NUM_TRACK_LATENCY: 74184 NUM_CANT_TRACK_LATENCY: 0
BERTI CROSS_PAGE 424665 NO_CROSS_PAGE: 1606211
BERTI FOUND_BERTI: 435080 NO_FOUND_BERTI: 12247995
BERTI AVERAGE_ISSUED: 4.14777
CPU 0 L1I Entangling prefetcher final stats
IP accesses: 6f71 1bdc40 887 / 143134
IP misses: 4e4d 139340 85 / 18683
IP hits: 0 0 0 / 0
IP late: 20b5 82d40 26 / 8823
IP wrong: f801 3e0040 45 / 22138
miss rate: 0.130529
coverage: 0
coverage_late: 0.472248
accuracy: 0
accuracy_late: 0.284972
discarded: 0
evicts entangled j table: 0
evicts entangled k table: 3040
max bb size: 53
formats: 697 0 2748 1396 590 1337 0 
hist_lookups: 2653 2651 1877 1680 1515 1249 984 710 480 402 335 227 134 81 46 0 0 3370 
hist_lookups_evict: 0 %
hist_lookups_shortlat: 18.3212 %
bb_found_hist: 0 35375 14775 7745 3271 1688 716 525 186 47 0 53 36 20 12 15 2 4 0 0 0 2 0 0 0 0 0 0 0 0 0 2 0 0 2 0 0 0 0 0 0 0 0 0 0 0 0 0 0 0 0 0 0 2 0 0 0 0 0 0 0 0 0 0 
bb_found_summary: 121612 64478 1.88611
entangled_found_hist: 0 19384 13147 25370 4610 646 201 0 
entangled_found_summary: 144664 63358 2.28328
bb_ent_found_hist: 0 48672 21765 14007 5623 3498 1543 1036 557 24 0 60 19 8 11 34 144 2 0 0 0 7 0 0 0 0 0 0 0 0 0 2 0 0 3 0 0 0 0 0 0 0 0 0 0 0 0 0 0 0 0 0 0 2 0 0 0 0 0 0 0 0 0 0 
bb_ent_found_summary: 199798 97017 2.05942
