WARNING: physical memory size is smaller than virtual memory size.

*** ChampSim Multicore Out-of-Order Simulator ***
Warmup Instructions: 30000000
Simulation Instructions: 100000000
Number of CPUs: 1
Page size: 4096

BTB:
Basic BTB sets: 1024 ways: 8
Indirect:
history lengths: 0 0 10 16 27 44 60 96 109 219 449 487 714 1313 2146 3881 
ITTAGE tables: 64768 bytes;Region table: 240 bytes;IUM: 384 bytes;Total Storage= 65392 bytes;
RAS:
RAS size: 64
[LLC] INSTR Demand IPV: 1 2 2 1 4 Prefetch IPV: 1 2 1 1 4
[LLC] DATA  Demand IPV: 1 1 1 2 4 Prefetch IPV: 1 1 2 2 4
Berti Prefetcher
CPU 0 Entangling prefetcher
Off-chip DRAM Size: 8 GiB Channels: 2 Width: 64-bit Data Race: 6400 MT/s
[DUEL] Epoch ended. INSTR misses = 55, DATA misses = 63. Winner = INSTR
[DUEL] Epoch ended. INSTR misses = 16, DATA misses = 17. Winner = INSTR
[DUEL] Epoch ended. INSTR misses = 0, DATA misses = 0. Winner = INSTR
[DUEL] Epoch ended. INSTR misses = 0, DATA misses = 0. Winner = INSTR
[DUEL] Epoch ended. INSTR misses = 0, DATA misses = 0. Winner = INSTR
[DUEL] Epoch ended. INSTR misses = 0, DATA misses = 0. Winner = INSTR
[DUEL] Epoch ended. INSTR misses = 16, DATA misses = 16. Winner = INSTR
[DUEL] Epoch ended. INSTR misses = 0, DATA misses = 0. Winner = INSTR
[DUEL] Epoch ended. INSTR misses = 0, DATA misses = 0. Winner = INSTR
[DUEL] Epoch ended. INSTR misses = 7, DATA misses = 3. Winner = DATA
[DUEL] Epoch ended. INSTR misses = 0, DATA misses = 0. Winner = INSTR
[DUEL] Epoch ended. INSTR misses = 0, DATA misses = 0. Winner = INSTR
[DUEL] Epoch ended. INSTR misses = 0, DATA misses = 0. Winner = INSTR
Heartbeat CPU 0 instructions: 10000005 cycles: 1729627 heartbeat IPC: 5.782 cumulative IPC: 5.782 (Simulation time: 00 hr 00 min 23 sec)
[DUEL] Epoch ended. INSTR misses = 1, DATA misses = 10. Winner = INSTR
[DUEL] Epoch ended. INSTR misses = 34, DATA misses = 19. Winner = DATA
[DUEL] Epoch ended. INSTR misses = 100, DATA misses = 106. Winner = INSTR
Heartbeat CPU 0 instructions: 20000000 cycles: 3465344 heartbeat IPC: 5.761 cumulative IPC: 5.771 (Simulation time: 00 hr 00 min 46 sec)
[DUEL] Epoch ended. INSTR misses = 26, DATA misses = 33. Winner = INSTR
Heartbeat CPU 0 instructions: 30000003 cycles: 5153046 heartbeat IPC: 5.925 cumulative IPC: 5.822 (Simulation time: 00 hr 01 min 09 sec)
Warmup finished CPU 0 instructions: 30000003 cycles: 5153047 cumulative IPC: 5.822 (Simulation time: 00 hr 01 min 09 sec)
Warmup complete CPU 0 instructions: 30000003 cycles: 5153047 cumulative IPC: 5.822 (Simulation time: 00 hr 01 min 09 sec)
[DUEL] Epoch ended. INSTR misses = 0, DATA misses = 1. Winner = INSTR
Heartbeat CPU 0 instructions: 40000001 cycles: 6859636 heartbeat IPC: 5.86 cumulative IPC: 5.86 (Simulation time: 00 hr 01 min 35 sec)
[DUEL] Epoch ended. INSTR misses = 0, DATA misses = 0. Winner = INSTR
*** Reached end of trace: (0, "../traces/secret_traces/crypto/crypto87.champsimtrace.xz")
[DUEL] Epoch ended. INSTR misses = 8, DATA misses = 19. Winner = INSTR
[DUEL] Epoch ended. INSTR misses = 26, DATA misses = 28. Winner = INSTR
[DUEL] Epoch ended. INSTR misses = 0, DATA misses = 0. Winner = INSTR
[DUEL] Epoch ended. INSTR misses = 0, DATA misses = 0. Winner = INSTR
[DUEL] Epoch ended. INSTR misses = 0, DATA misses = 0. Winner = INSTR
[DUEL] Epoch ended. INSTR misses = 0, DATA misses = 0. Winner = INSTR
[DUEL] Epoch ended. INSTR misses = 0, DATA misses = 0. Winner = INSTR
[DUEL] Epoch ended. INSTR misses = 0, DATA misses = 0. Winner = INSTR
Heartbeat CPU 0 instructions: 50000001 cycles: 9047207 heartbeat IPC: 4.571 cumulative IPC: 5.136 (Simulation time: 00 hr 02 min 03 sec)
[DUEL] Epoch ended. INSTR misses = 0, DATA misses = 0. Winner = INSTR
[DUEL] Epoch ended. INSTR misses = 0, DATA misses = 3. Winner = INSTR
[DUEL] Epoch ended. INSTR misses = 4, DATA misses = 0. Winner = DATA
[DUEL] Epoch ended. INSTR misses = 3, DATA misses = 0. Winner = DATA
[DUEL] Epoch ended. INSTR misses = 0, DATA misses = 0. Winner = INSTR
[DUEL] Epoch ended. INSTR misses = 0, DATA misses = 0. Winner = INSTR
Heartbeat CPU 0 instructions: 60000008 cycles: 11015426 heartbeat IPC: 5.081 cumulative IPC: 5.117 (Simulation time: 00 hr 02 min 31 sec)
[DUEL] Epoch ended. INSTR misses = 1, DATA misses = 3. Winner = INSTR
[DUEL] Epoch ended. INSTR misses = 12, DATA misses = 6. Winner = DATA
[DUEL] Epoch ended. INSTR misses = 33, DATA misses = 49. Winner = INSTR
Heartbeat CPU 0 instructions: 70000010 cycles: 13360814 heartbeat IPC: 4.264 cumulative IPC: 4.873 (Simulation time: 00 hr 03 min 01 sec)
[DUEL] Epoch ended. INSTR misses = 7, DATA misses = 13. Winner = INSTR
Heartbeat CPU 0 instructions: 80000010 cycles: 15077459 heartbeat IPC: 5.825 cumulative IPC: 5.038 (Simulation time: 00 hr 03 min 27 sec)
[DUEL] Epoch ended. INSTR misses = 0, DATA misses = 0. Winner = INSTR
Heartbeat CPU 0 instructions: 90000004 cycles: 16783352 heartbeat IPC: 5.862 cumulative IPC: 5.159 (Simulation time: 00 hr 03 min 54 sec)
[DUEL] Epoch ended. INSTR misses = 0, DATA misses = 0. Winner = INSTR
*** Reached end of trace: (0, "../traces/secret_traces/crypto/crypto87.champsimtrace.xz")
[DUEL] Epoch ended. INSTR misses = 5, DATA misses = 16. Winner = INSTR
[DUEL] Epoch ended. INSTR misses = 28, DATA misses = 27. Winner = DATA
[DUEL] Epoch ended. INSTR misses = 0, DATA misses = 0. Winner = INSTR
[DUEL] Epoch ended. INSTR misses = 0, DATA misses = 0. Winner = INSTR
[DUEL] Epoch ended. INSTR misses = 0, DATA misses = 0. Winner = INSTR
[DUEL] Epoch ended. INSTR misses = 0, DATA misses = 0. Winner = INSTR
[DUEL] Epoch ended. INSTR misses = 0, DATA misses = 0. Winner = INSTR
[DUEL] Epoch ended. INSTR misses = 1, DATA misses = 0. Winner = DATA
[DUEL] Epoch ended. INSTR misses = 0, DATA misses = 0. Winner = INSTR
[DUEL] Epoch ended. INSTR misses = 0, DATA misses = 4. Winner = INSTR
[DUEL] Epoch ended. INSTR misses = 4, DATA misses = 0. Winner = DATA
[DUEL] Epoch ended. INSTR misses = 2, DATA misses = 0. Winner = DATA
[DUEL] Epoch ended. INSTR misses = 0, DATA misses = 0. Winner = INSTR
Heartbeat CPU 0 instructions: 100000003 cycles: 19038307 heartbeat IPC: 4.435 cumulative IPC: 5.041 (Simulation time: 00 hr 04 min 23 sec)
[DUEL] Epoch ended. INSTR misses = 0, DATA misses = 0. Winner = INSTR
Heartbeat CPU 0 instructions: 110000001 cycles: 20794398 heartbeat IPC: 5.694 cumulative IPC: 5.115 (Simulation time: 00 hr 04 min 49 sec)
[DUEL] Epoch ended. INSTR misses = 1, DATA misses = 4. Winner = INSTR
[DUEL] Epoch ended. INSTR misses = 16, DATA misses = 5. Winner = DATA
[DUEL] Epoch ended. INSTR misses = 27, DATA misses = 40. Winner = INSTR
Heartbeat CPU 0 instructions: 120000006 cycles: 23023274 heartbeat IPC: 4.487 cumulative IPC: 5.036 (Simulation time: 00 hr 05 min 19 sec)
[DUEL] Epoch ended. INSTR misses = 6, DATA misses = 10. Winner = INSTR
Heartbeat CPU 0 instructions: 130000000 cycles: 24741692 heartbeat IPC: 5.819 cumulative IPC: 5.105 (Simulation time: 00 hr 05 min 45 sec)
Simulation finished CPU 0 instructions: 100000001 cycles: 19588648 cumulative IPC: 5.105 (Simulation time: 00 hr 05 min 45 sec)
Simulation complete CPU 0 instructions: 100000001 cycles: 19588648 cumulative IPC: 5.105 (Simulation time: 00 hr 05 min 45 sec)

ChampSim completed all CPUs

=== Simulation ===
CPU 0 runs ../traces/secret_traces/crypto/crypto87.champsimtrace.xz
Region of Interest Statistics

CPU 0 cumulative IPC: 5.105 instructions: 100000001 cycles: 19588648
CPU 0 Branch Prediction Accuracy: 99.68% MPKI: 0.5659 Average ROB Occupancy at Mispredict: 31.72
Branch type MPKI
BRANCH_DIRECT_JUMP: 0.0297
BRANCH_INDIRECT: 0.279
BRANCH_CONDITIONAL: 0.111
BRANCH_DIRECT_CALL: 0.0874
BRANCH_INDIRECT_CALL: 0.0109
BRANCH_RETURN: 0.0478

LLC TOTAL        ACCESS:     232711 HIT:     161889 MISS:      70822
LLC LOAD         ACCESS:      22607 HIT:      12241 MISS:      10366
LLC RFO          ACCESS:      71096 HIT:      50648 MISS:      20448
LLC PREFETCH     ACCESS:      58829 HIT:      30077 MISS:      28752
LLC WRITE        ACCESS:      78796 HIT:      68625 MISS:      10171
LLC TRANSLATION  ACCESS:       1383 HIT:        298 MISS:       1085
LLC PREFETCH REQUESTED:          0 ISSUED:          0 USEFUL:          0 USELESS:          0
LLC AVERAGE MISS LATENCY: 190.7 cycles
cpu0_DTLB TOTAL        ACCESS:   10988246 HIT:   10965859 MISS:      22387
cpu0_DTLB LOAD         ACCESS:   10988246 HIT:   10965859 MISS:      22387
cpu0_DTLB RFO          ACCESS:          0 HIT:          0 MISS:          0
cpu0_DTLB PREFETCH     ACCESS:          0 HIT:          0 MISS:          0
cpu0_DTLB WRITE        ACCESS:          0 HIT:          0 MISS:          0
cpu0_DTLB TRANSLATION  ACCESS:          0 HIT:          0 MISS:          0
cpu0_DTLB PREFETCH REQUESTED:          0 ISSUED:          0 USEFUL:          0 USELESS:          0
cpu0_DTLB AVERAGE MISS LATENCY: 11.4 cycles
cpu0_ITLB TOTAL        ACCESS:   11429159 HIT:   11421113 MISS:       8046
cpu0_ITLB LOAD         ACCESS:   11429159 HIT:   11421113 MISS:       8046
cpu0_ITLB RFO          ACCESS:          0 HIT:          0 MISS:          0
cpu0_ITLB PREFETCH     ACCESS:          0 HIT:          0 MISS:          0
cpu0_ITLB WRITE        ACCESS:          0 HIT:          0 MISS:          0
cpu0_ITLB TRANSLATION  ACCESS:          0 HIT:          0 MISS:          0
cpu0_ITLB PREFETCH REQUESTED:          0 ISSUED:          0 USEFUL:          0 USELESS:          0
cpu0_ITLB AVERAGE MISS LATENCY: 20.17 cycles
cpu0_L1D TOTAL        ACCESS:   17968733 HIT:   17638548 MISS:     330185
cpu0_L1D LOAD         ACCESS:    7127973 HIT:    7042261 MISS:      85712
cpu0_L1D RFO          ACCESS:          0 HIT:          0 MISS:          0
cpu0_L1D PREFETCH     ACCESS:     269088 HIT:     214264 MISS:      54824
cpu0_L1D WRITE        ACCESS:   10568887 HIT:   10381034 MISS:     187853
cpu0_L1D TRANSLATION  ACCESS:       2785 HIT:        989 MISS:       1796
cpu0_L1D PREFETCH REQUESTED:    2223090 ISSUED:     269088 USEFUL:       7324 USELESS:        664
cpu0_L1D AVERAGE MISS LATENCY: 35.35 cycles
cpu0_L1I TOTAL        ACCESS:   17178236 HIT:   17082070 MISS:      96166
cpu0_L1I LOAD         ACCESS:    3622691 HIT:    3598888 MISS:      23803
cpu0_L1I RFO          ACCESS:          0 HIT:          0 MISS:          0
cpu0_L1I PREFETCH     ACCESS:   13555545 HIT:   13483182 MISS:      72363
cpu0_L1I WRITE        ACCESS:          0 HIT:          0 MISS:          0
cpu0_L1I TRANSLATION  ACCESS:          0 HIT:          0 MISS:          0
cpu0_L1I PREFETCH REQUESTED:   14136015 ISSUED:   13555558 USEFUL:      39571 USELESS:      29362
cpu0_L1I AVERAGE MISS LATENCY: 31.21 cycles
cpu0_L2C TOTAL        ACCESS:     529940 HIT:     330391 MISS:     199549
cpu0_L2C LOAD         ACCESS:      70301 HIT:      41977 MISS:      28324
cpu0_L2C RFO          ACCESS:      77673 HIT:       6538 MISS:      71135
cpu0_L2C PREFETCH     ACCESS:     291529 HIT:     192822 MISS:      98707
cpu0_L2C WRITE        ACCESS:      88709 HIT:      88709 MISS:          0
cpu0_L2C TRANSLATION  ACCESS:       1728 HIT:        345 MISS:       1383
cpu0_L2C PREFETCH REQUESTED:     184059 ISSUED:     177771 USEFUL:      16293 USELESS:      13635
cpu0_L2C AVERAGE MISS LATENCY: 80.13 cycles
cpu0_STLB TOTAL        ACCESS:      13586 HIT:      11040 MISS:       2546
cpu0_STLB LOAD         ACCESS:      13586 HIT:      11040 MISS:       2546
cpu0_STLB RFO          ACCESS:          0 HIT:          0 MISS:          0
cpu0_STLB PREFETCH     ACCESS:          0 HIT:          0 MISS:          0
cpu0_STLB WRITE        ACCESS:          0 HIT:          0 MISS:          0
cpu0_STLB TRANSLATION  ACCESS:          0 HIT:          0 MISS:          0
cpu0_STLB PREFETCH REQUESTED:          0 ISSUED:          0 USEFUL:          0 USELESS:          0
cpu0_STLB AVERAGE MISS LATENCY: 142.6 cycles

DRAM Statistics

Channel 0 RQ ROW_BUFFER_HIT:      14187
  ROW_BUFFER_MISS:      16798
 AVG DBUS CONGESTED CYCLE: 3.918
WQ ROW_BUFFER_HIT: Channel 0 
  ROW_BUFFER_MISS:       1348
  FULL:      10477

Channel 1 RQ ROW_BUFFER_HIT:      13453
  ROW_BUFFER_MISS:      16191
 AVG DBUS CONGESTED CYCLE: 3.891
WQ ROW_BUFFER_HIT: Channel 1 
  ROW_BUFFER_MISS:       1273
  FULL:       9673
BERTI TO_L1: 793284 TO_L2: 1900591 TO_L2_BC_MSHR: 1201468
BERTI AVG_LAT: 68.8774 NUM_TRACK_LATENCY: 94322 NUM_CANT_TRACK_LATENCY: 0
BERTI CROSS_PAGE 550379 NO_CROSS_PAGE: 2143496
BERTI FOUND_BERTI: 1080993 NO_FOUND_BERTI: 8675484
BERTI AVERAGE_ISSUED: 4.0739
CPU 0 L1I Entangling prefetcher final stats
IP accesses: 3e6e f9b80 157600 / 3623660
IP misses: 7b00 1ec000 117 / 24772
IP hits: 0 0 0 / 0
IP late: 20a3 828c0 29 / 11564
IP wrong: f7ed 3dfb40 62 / 29239
miss rate: 0.00683619
coverage: 0
coverage_late: 0.466818
accuracy: 0
accuracy_late: 0.283411
discarded: 0
evicts entangled j table: 0
evicts entangled k table: 3979
max bb size: 53
formats: 926 0 3591 1705 721 1625 0 
hist_lookups: 3104 3424 2458 2219 1960 1608 1204 932 701 554 455 298 184 106 51 0 3 4047 
hist_lookups_evict: 0.0128712 %
hist_lookups_shortlat: 17.3632 %
bb_found_hist: 0 1185112 376365 324153 88990 2294 1006 728 263 49 2 66 60 46 15 20 2 0 0 0 1 4 0 0 0 0 0 0 0 0 0 2 2 0 2 0 0 0 0 0 0 0 0 0 0 0 0 0 0 0 0 0 0 1 0 0 0 0 0 0 0 0 0 0 
bb_found_summary: 3294365 1979183 1.66451
entangled_found_hist: 0 440514 451620 954368 25589 8646 171 0 
entangled_found_summary: 4353470 1880908 2.31456
bb_ent_found_hist: 0 1748471 246449 706571 164479 70671 2022 161206 936 30 0 165 84 16 17 47 137 0 0 0 1 28 0 0 0 0 0 0 0 0 0 2 2 0 2 0 0 0 0 0 0 0 0 0 0 0 0 0 0 0 0 0 0 1 0 0 0 0 0 0 0 0 0 0 
bb_ent_found_summary: 6527706 3101337 2.10481
