WARNING: physical memory size is smaller than virtual memory size.

*** ChampSim Multicore Out-of-Order Simulator ***
Warmup Instructions: 30000000
Simulation Instructions: 100000000
Number of CPUs: 1
Page size: 4096

BTB:
Basic BTB sets: 1024 ways: 8
Indirect:
history lengths: 0 0 10 16 27 44 60 96 109 219 449 487 714 1313 2146 3881 
ITTAGE tables: 64768 bytes;Region table: 240 bytes;IUM: 384 bytes;Total Storage= 65392 bytes;
RAS:
RAS size: 64
[LLC] INSTR Demand IPV: 1 2 2 1 4 Prefetch IPV: 1 2 1 1 4
[LLC] DATA  Demand IPV: 1 1 1 2 4 Prefetch IPV: 1 1 2 2 4
Berti Prefetcher
CPU 0 Entangling prefetcher
Off-chip DRAM Size: 8 GiB Channels: 2 Width: 64-bit Data Race: 6400 MT/s
[DUEL] Epoch ended. INSTR misses = 55, DATA misses = 63. Winner = INSTR
[DUEL] Epoch ended. INSTR misses = 0, DATA misses = 1. Winner = INSTR
[DUEL] Epoch ended. INSTR misses = 0, DATA misses = 0. Winner = INSTR
[DUEL] Epoch ended. INSTR misses = 0, DATA misses = 0. Winner = INSTR
[DUEL] Epoch ended. INSTR misses = 0, DATA misses = 0. Winner = INSTR
[DUEL] Epoch ended. INSTR misses = 0, DATA misses = 0. Winner = INSTR
[DUEL] Epoch ended. INSTR misses = 16, DATA misses = 16. Winner = INSTR
[DUEL] Epoch ended. INSTR misses = 0, DATA misses = 0. Winner = INSTR
[DUEL] Epoch ended. INSTR misses = 0, DATA misses = 0. Winner = INSTR
[DUEL] Epoch ended. INSTR misses = 1, DATA misses = 4. Winner = INSTR
[DUEL] Epoch ended. INSTR misses = 5, DATA misses = 14. Winner = INSTR
[DUEL] Epoch ended. INSTR misses = 1, DATA misses = 0. Winner = DATA
Heartbeat CPU 0 instructions: 10000010 cycles: 1714833 heartbeat IPC: 5.831 cumulative IPC: 5.831 (Simulation time: 00 hr 00 min 21 sec)
[DUEL] Epoch ended. INSTR misses = 16, DATA misses = 19. Winner = INSTR
*** Reached end of trace: (0, "../traces/secret_traces/crypto/crypto9.champsimtrace.xz")
[DUEL] Epoch ended. INSTR misses = 6, DATA misses = 0. Winner = DATA
[DUEL] Epoch ended. INSTR misses = 0, DATA misses = 1. Winner = INSTR
[DUEL] Epoch ended. INSTR misses = 0, DATA misses = 0. Winner = INSTR
[DUEL] Epoch ended. INSTR misses = 0, DATA misses = 0. Winner = INSTR
[DUEL] Epoch ended. INSTR misses = 0, DATA misses = 0. Winner = INSTR
[DUEL] Epoch ended. INSTR misses = 0, DATA misses = 0. Winner = INSTR
[DUEL] Epoch ended. INSTR misses = 0, DATA misses = 0. Winner = INSTR
[DUEL] Epoch ended. INSTR misses = 0, DATA misses = 0. Winner = INSTR
[DUEL] Epoch ended. INSTR misses = 0, DATA misses = 0. Winner = INSTR
[DUEL] Epoch ended. INSTR misses = 0, DATA misses = 0. Winner = INSTR
[DUEL] Epoch ended. INSTR misses = 0, DATA misses = 0. Winner = INSTR
[DUEL] Epoch ended. INSTR misses = 0, DATA misses = 1. Winner = INSTR
Heartbeat CPU 0 instructions: 20000001 cycles: 3432060 heartbeat IPC: 5.823 cumulative IPC: 5.827 (Simulation time: 00 hr 00 min 41 sec)
[DUEL] Epoch ended. INSTR misses = 0, DATA misses = 0. Winner = INSTR
Heartbeat CPU 0 instructions: 30000005 cycles: 5100489 heartbeat IPC: 5.994 cumulative IPC: 5.882 (Simulation time: 00 hr 01 min 01 sec)
Warmup finished CPU 0 instructions: 30000005 cycles: 5100490 cumulative IPC: 5.882 (Simulation time: 00 hr 01 min 01 sec)
Warmup complete CPU 0 instructions: 30000005 cycles: 5100490 cumulative IPC: 5.882 (Simulation time: 00 hr 01 min 01 sec)
[DUEL] Epoch ended. INSTR misses = 0, DATA misses = 0. Winner = INSTR
*** Reached end of trace: (0, "../traces/secret_traces/crypto/crypto9.champsimtrace.xz")
[DUEL] Epoch ended. INSTR misses = 0, DATA misses = 3. Winner = INSTR
[DUEL] Epoch ended. INSTR misses = 1, DATA misses = 0. Winner = DATA
[DUEL] Epoch ended. INSTR misses = 0, DATA misses = 0. Winner = INSTR
[DUEL] Epoch ended. INSTR misses = 0, DATA misses = 0. Winner = INSTR
[DUEL] Epoch ended. INSTR misses = 0, DATA misses = 0. Winner = INSTR
[DUEL] Epoch ended. INSTR misses = 0, DATA misses = 0. Winner = INSTR
[DUEL] Epoch ended. INSTR misses = 0, DATA misses = 0. Winner = INSTR
[DUEL] Epoch ended. INSTR misses = 0, DATA misses = 0. Winner = INSTR
[DUEL] Epoch ended. INSTR misses = 0, DATA misses = 0. Winner = INSTR
[DUEL] Epoch ended. INSTR misses = 0, DATA misses = 0. Winner = INSTR
[DUEL] Epoch ended. INSTR misses = 0, DATA misses = 0. Winner = INSTR
[DUEL] Epoch ended. INSTR misses = 0, DATA misses = 0. Winner = INSTR
[DUEL] Epoch ended. INSTR misses = 0, DATA misses = 0. Winner = INSTR
Heartbeat CPU 0 instructions: 40000000 cycles: 7290324 heartbeat IPC: 4.567 cumulative IPC: 4.567 (Simulation time: 00 hr 01 min 30 sec)
[DUEL] Epoch ended. INSTR misses = 0, DATA misses = 0. Winner = INSTR
*** Reached end of trace: (0, "../traces/secret_traces/crypto/crypto9.champsimtrace.xz")
[DUEL] Epoch ended. INSTR misses = 0, DATA misses = 0. Winner = INSTR
[DUEL] Epoch ended. INSTR misses = 0, DATA misses = 0. Winner = INSTR
Heartbeat CPU 0 instructions: 50000001 cycles: 9297373 heartbeat IPC: 4.982 cumulative IPC: 4.765 (Simulation time: 00 hr 01 min 59 sec)
[DUEL] Epoch ended. INSTR misses = 0, DATA misses = 0. Winner = INSTR
[DUEL] Epoch ended. INSTR misses = 0, DATA misses = 0. Winner = INSTR
[DUEL] Epoch ended. INSTR misses = 0, DATA misses = 0. Winner = INSTR
[DUEL] Epoch ended. INSTR misses = 0, DATA misses = 0. Winner = INSTR
[DUEL] Epoch ended. INSTR misses = 0, DATA misses = 0. Winner = INSTR
[DUEL] Epoch ended. INSTR misses = 0, DATA misses = 0. Winner = INSTR
[DUEL] Epoch ended. INSTR misses = 0, DATA misses = 0. Winner = INSTR
[DUEL] Epoch ended. INSTR misses = 0, DATA misses = 0. Winner = INSTR
[DUEL] Epoch ended. INSTR misses = 0, DATA misses = 0. Winner = INSTR
[DUEL] Epoch ended. INSTR misses = 0, DATA misses = 1. Winner = INSTR
[DUEL] Epoch ended. INSTR misses = 0, DATA misses = 0. Winner = INSTR
Heartbeat CPU 0 instructions: 60000001 cycles: 11322845 heartbeat IPC: 4.937 cumulative IPC: 4.821 (Simulation time: 00 hr 02 min 28 sec)
[DUEL] Epoch ended. INSTR misses = 0, DATA misses = 0. Winner = INSTR
*** Reached end of trace: (0, "../traces/secret_traces/crypto/crypto9.champsimtrace.xz")
[DUEL] Epoch ended. INSTR misses = 0, DATA misses = 0. Winner = INSTR
[DUEL] Epoch ended. INSTR misses = 0, DATA misses = 0. Winner = INSTR
[DUEL] Epoch ended. INSTR misses = 0, DATA misses = 0. Winner = INSTR
[DUEL] Epoch ended. INSTR misses = 0, DATA misses = 0. Winner = INSTR
[DUEL] Epoch ended. INSTR misses = 0, DATA misses = 0. Winner = INSTR
[DUEL] Epoch ended. INSTR misses = 0, DATA misses = 0. Winner = INSTR
[DUEL] Epoch ended. INSTR misses = 0, DATA misses = 0. Winner = INSTR
[DUEL] Epoch ended. INSTR misses = 0, DATA misses = 0. Winner = INSTR
[DUEL] Epoch ended. INSTR misses = 0, DATA misses = 0. Winner = INSTR
[DUEL] Epoch ended. INSTR misses = 0, DATA misses = 0. Winner = INSTR
[DUEL] Epoch ended. INSTR misses = 0, DATA misses = 0. Winner = INSTR
[DUEL] Epoch ended. INSTR misses = 0, DATA misses = 0. Winner = INSTR
Heartbeat CPU 0 instructions: 70000001 cycles: 13442696 heartbeat IPC: 4.717 cumulative IPC: 4.795 (Simulation time: 00 hr 02 min 57 sec)
[DUEL] Epoch ended. INSTR misses = 0, DATA misses = 0. Winner = INSTR
Heartbeat CPU 0 instructions: 80000000 cycles: 15341908 heartbeat IPC: 5.265 cumulative IPC: 4.882 (Simulation time: 00 hr 03 min 25 sec)
[DUEL] Epoch ended. INSTR misses = 0, DATA misses = 0. Winner = INSTR
*** Reached end of trace: (0, "../traces/secret_traces/crypto/crypto9.champsimtrace.xz")
[DUEL] Epoch ended. INSTR misses = 0, DATA misses = 0. Winner = INSTR
[DUEL] Epoch ended. INSTR misses = 0, DATA misses = 0. Winner = INSTR
[DUEL] Epoch ended. INSTR misses = 0, DATA misses = 0. Winner = INSTR
[DUEL] Epoch ended. INSTR misses = 0, DATA misses = 0. Winner = INSTR
[DUEL] Epoch ended. INSTR misses = 0, DATA misses = 0. Winner = INSTR
[DUEL] Epoch ended. INSTR misses = 0, DATA misses = 0. Winner = INSTR
[DUEL] Epoch ended. INSTR misses = 0, DATA misses = 0. Winner = INSTR
[DUEL] Epoch ended. INSTR misses = 0, DATA misses = 0. Winner = INSTR
[DUEL] Epoch ended. INSTR misses = 0, DATA misses = 0. Winner = INSTR
[DUEL] Epoch ended. INSTR misses = 0, DATA misses = 0. Winner = INSTR
[DUEL] Epoch ended. INSTR misses = 0, DATA misses = 0. Winner = INSTR
[DUEL] Epoch ended. INSTR misses = 0, DATA misses = 0. Winner = INSTR
[DUEL] Epoch ended. INSTR misses = 0, DATA misses = 0. Winner = INSTR
Heartbeat CPU 0 instructions: 90000002 cycles: 17478398 heartbeat IPC: 4.681 cumulative IPC: 4.847 (Simulation time: 00 hr 03 min 55 sec)
[DUEL] Epoch ended. INSTR misses = 0, DATA misses = 0. Winner = INSTR
*** Reached end of trace: (0, "../traces/secret_traces/crypto/crypto9.champsimtrace.xz")
[DUEL] Epoch ended. INSTR misses = 0, DATA misses = 0. Winner = INSTR
[DUEL] Epoch ended. INSTR misses = 0, DATA misses = 0. Winner = INSTR
[DUEL] Epoch ended. INSTR misses = 0, DATA misses = 0. Winner = INSTR
Heartbeat CPU 0 instructions: 100000007 cycles: 19488338 heartbeat IPC: 4.975 cumulative IPC: 4.865 (Simulation time: 00 hr 04 min 23 sec)
[DUEL] Epoch ended. INSTR misses = 0, DATA misses = 0. Winner = INSTR
[DUEL] Epoch ended. INSTR misses = 0, DATA misses = 0. Winner = INSTR
[DUEL] Epoch ended. INSTR misses = 0, DATA misses = 0. Winner = INSTR
[DUEL] Epoch ended. INSTR misses = 0, DATA misses = 0. Winner = INSTR
[DUEL] Epoch ended. INSTR misses = 0, DATA misses = 0. Winner = INSTR
[DUEL] Epoch ended. INSTR misses = 0, DATA misses = 0. Winner = INSTR
[DUEL] Epoch ended. INSTR misses = 0, DATA misses = 0. Winner = INSTR
[DUEL] Epoch ended. INSTR misses = 0, DATA misses = 0. Winner = INSTR
[DUEL] Epoch ended. INSTR misses = 0, DATA misses = 0. Winner = INSTR
[DUEL] Epoch ended. INSTR misses = 0, DATA misses = 0. Winner = INSTR
Heartbeat CPU 0 instructions: 110000001 cycles: 21488063 heartbeat IPC: 5.001 cumulative IPC: 4.882 (Simulation time: 00 hr 04 min 52 sec)
[DUEL] Epoch ended. INSTR misses = 0, DATA misses = 0. Winner = INSTR
*** Reached end of trace: (0, "../traces/secret_traces/crypto/crypto9.champsimtrace.xz")
[DUEL] Epoch ended. INSTR misses = 0, DATA misses = 0. Winner = INSTR
[DUEL] Epoch ended. INSTR misses = 0, DATA misses = 0. Winner = INSTR
[DUEL] Epoch ended. INSTR misses = 0, DATA misses = 0. Winner = INSTR
[DUEL] Epoch ended. INSTR misses = 0, DATA misses = 0. Winner = INSTR
[DUEL] Epoch ended. INSTR misses = 0, DATA misses = 0. Winner = INSTR
[DUEL] Epoch ended. INSTR misses = 0, DATA misses = 0. Winner = INSTR
[DUEL] Epoch ended. INSTR misses = 0, DATA misses = 0. Winner = INSTR
[DUEL] Epoch ended. INSTR misses = 0, DATA misses = 0. Winner = INSTR
[DUEL] Epoch ended. INSTR misses = 0, DATA misses = 0. Winner = INSTR
[DUEL] Epoch ended. INSTR misses = 0, DATA misses = 0. Winner = INSTR
[DUEL] Epoch ended. INSTR misses = 0, DATA misses = 0. Winner = INSTR
[DUEL] Epoch ended. INSTR misses = 0, DATA misses = 0. Winner = INSTR
Heartbeat CPU 0 instructions: 120000001 cycles: 23597234 heartbeat IPC: 4.741 cumulative IPC: 4.866 (Simulation time: 00 hr 05 min 22 sec)
[DUEL] Epoch ended. INSTR misses = 0, DATA misses = 0. Winner = INSTR
Heartbeat CPU 0 instructions: 130000010 cycles: 25495159 heartbeat IPC: 5.269 cumulative IPC: 4.903 (Simulation time: 00 hr 05 min 50 sec)
Simulation finished CPU 0 instructions: 100000005 cycles: 20394670 cumulative IPC: 4.903 (Simulation time: 00 hr 05 min 50 sec)
Simulation complete CPU 0 instructions: 100000005 cycles: 20394670 cumulative IPC: 4.903 (Simulation time: 00 hr 05 min 50 sec)

ChampSim completed all CPUs

=== Simulation ===
CPU 0 runs ../traces/secret_traces/crypto/crypto9.champsimtrace.xz
Region of Interest Statistics

CPU 0 cumulative IPC: 4.903 instructions: 100000005 cycles: 20394670
CPU 0 Branch Prediction Accuracy: 98.09% MPKI: 0.8001 Average ROB Occupancy at Mispredict: 41.12
Branch type MPKI
BRANCH_DIRECT_JUMP: 0.043
BRANCH_INDIRECT: 0.465
BRANCH_CONDITIONAL: 0.0832
BRANCH_DIRECT_CALL: 0.124
BRANCH_INDIRECT_CALL: 0.017
BRANCH_RETURN: 0.0674

LLC TOTAL        ACCESS:     196027 HIT:     194394 MISS:       1633
LLC LOAD         ACCESS:      26280 HIT:      26268 MISS:         12
LLC RFO          ACCESS:      54787 HIT:      54781 MISS:          6
LLC PREFETCH     ACCESS:      53043 HIT:      51618 MISS:       1425
LLC WRITE        ACCESS:      60958 HIT:      60953 MISS:          5
LLC TRANSLATION  ACCESS:        959 HIT:        774 MISS:        185
LLC PREFETCH REQUESTED:          0 ISSUED:          0 USEFUL:          0 USELESS:          0
LLC AVERAGE MISS LATENCY: 160.7 cycles
cpu0_DTLB TOTAL        ACCESS:   14815057 HIT:   14792694 MISS:      22363
cpu0_DTLB LOAD         ACCESS:   14815057 HIT:   14792694 MISS:      22363
cpu0_DTLB RFO          ACCESS:          0 HIT:          0 MISS:          0
cpu0_DTLB PREFETCH     ACCESS:          0 HIT:          0 MISS:          0
cpu0_DTLB WRITE        ACCESS:          0 HIT:          0 MISS:          0
cpu0_DTLB TRANSLATION  ACCESS:          0 HIT:          0 MISS:          0
cpu0_DTLB PREFETCH REQUESTED:          0 ISSUED:          0 USEFUL:          0 USELESS:          0
cpu0_DTLB AVERAGE MISS LATENCY: 5.839 cycles
cpu0_ITLB TOTAL        ACCESS:     597084 HIT:     585533 MISS:      11551
cpu0_ITLB LOAD         ACCESS:     597084 HIT:     585533 MISS:      11551
cpu0_ITLB RFO          ACCESS:          0 HIT:          0 MISS:          0
cpu0_ITLB PREFETCH     ACCESS:          0 HIT:          0 MISS:          0
cpu0_ITLB WRITE        ACCESS:          0 HIT:          0 MISS:          0
cpu0_ITLB TRANSLATION  ACCESS:          0 HIT:          0 MISS:          0
cpu0_ITLB PREFETCH REQUESTED:          0 ISSUED:          0 USEFUL:          0 USELESS:          0
cpu0_ITLB AVERAGE MISS LATENCY: 8.058 cycles
cpu0_L1D TOTAL        ACCESS:   24820206 HIT:   24511762 MISS:     308444
cpu0_L1D LOAD         ACCESS:   12939397 HIT:   12846435 MISS:      92962
cpu0_L1D RFO          ACCESS:          0 HIT:          0 MISS:          0
cpu0_L1D PREFETCH     ACCESS:    9762918 HIT:    9678962 MISS:      83956
cpu0_L1D WRITE        ACCESS:    2115527 HIT:    1985384 MISS:     130143
cpu0_L1D TRANSLATION  ACCESS:       2364 HIT:        981 MISS:       1383
cpu0_L1D PREFETCH REQUESTED:   11067688 ISSUED:    9762918 USEFUL:       7594 USELESS:       1662
cpu0_L1D AVERAGE MISS LATENCY: 10.93 cycles
cpu0_L1I TOTAL        ACCESS:     871442 HIT:     754052 MISS:     117390
cpu0_L1I LOAD         ACCESS:     284207 HIT:     261177 MISS:      23030
cpu0_L1I RFO          ACCESS:          0 HIT:          0 MISS:          0
cpu0_L1I PREFETCH     ACCESS:     587235 HIT:     492875 MISS:      94360
cpu0_L1I WRITE        ACCESS:          0 HIT:          0 MISS:          0
cpu0_L1I TRANSLATION  ACCESS:          0 HIT:          0 MISS:          0
cpu0_L1I PREFETCH REQUESTED:     874275 ISSUED:     587235 USEFUL:      58835 USELESS:      32036
cpu0_L1I AVERAGE MISS LATENCY: 15.28 cycles
cpu0_L2C TOTAL        ACCESS:     639892 HIT:     485819 MISS:     154073
cpu0_L2C LOAD         ACCESS:      79777 HIT:      53192 MISS:      26585
cpu0_L2C RFO          ACCESS:      67124 HIT:      12311 MISS:      54813
cpu0_L2C PREFETCH     ACCESS:     408726 HIT:     337010 MISS:      71716
cpu0_L2C WRITE        ACCESS:      82995 HIT:      82995 MISS:          0
cpu0_L2C TRANSLATION  ACCESS:       1270 HIT:        311 MISS:        959
cpu0_L2C PREFETCH REQUESTED:     250649 ISSUED:     237854 USEFUL:      10481 USELESS:      16708
cpu0_L2C AVERAGE MISS LATENCY: 19.44 cycles
cpu0_STLB TOTAL        ACCESS:      19310 HIT:      17149 MISS:       2161
cpu0_STLB LOAD         ACCESS:      19310 HIT:      17149 MISS:       2161
cpu0_STLB RFO          ACCESS:          0 HIT:          0 MISS:          0
cpu0_STLB PREFETCH     ACCESS:          0 HIT:          0 MISS:          0
cpu0_STLB WRITE        ACCESS:          0 HIT:          0 MISS:          0
cpu0_STLB TRANSLATION  ACCESS:          0 HIT:          0 MISS:          0
cpu0_STLB PREFETCH REQUESTED:          0 ISSUED:          0 USEFUL:          0 USELESS:          0
cpu0_STLB AVERAGE MISS LATENCY: 47.34 cycles

DRAM Statistics

Channel 0 RQ ROW_BUFFER_HIT:        134
  ROW_BUFFER_MISS:        713
 AVG DBUS CONGESTED CYCLE: 3.694
WQ ROW_BUFFER_HIT: Channel 0 
  ROW_BUFFER_MISS:          0
  FULL:          8

Channel 1 RQ ROW_BUFFER_HIT:        124
  ROW_BUFFER_MISS:        657
 AVG DBUS CONGESTED CYCLE: 3.703
WQ ROW_BUFFER_HIT: Channel 1 
  ROW_BUFFER_MISS:          1
  FULL:          3
BERTI TO_L1: 11741279 TO_L2: 2699420 TO_L2_BC_MSHR: 187055
BERTI AVG_LAT: 19.0796 NUM_TRACK_LATENCY: 98872 NUM_CANT_TRACK_LATENCY: 0
BERTI CROSS_PAGE 1982306 NO_CROSS_PAGE: 12458393
BERTI FOUND_BERTI: 1509134 NO_FOUND_BERTI: 15522055
BERTI AVERAGE_ISSUED: 12.7272
CPU 0 L1I Entangling prefetcher final stats
IP accesses: 6f71 1bdc40 2763 / 284620
IP misses: f7cb 3df2c0 184 / 23443
IP hits: 0 0 0 / 0
IP late: 20a2 82880 54 / 11382
IP wrong: 7cde 1f3780 219 / 31868
miss rate: 0.082366
coverage: 0
coverage_late: 0.485519
accuracy: 0
accuracy_late: 0.263168
discarded: 0
evicts entangled j table: 0
evicts entangled k table: 4092
max bb size: 53
formats: 1228 0 3074 1553 604 1066 0 
hist_lookups: 2681 3119 2339 2020 1792 1539 1221 949 776 640 450 280 173 86 37 0 0 4047 
hist_lookups_evict: 0 %
hist_lookups_shortlat: 18.2718 %
bb_found_hist: 0 70853 26868 14868 6740 2724 1360 1067 309 139 0 40 24 0 24 30 6 0 0 0 0 12 0 0 0 0 0 0 0 0 0 6 0 0 6 0 0 0 0 0 0 0 0 0 0 0 0 0 0 0 0 0 0 6 0 0 0 0 0 0 0 0 0 0 
bb_found_summary: 231695 125082 1.85235
entangled_found_hist: 0 40973 27392 46143 10471 2379 729 0 
entangled_found_summary: 292339 128087 2.28235
bb_ent_found_hist: 0 92479 40288 29282 14581 6494 2716 1077 1215 71 0 52 86 0 6 129 427 0 0 0 0 25 0 0 0 0 0 0 0 0 0 6 0 0 12 0 0 0 0 0 0 0 0 0 0 0 0 0 0 0 0 0 0 11 0 0 0 0 0 0 0 0 0 0 
bb_ent_found_summary: 398046 188957 2.10655
