WARNING: physical memory size is smaller than virtual memory size.

*** ChampSim Multicore Out-of-Order Simulator ***
Warmup Instructions: 30000000
Simulation Instructions: 100000000
Number of CPUs: 1
Page size: 4096

BTB:
Basic BTB sets: 1024 ways: 8
Indirect:
history lengths: 0 0 10 16 27 44 60 96 109 219 449 487 714 1313 2146 3881 
ITTAGE tables: 64768 bytes;Region table: 240 bytes;IUM: 384 bytes;Total Storage= 65392 bytes;
RAS:
RAS size: 64
[LLC] INSTR Demand IPV: 1 2 2 1 4 Prefetch IPV: 1 2 1 1 4
[LLC] DATA  Demand IPV: 1 1 1 2 4 Prefetch IPV: 1 1 2 2 4
Berti Prefetcher
CPU 0 Entangling prefetcher
Off-chip DRAM Size: 8 GiB Channels: 2 Width: 64-bit Data Race: 6400 MT/s
[DUEL] Epoch ended. INSTR misses = 51, DATA misses = 55. Winner = INSTR
[DUEL] Epoch ended. INSTR misses = 5, DATA misses = 13. Winner = INSTR
[DUEL] Epoch ended. INSTR misses = 0, DATA misses = 1. Winner = INSTR
[DUEL] Epoch ended. INSTR misses = 0, DATA misses = 0. Winner = INSTR
[DUEL] Epoch ended. INSTR misses = 0, DATA misses = 0. Winner = INSTR
[DUEL] Epoch ended. INSTR misses = 0, DATA misses = 0. Winner = INSTR
[DUEL] Epoch ended. INSTR misses = 16, DATA misses = 16. Winner = INSTR
[DUEL] Epoch ended. INSTR misses = 0, DATA misses = 0. Winner = INSTR
[DUEL] Epoch ended. INSTR misses = 0, DATA misses = 0. Winner = INSTR
[DUEL] Epoch ended. INSTR misses = 3, DATA misses = 13. Winner = INSTR
[DUEL] Epoch ended. INSTR misses = 14, DATA misses = 13. Winner = DATA
[DUEL] Epoch ended. INSTR misses = 0, DATA misses = 0. Winner = INSTR
Heartbeat CPU 0 instructions: 10000001 cycles: 1714850 heartbeat IPC: 5.831 cumulative IPC: 5.831 (Simulation time: 00 hr 00 min 19 sec)
[DUEL] Epoch ended. INSTR misses = 7, DATA misses = 11. Winner = INSTR
*** Reached end of trace: (0, "../traces/secret_traces/crypto/crypto102.champsimtrace.xz")
[DUEL] Epoch ended. INSTR misses = 0, DATA misses = 10. Winner = INSTR
[DUEL] Epoch ended. INSTR misses = 0, DATA misses = 0. Winner = INSTR
[DUEL] Epoch ended. INSTR misses = 0, DATA misses = 0. Winner = INSTR
[DUEL] Epoch ended. INSTR misses = 0, DATA misses = 0. Winner = INSTR
[DUEL] Epoch ended. INSTR misses = 0, DATA misses = 0. Winner = INSTR
[DUEL] Epoch ended. INSTR misses = 0, DATA misses = 0. Winner = INSTR
[DUEL] Epoch ended. INSTR misses = 0, DATA misses = 0. Winner = INSTR
[DUEL] Epoch ended. INSTR misses = 0, DATA misses = 0. Winner = INSTR
[DUEL] Epoch ended. INSTR misses = 0, DATA misses = 0. Winner = INSTR
[DUEL] Epoch ended. INSTR misses = 0, DATA misses = 0. Winner = INSTR
[DUEL] Epoch ended. INSTR misses = 0, DATA misses = 0. Winner = INSTR
[DUEL] Epoch ended. INSTR misses = 0, DATA misses = 0. Winner = INSTR
Heartbeat CPU 0 instructions: 20000001 cycles: 3432288 heartbeat IPC: 5.823 cumulative IPC: 5.827 (Simulation time: 00 hr 00 min 38 sec)
[DUEL] Epoch ended. INSTR misses = 0, DATA misses = 0. Winner = INSTR
Heartbeat CPU 0 instructions: 30000008 cycles: 5100734 heartbeat IPC: 5.994 cumulative IPC: 5.882 (Simulation time: 00 hr 00 min 55 sec)
Warmup finished CPU 0 instructions: 30000008 cycles: 5100735 cumulative IPC: 5.882 (Simulation time: 00 hr 00 min 55 sec)
Warmup complete CPU 0 instructions: 30000008 cycles: 5100735 cumulative IPC: 5.882 (Simulation time: 00 hr 00 min 55 sec)
[DUEL] Epoch ended. INSTR misses = 0, DATA misses = 0. Winner = INSTR
*** Reached end of trace: (0, "../traces/secret_traces/crypto/crypto102.champsimtrace.xz")
[DUEL] Epoch ended. INSTR misses = 2, DATA misses = 3. Winner = INSTR
[DUEL] Epoch ended. INSTR misses = 0, DATA misses = 1. Winner = INSTR
[DUEL] Epoch ended. INSTR misses = 0, DATA misses = 0. Winner = INSTR
[DUEL] Epoch ended. INSTR misses = 0, DATA misses = 0. Winner = INSTR
[DUEL] Epoch ended. INSTR misses = 0, DATA misses = 0. Winner = INSTR
[DUEL] Epoch ended. INSTR misses = 0, DATA misses = 0. Winner = INSTR
[DUEL] Epoch ended. INSTR misses = 0, DATA misses = 0. Winner = INSTR
[DUEL] Epoch ended. INSTR misses = 0, DATA misses = 0. Winner = INSTR
[DUEL] Epoch ended. INSTR misses = 0, DATA misses = 0. Winner = INSTR
[DUEL] Epoch ended. INSTR misses = 0, DATA misses = 1. Winner = INSTR
[DUEL] Epoch ended. INSTR misses = 0, DATA misses = 0. Winner = INSTR
[DUEL] Epoch ended. INSTR misses = 0, DATA misses = 1. Winner = INSTR
[DUEL] Epoch ended. INSTR misses = 0, DATA misses = 0. Winner = INSTR
Heartbeat CPU 0 instructions: 40000006 cycles: 7188283 heartbeat IPC: 4.79 cumulative IPC: 4.79 (Simulation time: 00 hr 01 min 21 sec)
[DUEL] Epoch ended. INSTR misses = 1, DATA misses = 1. Winner = INSTR
*** Reached end of trace: (0, "../traces/secret_traces/crypto/crypto102.champsimtrace.xz")
[DUEL] Epoch ended. INSTR misses = 0, DATA misses = 2. Winner = INSTR
[DUEL] Epoch ended. INSTR misses = 0, DATA misses = 0. Winner = INSTR
[DUEL] Epoch ended. INSTR misses = 0, DATA misses = 0. Winner = INSTR
[DUEL] Epoch ended. INSTR misses = 0, DATA misses = 0. Winner = INSTR
[DUEL] Epoch ended. INSTR misses = 0, DATA misses = 0. Winner = INSTR
Heartbeat CPU 0 instructions: 50000000 cycles: 9094578 heartbeat IPC: 5.246 cumulative IPC: 5.008 (Simulation time: 00 hr 01 min 45 sec)
[DUEL] Epoch ended. INSTR misses = 0, DATA misses = 0. Winner = INSTR
[DUEL] Epoch ended. INSTR misses = 0, DATA misses = 0. Winner = INSTR
[DUEL] Epoch ended. INSTR misses = 0, DATA misses = 0. Winner = INSTR
[DUEL] Epoch ended. INSTR misses = 0, DATA misses = 0. Winner = INSTR
[DUEL] Epoch ended. INSTR misses = 0, DATA misses = 0. Winner = INSTR
[DUEL] Epoch ended. INSTR misses = 0, DATA misses = 0. Winner = INSTR
[DUEL] Epoch ended. INSTR misses = 0, DATA misses = 0. Winner = INSTR
[DUEL] Epoch ended. INSTR misses = 0, DATA misses = 0. Winner = INSTR
Heartbeat CPU 0 instructions: 60000002 cycles: 10967995 heartbeat IPC: 5.338 cumulative IPC: 5.113 (Simulation time: 00 hr 02 min 10 sec)
[DUEL] Epoch ended. INSTR misses = 0, DATA misses = 0. Winner = INSTR
*** Reached end of trace: (0, "../traces/secret_traces/crypto/crypto102.champsimtrace.xz")
[DUEL] Epoch ended. INSTR misses = 0, DATA misses = 0. Winner = INSTR
[DUEL] Epoch ended. INSTR misses = 0, DATA misses = 0. Winner = INSTR
[DUEL] Epoch ended. INSTR misses = 0, DATA misses = 0. Winner = INSTR
[DUEL] Epoch ended. INSTR misses = 0, DATA misses = 0. Winner = INSTR
[DUEL] Epoch ended. INSTR misses = 0, DATA misses = 0. Winner = INSTR
[DUEL] Epoch ended. INSTR misses = 0, DATA misses = 0. Winner = INSTR
[DUEL] Epoch ended. INSTR misses = 0, DATA misses = 0. Winner = INSTR
[DUEL] Epoch ended. INSTR misses = 0, DATA misses = 0. Winner = INSTR
[DUEL] Epoch ended. INSTR misses = 0, DATA misses = 0. Winner = INSTR
[DUEL] Epoch ended. INSTR misses = 0, DATA misses = 0. Winner = INSTR
[DUEL] Epoch ended. INSTR misses = 0, DATA misses = 0. Winner = INSTR
[DUEL] Epoch ended. INSTR misses = 0, DATA misses = 0. Winner = INSTR
Heartbeat CPU 0 instructions: 70000001 cycles: 12985501 heartbeat IPC: 4.957 cumulative IPC: 5.073 (Simulation time: 00 hr 02 min 36 sec)
[DUEL] Epoch ended. INSTR misses = 0, DATA misses = 0. Winner = INSTR
Heartbeat CPU 0 instructions: 80000000 cycles: 14735906 heartbeat IPC: 5.713 cumulative IPC: 5.189 (Simulation time: 00 hr 02 min 59 sec)
[DUEL] Epoch ended. INSTR misses = 0, DATA misses = 0. Winner = INSTR
*** Reached end of trace: (0, "../traces/secret_traces/crypto/crypto102.champsimtrace.xz")
[DUEL] Epoch ended. INSTR misses = 0, DATA misses = 0. Winner = INSTR
[DUEL] Epoch ended. INSTR misses = 0, DATA misses = 0. Winner = INSTR
[DUEL] Epoch ended. INSTR misses = 0, DATA misses = 0. Winner = INSTR
[DUEL] Epoch ended. INSTR misses = 0, DATA misses = 0. Winner = INSTR
[DUEL] Epoch ended. INSTR misses = 0, DATA misses = 0. Winner = INSTR
[DUEL] Epoch ended. INSTR misses = 0, DATA misses = 0. Winner = INSTR
[DUEL] Epoch ended. INSTR misses = 0, DATA misses = 0. Winner = INSTR
[DUEL] Epoch ended. INSTR misses = 0, DATA misses = 0. Winner = INSTR
[DUEL] Epoch ended. INSTR misses = 0, DATA misses = 0. Winner = INSTR
[DUEL] Epoch ended. INSTR misses = 0, DATA misses = 0. Winner = INSTR
[DUEL] Epoch ended. INSTR misses = 0, DATA misses = 0. Winner = INSTR
[DUEL] Epoch ended. INSTR misses = 0, DATA misses = 0. Winner = INSTR
[DUEL] Epoch ended. INSTR misses = 0, DATA misses = 0. Winner = INSTR
Heartbeat CPU 0 instructions: 90000003 cycles: 16767316 heartbeat IPC: 4.923 cumulative IPC: 5.143 (Simulation time: 00 hr 03 min 25 sec)
[DUEL] Epoch ended. INSTR misses = 0, DATA misses = 0. Winner = INSTR
*** Reached end of trace: (0, "../traces/secret_traces/crypto/crypto102.champsimtrace.xz")
[DUEL] Epoch ended. INSTR misses = 0, DATA misses = 0. Winner = INSTR
[DUEL] Epoch ended. INSTR misses = 0, DATA misses = 0. Winner = INSTR
[DUEL] Epoch ended. INSTR misses = 0, DATA misses = 0. Winner = INSTR
[DUEL] Epoch ended. INSTR misses = 0, DATA misses = 0. Winner = INSTR
[DUEL] Epoch ended. INSTR misses = 0, DATA misses = 0. Winner = INSTR
[DUEL] Epoch ended. INSTR misses = 0, DATA misses = 0. Winner = INSTR
[DUEL] Epoch ended. INSTR misses = 0, DATA misses = 0. Winner = INSTR
[DUEL] Epoch ended. INSTR misses = 0, DATA misses = 0. Winner = INSTR
[DUEL] Epoch ended. INSTR misses = 0, DATA misses = 0. Winner = INSTR
[DUEL] Epoch ended. INSTR misses = 0, DATA misses = 0. Winner = INSTR
Heartbeat CPU 0 instructions: 100000008 cycles: 18707506 heartbeat IPC: 5.154 cumulative IPC: 5.144 (Simulation time: 00 hr 03 min 50 sec)
[DUEL] Epoch ended. INSTR misses = 0, DATA misses = 0. Winner = INSTR
[DUEL] Epoch ended. INSTR misses = 0, DATA misses = 0. Winner = INSTR
[DUEL] Epoch ended. INSTR misses = 0, DATA misses = 0. Winner = INSTR
Heartbeat CPU 0 instructions: 110000000 cycles: 20523983 heartbeat IPC: 5.505 cumulative IPC: 5.187 (Simulation time: 00 hr 04 min 14 sec)
[DUEL] Epoch ended. INSTR misses = 0, DATA misses = 0. Winner = INSTR
*** Reached end of trace: (0, "../traces/secret_traces/crypto/crypto102.champsimtrace.xz")
[DUEL] Epoch ended. INSTR misses = 0, DATA misses = 0. Winner = INSTR
[DUEL] Epoch ended. INSTR misses = 0, DATA misses = 0. Winner = INSTR
[DUEL] Epoch ended. INSTR misses = 0, DATA misses = 0. Winner = INSTR
[DUEL] Epoch ended. INSTR misses = 0, DATA misses = 0. Winner = INSTR
[DUEL] Epoch ended. INSTR misses = 0, DATA misses = 0. Winner = INSTR
[DUEL] Epoch ended. INSTR misses = 0, DATA misses = 0. Winner = INSTR
[DUEL] Epoch ended. INSTR misses = 0, DATA misses = 0. Winner = INSTR
[DUEL] Epoch ended. INSTR misses = 0, DATA misses = 0. Winner = INSTR
[DUEL] Epoch ended. INSTR misses = 0, DATA misses = 0. Winner = INSTR
[DUEL] Epoch ended. INSTR misses = 0, DATA misses = 0. Winner = INSTR
[DUEL] Epoch ended. INSTR misses = 0, DATA misses = 0. Winner = INSTR
[DUEL] Epoch ended. INSTR misses = 0, DATA misses = 0. Winner = INSTR
[DUEL] Epoch ended. INSTR misses = 0, DATA misses = 0. Winner = INSTR
Heartbeat CPU 0 instructions: 120000003 cycles: 22548423 heartbeat IPC: 4.94 cumulative IPC: 5.158 (Simulation time: 00 hr 04 min 40 sec)
[DUEL] Epoch ended. INSTR misses = 0, DATA misses = 0. Winner = INSTR
Heartbeat CPU 0 instructions: 130000004 cycles: 24289346 heartbeat IPC: 5.744 cumulative IPC: 5.211 (Simulation time: 00 hr 05 min 03 sec)
Simulation finished CPU 0 instructions: 100000002 cycles: 19188615 cumulative IPC: 5.211 (Simulation time: 00 hr 05 min 03 sec)
Simulation complete CPU 0 instructions: 100000002 cycles: 19188615 cumulative IPC: 5.211 (Simulation time: 00 hr 05 min 03 sec)

ChampSim completed all CPUs

=== Simulation ===
CPU 0 runs ../traces/secret_traces/crypto/crypto102.champsimtrace.xz
Region of Interest Statistics

CPU 0 cumulative IPC: 5.211 instructions: 100000002 cycles: 19188615
CPU 0 Branch Prediction Accuracy: 98.87% MPKI: 0.7816 Average ROB Occupancy at Mispredict: 27.08
Branch type MPKI
BRANCH_DIRECT_JUMP: 0.0435
BRANCH_INDIRECT: 0.444
BRANCH_CONDITIONAL: 0.0839
BRANCH_DIRECT_CALL: 0.125
BRANCH_INDIRECT_CALL: 0.0167
BRANCH_RETURN: 0.0681

LLC TOTAL        ACCESS:     193417 HIT:     191792 MISS:       1625
LLC LOAD         ACCESS:      25092 HIT:      25071 MISS:         21
LLC RFO          ACCESS:      55198 HIT:      55198 MISS:          0
LLC PREFETCH     ACCESS:      50813 HIT:      49339 MISS:       1474
LLC WRITE        ACCESS:      61484 HIT:      61484 MISS:          0
LLC TRANSLATION  ACCESS:        830 HIT:        700 MISS:        130
LLC PREFETCH REQUESTED:          0 ISSUED:          0 USEFUL:          0 USELESS:          0
LLC AVERAGE MISS LATENCY: 158.2 cycles
cpu0_DTLB TOTAL        ACCESS:    5780954 HIT:    5758687 MISS:      22267
cpu0_DTLB LOAD         ACCESS:    5780954 HIT:    5758687 MISS:      22267
cpu0_DTLB RFO          ACCESS:          0 HIT:          0 MISS:          0
cpu0_DTLB PREFETCH     ACCESS:          0 HIT:          0 MISS:          0
cpu0_DTLB WRITE        ACCESS:          0 HIT:          0 MISS:          0
cpu0_DTLB TRANSLATION  ACCESS:          0 HIT:          0 MISS:          0
cpu0_DTLB PREFETCH REQUESTED:          0 ISSUED:          0 USEFUL:          0 USELESS:          0
cpu0_DTLB AVERAGE MISS LATENCY: 5.4 cycles
cpu0_ITLB TOTAL        ACCESS:     611650 HIT:     600100 MISS:      11550
cpu0_ITLB LOAD         ACCESS:     611650 HIT:     600100 MISS:      11550
cpu0_ITLB RFO          ACCESS:          0 HIT:          0 MISS:          0
cpu0_ITLB PREFETCH     ACCESS:          0 HIT:          0 MISS:          0
cpu0_ITLB WRITE        ACCESS:          0 HIT:          0 MISS:          0
cpu0_ITLB TRANSLATION  ACCESS:          0 HIT:          0 MISS:          0
cpu0_ITLB PREFETCH REQUESTED:          0 ISSUED:          0 USEFUL:          0 USELESS:          0
cpu0_ITLB AVERAGE MISS LATENCY: 7.266 cycles
cpu0_L1D TOTAL        ACCESS:    9544430 HIT:    9205830 MISS:     338600
cpu0_L1D LOAD         ACCESS:    4074275 HIT:    3981186 MISS:      93089
cpu0_L1D RFO          ACCESS:          0 HIT:          0 MISS:          0
cpu0_L1D PREFETCH     ACCESS:     995656 HIT:     882482 MISS:     113174
cpu0_L1D WRITE        ACCESS:    4472231 HIT:    4341149 MISS:     131082
cpu0_L1D TRANSLATION  ACCESS:       2268 HIT:       1013 MISS:       1255
cpu0_L1D PREFETCH REQUESTED:    2291946 ISSUED:     995656 USEFUL:       5398 USELESS:       1426
cpu0_L1D AVERAGE MISS LATENCY: 9.754 cycles
cpu0_L1I TOTAL        ACCESS:     887797 HIT:     769098 MISS:     118699
cpu0_L1I LOAD         ACCESS:     289963 HIT:     267001 MISS:      22962
cpu0_L1I RFO          ACCESS:          0 HIT:          0 MISS:          0
cpu0_L1I PREFETCH     ACCESS:     597834 HIT:     502097 MISS:      95737
cpu0_L1I WRITE        ACCESS:          0 HIT:          0 MISS:          0
cpu0_L1I TRANSLATION  ACCESS:          0 HIT:          0 MISS:          0
cpu0_L1I PREFETCH REQUESTED:     871184 ISSUED:     597867 USEFUL:      59771 USELESS:      32384
cpu0_L1I AVERAGE MISS LATENCY: 15.33 cycles
cpu0_L2C TOTAL        ACCESS:     699752 HIT:     550604 MISS:     149148
cpu0_L2C LOAD         ACCESS:      79393 HIT:      54060 MISS:      25333
cpu0_L2C RFO          ACCESS:      67288 HIT:      12068 MISS:      55220
cpu0_L2C PREFETCH     ACCESS:     468718 HIT:     400953 MISS:      67765
cpu0_L2C WRITE        ACCESS:      83194 HIT:      83194 MISS:          0
cpu0_L2C TRANSLATION  ACCESS:       1159 HIT:        329 MISS:        830
cpu0_L2C PREFETCH REQUESTED:     280760 ISSUED:     267351 USEFUL:       9267 USELESS:      16019
cpu0_L2C AVERAGE MISS LATENCY: 19.64 cycles
cpu0_STLB TOTAL        ACCESS:      19304 HIT:      17191 MISS:       2113
cpu0_STLB LOAD         ACCESS:      19304 HIT:      17191 MISS:       2113
cpu0_STLB RFO          ACCESS:          0 HIT:          0 MISS:          0
cpu0_STLB PREFETCH     ACCESS:          0 HIT:          0 MISS:          0
cpu0_STLB WRITE        ACCESS:          0 HIT:          0 MISS:          0
cpu0_STLB TRANSLATION  ACCESS:          0 HIT:          0 MISS:          0
cpu0_STLB PREFETCH REQUESTED:          0 ISSUED:          0 USEFUL:          0 USELESS:          0
cpu0_STLB AVERAGE MISS LATENCY: 39.12 cycles

DRAM Statistics

Channel 0 RQ ROW_BUFFER_HIT:        109
  ROW_BUFFER_MISS:        714
 AVG DBUS CONGESTED CYCLE: 3.672
WQ ROW_BUFFER_HIT: Channel 0 
  ROW_BUFFER_MISS:          0
  FULL:          0

Channel 1 RQ ROW_BUFFER_HIT:        127
  ROW_BUFFER_MISS:        675
 AVG DBUS CONGESTED CYCLE: 3.695
WQ ROW_BUFFER_HIT: Channel 1 
  ROW_BUFFER_MISS:          0
  FULL:          0
BERTI TO_L1: 1919008 TO_L2: 1193861 TO_L2_BC_MSHR: 179122
BERTI AVG_LAT: 19.1989 NUM_TRACK_LATENCY: 94994 NUM_CANT_TRACK_LATENCY: 0
BERTI CROSS_PAGE 376488 NO_CROSS_PAGE: 2736381
BERTI FOUND_BERTI: 1591566 NO_FOUND_BERTI: 4007359
BERTI AVERAGE_ISSUED: 3.52848
CPU 0 L1I Entangling prefetcher final stats
IP accesses: 6f71 1bdc40 2983 / 290159
IP misses: f7cb 3df2c0 194 / 23158
IP hits: 0 0 0 / 0
IP late: 6e9e 1ba780 103 / 11603
IP wrong: 251e 94780 139 / 32228
miss rate: 0.0798115
coverage: 0
coverage_late: 0.501037
accuracy: 0
accuracy_late: 0.264722
discarded: 0
evicts entangled j table: 0
evicts entangled k table: 3984
max bb size: 53
formats: 1266 0 3027 1562 580 1105 0 
hist_lookups: 2652 2960 2282 1976 1869 1630 1178 894 805 659 439 258 177 83 27 0 12 4639 
hist_lookups_evict: 0.0532387 %
hist_lookups_shortlat: 20.5812 %
bb_found_hist: 0 72052 27077 15162 6632 2858 1399 1067 314 164 0 40 24 0 24 30 6 0 0 0 0 12 0 0 0 0 0 0 0 0 0 6 0 0 6 0 0 0 0 0 0 0 0 0 0 0 0 0 0 0 0 0 0 6 0 0 0 0 0 0 0 0 0 0 
bb_found_summary: 234931 126879 1.85162
entangled_found_hist: 0 43436 28192 46517 9273 1890 838 0 
entangled_found_summary: 290941 130146 2.2355
bb_ent_found_hist: 0 99447 38553 28570 11868 8013 1700 1241 1120 90 0 45 76 0 6 173 432 0 0 0 0 30 0 0 0 0 0 0 0 0 0 12 0 0 6 0 0 0 0 0 0 0 0 0 0 0 0 0 0 0 0 0 0 11 0 0 0 0 0 0 0 0 0 0 
bb_ent_found_summary: 391244 191393 2.0442
