WARNING: physical memory size is smaller than virtual memory size.

*** ChampSim Multicore Out-of-Order Simulator ***
Warmup Instructions: 30000000
Simulation Instructions: 100000000
Number of CPUs: 1
Page size: 4096

BTB:
Basic BTB sets: 1024 ways: 8
Indirect:
history lengths: 0 0 10 16 27 44 60 96 109 219 449 487 714 1313 2146 3881 
ITTAGE tables: 64768 bytes;Region table: 240 bytes;IUM: 384 bytes;Total Storage= 65392 bytes;
RAS:
RAS size: 64
[LLC] INSTR Demand IPV: 1 2 2 1 4 Prefetch IPV: 1 2 1 1 4
[LLC] DATA  Demand IPV: 1 1 1 2 4 Prefetch IPV: 1 1 2 2 4
Berti Prefetcher
CPU 0 Entangling prefetcher
Off-chip DRAM Size: 8 GiB Channels: 2 Width: 64-bit Data Race: 6400 MT/s
[DUEL] Epoch ended. INSTR misses = 50, DATA misses = 46. Winner = DATA
[DUEL] Epoch ended. INSTR misses = 16, DATA misses = 16. Winner = INSTR
[DUEL] Epoch ended. INSTR misses = 0, DATA misses = 0. Winner = INSTR
[DUEL] Epoch ended. INSTR misses = 0, DATA misses = 0. Winner = INSTR
[DUEL] Epoch ended. INSTR misses = 0, DATA misses = 0. Winner = INSTR
[DUEL] Epoch ended. INSTR misses = 0, DATA misses = 0. Winner = INSTR
[DUEL] Epoch ended. INSTR misses = 16, DATA misses = 16. Winner = INSTR
[DUEL] Epoch ended. INSTR misses = 0, DATA misses = 0. Winner = INSTR
[DUEL] Epoch ended. INSTR misses = 0, DATA misses = 0. Winner = INSTR
[DUEL] Epoch ended. INSTR misses = 0, DATA misses = 0. Winner = INSTR
[DUEL] Epoch ended. INSTR misses = 16, DATA misses = 5. Winner = DATA
[DUEL] Epoch ended. INSTR misses = 3, DATA misses = 5. Winner = INSTR
Heartbeat CPU 0 instructions: 10000000 cycles: 1714766 heartbeat IPC: 5.832 cumulative IPC: 5.832 (Simulation time: 00 hr 00 min 20 sec)
[DUEL] Epoch ended. INSTR misses = 1, DATA misses = 4. Winner = INSTR
[DUEL] Epoch ended. INSTR misses = 19, DATA misses = 17. Winner = DATA
[DUEL] Epoch ended. INSTR misses = 110, DATA misses = 106. Winner = DATA
Heartbeat CPU 0 instructions: 20000000 cycles: 3431009 heartbeat IPC: 5.827 cumulative IPC: 5.829 (Simulation time: 00 hr 00 min 39 sec)
[DUEL] Epoch ended. INSTR misses = 36, DATA misses = 31. Winner = DATA
Heartbeat CPU 0 instructions: 30000005 cycles: 5097743 heartbeat IPC: 6 cumulative IPC: 5.885 (Simulation time: 00 hr 00 min 58 sec)
Warmup finished CPU 0 instructions: 30000005 cycles: 5097744 cumulative IPC: 5.885 (Simulation time: 00 hr 00 min 58 sec)
Warmup complete CPU 0 instructions: 30000005 cycles: 5097744 cumulative IPC: 5.885 (Simulation time: 00 hr 00 min 58 sec)
[DUEL] Epoch ended. INSTR misses = 0, DATA misses = 0. Winner = INSTR
[DUEL] Epoch ended. INSTR misses = 0, DATA misses = 0. Winner = INSTR
Heartbeat CPU 0 instructions: 40000000 cycles: 6765306 heartbeat IPC: 5.997 cumulative IPC: 5.997 (Simulation time: 00 hr 01 min 19 sec)
[DUEL] Epoch ended. INSTR misses = 0, DATA misses = 0. Winner = INSTR
Heartbeat CPU 0 instructions: 50000000 cycles: 8433164 heartbeat IPC: 5.996 cumulative IPC: 5.996 (Simulation time: 00 hr 01 min 41 sec)
[DUEL] Epoch ended. INSTR misses = 0, DATA misses = 0. Winner = INSTR
Heartbeat CPU 0 instructions: 60000007 cycles: 10107754 heartbeat IPC: 5.972 cumulative IPC: 5.988 (Simulation time: 00 hr 02 min 02 sec)
Heartbeat CPU 0 instructions: 70000003 cycles: 11774412 heartbeat IPC: 6 cumulative IPC: 5.991 (Simulation time: 00 hr 02 min 23 sec)
[DUEL] Epoch ended. INSTR misses = 0, DATA misses = 0. Winner = INSTR
Heartbeat CPU 0 instructions: 80000001 cycles: 13441361 heartbeat IPC: 5.999 cumulative IPC: 5.993 (Simulation time: 00 hr 02 min 45 sec)
[DUEL] Epoch ended. INSTR misses = 0, DATA misses = 0. Winner = INSTR
Heartbeat CPU 0 instructions: 90000000 cycles: 15108175 heartbeat IPC: 5.999 cumulative IPC: 5.994 (Simulation time: 00 hr 03 min 06 sec)
Heartbeat CPU 0 instructions: 100000001 cycles: 16774889 heartbeat IPC: 6 cumulative IPC: 5.995 (Simulation time: 00 hr 03 min 28 sec)
Heartbeat CPU 0 instructions: 110000000 cycles: 18441578 heartbeat IPC: 6 cumulative IPC: 5.995 (Simulation time: 00 hr 03 min 50 sec)
Heartbeat CPU 0 instructions: 120000002 cycles: 20108341 heartbeat IPC: 6 cumulative IPC: 5.996 (Simulation time: 00 hr 04 min 11 sec)
Heartbeat CPU 0 instructions: 130000001 cycles: 21775046 heartbeat IPC: 6 cumulative IPC: 5.996 (Simulation time: 00 hr 04 min 33 sec)
Simulation finished CPU 0 instructions: 100000002 cycles: 16677304 cumulative IPC: 5.996 (Simulation time: 00 hr 04 min 33 sec)
Simulation complete CPU 0 instructions: 100000002 cycles: 16677304 cumulative IPC: 5.996 (Simulation time: 00 hr 04 min 33 sec)

ChampSim completed all CPUs

=== Simulation ===
CPU 0 runs ../traces/secret_traces/crypto/crypto30.champsimtrace.xz
Region of Interest Statistics

CPU 0 cumulative IPC: 5.996 instructions: 100000002 cycles: 16677304
CPU 0 Branch Prediction Accuracy: 99.99% MPKI: 0.00188 Average ROB Occupancy at Mispredict: 59.92
Branch type MPKI
BRANCH_DIRECT_JUMP: 7e-05
BRANCH_INDIRECT: 0.00076
BRANCH_CONDITIONAL: 0.00047
BRANCH_DIRECT_CALL: 0.00024
BRANCH_INDIRECT_CALL: 3e-05
BRANCH_RETURN: 0.00031

LLC TOTAL        ACCESS:        533 HIT:        278 MISS:        255
LLC LOAD         ACCESS:         92 HIT:         37 MISS:         55
LLC RFO          ACCESS:          4 HIT:          2 MISS:          2
LLC PREFETCH     ACCESS:        212 HIT:         81 MISS:        131
LLC WRITE        ACCESS:        214 HIT:        157 MISS:         57
LLC TRANSLATION  ACCESS:         11 HIT:          1 MISS:         10
LLC PREFETCH REQUESTED:          0 ISSUED:          0 USEFUL:          0 USELESS:          0
LLC AVERAGE MISS LATENCY: 166.4 cycles
cpu0_DTLB TOTAL        ACCESS:    8191287 HIT:    8191139 MISS:        148
cpu0_DTLB LOAD         ACCESS:    8191287 HIT:    8191139 MISS:        148
cpu0_DTLB RFO          ACCESS:          0 HIT:          0 MISS:          0
cpu0_DTLB PREFETCH     ACCESS:          0 HIT:          0 MISS:          0
cpu0_DTLB WRITE        ACCESS:          0 HIT:          0 MISS:          0
cpu0_DTLB TRANSLATION  ACCESS:          0 HIT:          0 MISS:          0
cpu0_DTLB PREFETCH REQUESTED:          0 ISSUED:          0 USEFUL:          0 USELESS:          0
cpu0_DTLB AVERAGE MISS LATENCY: 19.68 cycles
cpu0_ITLB TOTAL        ACCESS:    7663770 HIT:    7663739 MISS:         31
cpu0_ITLB LOAD         ACCESS:    7663770 HIT:    7663739 MISS:         31
cpu0_ITLB RFO          ACCESS:          0 HIT:          0 MISS:          0
cpu0_ITLB PREFETCH     ACCESS:          0 HIT:          0 MISS:          0
cpu0_ITLB WRITE        ACCESS:          0 HIT:          0 MISS:          0
cpu0_ITLB TRANSLATION  ACCESS:          0 HIT:          0 MISS:          0
cpu0_ITLB PREFETCH REQUESTED:          0 ISSUED:          0 USEFUL:          0 USELESS:          0
cpu0_ITLB AVERAGE MISS LATENCY: 32.23 cycles
cpu0_L1D TOTAL        ACCESS:    9592535 HIT:    9592365 MISS:        170
cpu0_L1D LOAD         ACCESS:    5020306 HIT:    5020151 MISS:        155
cpu0_L1D RFO          ACCESS:          0 HIT:          0 MISS:          0
cpu0_L1D PREFETCH     ACCESS:          0 HIT:          0 MISS:          0
cpu0_L1D WRITE        ACCESS:    4572218 HIT:    4572214 MISS:          4
cpu0_L1D TRANSLATION  ACCESS:         11 HIT:          0 MISS:         11
cpu0_L1D PREFETCH REQUESTED:          0 ISSUED:          0 USEFUL:          0 USELESS:          0
cpu0_L1D AVERAGE MISS LATENCY: 54.32 cycles
cpu0_L1I TOTAL        ACCESS:   11765798 HIT:   11762290 MISS:       3508
cpu0_L1I LOAD         ACCESS:    4710954 HIT:    4708736 MISS:       2218
cpu0_L1I RFO          ACCESS:          0 HIT:          0 MISS:          0
cpu0_L1I PREFETCH     ACCESS:    7054844 HIT:    7053554 MISS:       1290
cpu0_L1I WRITE        ACCESS:          0 HIT:          0 MISS:          0
cpu0_L1I TRANSLATION  ACCESS:          0 HIT:          0 MISS:          0
cpu0_L1I PREFETCH REQUESTED:   28784243 ISSUED:    7054844 USEFUL:        646 USELESS:        561
cpu0_L1I AVERAGE MISS LATENCY: 10.09 cycles
cpu0_L2C TOTAL        ACCESS:       5692 HIT:       5324 MISS:        368
cpu0_L2C LOAD         ACCESS:       1664 HIT:       1568 MISS:         96
cpu0_L2C RFO          ACCESS:          4 HIT:          0 MISS:          4
cpu0_L2C PREFETCH     ACCESS:       3943 HIT:       3686 MISS:        257
cpu0_L2C WRITE        ACCESS:         70 HIT:         70 MISS:          0
cpu0_L2C TRANSLATION  ACCESS:         11 HIT:          0 MISS:         11
cpu0_L2C PREFETCH REQUESTED:       2832 ISSUED:       2775 USEFUL:         28 USELESS:         14
cpu0_L2C AVERAGE MISS LATENCY: 131.7 cycles
cpu0_STLB TOTAL        ACCESS:        121 HIT:        113 MISS:          8
cpu0_STLB LOAD         ACCESS:        121 HIT:        113 MISS:          8
cpu0_STLB RFO          ACCESS:          0 HIT:          0 MISS:          0
cpu0_STLB PREFETCH     ACCESS:          0 HIT:          0 MISS:          0
cpu0_STLB WRITE        ACCESS:          0 HIT:          0 MISS:          0
cpu0_STLB TRANSLATION  ACCESS:          0 HIT:          0 MISS:          0
cpu0_STLB PREFETCH REQUESTED:          0 ISSUED:          0 USEFUL:          0 USELESS:          0
cpu0_STLB AVERAGE MISS LATENCY: 385.1 cycles

DRAM Statistics

Channel 0 RQ ROW_BUFFER_HIT:         16
  ROW_BUFFER_MISS:         85
 AVG DBUS CONGESTED CYCLE: 3.83
WQ ROW_BUFFER_HIT: Channel 0 
  ROW_BUFFER_MISS:         14
  FULL:         41

Channel 1 RQ ROW_BUFFER_HIT:         12
  ROW_BUFFER_MISS:         85
 AVG DBUS CONGESTED CYCLE: 3.889
WQ ROW_BUFFER_HIT: Channel 1 
  ROW_BUFFER_MISS:          9
  FULL:         50
BERTI TO_L1: 354943 TO_L2: 117621 TO_L2_BC_MSHR: 9260
BERTI AVG_LAT: 20.2598 NUM_TRACK_LATENCY: 31146 NUM_CANT_TRACK_LATENCY: 0
BERTI CROSS_PAGE 90142 NO_CROSS_PAGE: 382422
BERTI FOUND_BERTI: 463094 NO_FOUND_BERTI: 6784358
BERTI AVERAGE_ISSUED: 4.49832
CPU 0 L1I Entangling prefetcher final stats
IP accesses: 1f31 7cc40 480691 / 4710954
IP misses: 1f31 7cc40 28 / 2218
IP hits: 0 0 0 / 0
IP late: 1f31 7cc40 7 / 900
IP wrong: 30b0 c2c00 7 / 547
miss rate: 0.000470818
coverage: 0
coverage_late: 0.405771
accuracy: 0
accuracy_late: 0.621977
discarded: 0
evicts entangled j table: 0
evicts entangled k table: 194
max bb size: 56
formats: 22 0 184 54 45 47 0 
hist_lookups: 56 115 143 171 187 149 99 75 46 23 21 21 16 7 1 0 0 2173 
hist_lookups_evict: 0 %
hist_lookups_shortlat: 65.7887 %
bb_found_hist: 0 250440 135217 161865 1062 65958 21287 6 3 103012 31527 40082 34336 0 68676 0 0 34339 2 0 0 0 0 0 44511 13100 8 0 0 0 0 0 16790 0 0 0 0 0 0 0 0 0 0 0 34336 0 34336 10523 0 0 0 0 0 34336 0 0 24166 0 0 0 0 0 0 0 
bb_found_summary: 13800047 1159918 11.8975
entangled_found_hist: 0 440988 117018 351151 386 87 18 0 
entangled_found_summary: 1730564 909648 1.90246
bb_ent_found_hist: 0 431569 265505 166189 344 30914 177 67 18 68676 0 71500 34336 0 34339 0 0 0 0 0 0 0 0 0 31403 0 2 0 0 0 0 0 0 0 0 0 0 0 0 0 0 0 0 0 0 0 0 4 0 0 0 0 0 34337 0 0 120825 0 0 0 0 0 0 0 
bb_ent_found_summary: 13256102 1290205 10.2745
