WARNING: physical memory size is smaller than virtual memory size.

*** ChampSim Multicore Out-of-Order Simulator ***
Warmup Instructions: 30000000
Simulation Instructions: 100000000
Number of CPUs: 1
Page size: 4096

BTB:
Basic BTB sets: 1024 ways: 8
Indirect:
history lengths: 0 0 10 16 27 44 60 96 109 219 449 487 714 1313 2146 3881 
ITTAGE tables: 64768 bytes;Region table: 240 bytes;IUM: 384 bytes;Total Storage= 65392 bytes;
RAS:
RAS size: 64
[LLC] INSTR Demand IPV: 1 2 2 1 4 Prefetch IPV: 1 2 1 1 4
[LLC] DATA  Demand IPV: 1 1 1 2 4 Prefetch IPV: 1 1 2 2 4
Berti Prefetcher
CPU 0 Entangling prefetcher
Off-chip DRAM Size: 8 GiB Channels: 2 Width: 64-bit Data Race: 6400 MT/s
[DUEL] Epoch ended. INSTR misses = 53, DATA misses = 60. Winner = INSTR
[DUEL] Epoch ended. INSTR misses = 20, DATA misses = 21. Winner = INSTR
[DUEL] Epoch ended. INSTR misses = 0, DATA misses = 0. Winner = INSTR
[DUEL] Epoch ended. INSTR misses = 0, DATA misses = 0. Winner = INSTR
[DUEL] Epoch ended. INSTR misses = 0, DATA misses = 0. Winner = INSTR
[DUEL] Epoch ended. INSTR misses = 0, DATA misses = 0. Winner = INSTR
[DUEL] Epoch ended. INSTR misses = 16, DATA misses = 16. Winner = INSTR
[DUEL] Epoch ended. INSTR misses = 0, DATA misses = 0. Winner = INSTR
[DUEL] Epoch ended. INSTR misses = 0, DATA misses = 3. Winner = INSTR
[DUEL] Epoch ended. INSTR misses = 9, DATA misses = 4. Winner = DATA
[DUEL] Epoch ended. INSTR misses = 2, DATA misses = 0. Winner = DATA
[DUEL] Epoch ended. INSTR misses = 3, DATA misses = 0. Winner = DATA
[DUEL] Epoch ended. INSTR misses = 12, DATA misses = 1. Winner = DATA
Heartbeat CPU 0 instructions: 10000003 cycles: 1715536 heartbeat IPC: 5.829 cumulative IPC: 5.829 (Simulation time: 00 hr 00 min 20 sec)
[DUEL] Epoch ended. INSTR misses = 1, DATA misses = 10. Winner = INSTR
[DUEL] Epoch ended. INSTR misses = 25, DATA misses = 18. Winner = DATA
[DUEL] Epoch ended. INSTR misses = 107, DATA misses = 126. Winner = INSTR
Heartbeat CPU 0 instructions: 20000000 cycles: 3431966 heartbeat IPC: 5.826 cumulative IPC: 5.828 (Simulation time: 00 hr 00 min 41 sec)
[DUEL] Epoch ended. INSTR misses = 45, DATA misses = 39. Winner = DATA
Heartbeat CPU 0 instructions: 30000007 cycles: 5098737 heartbeat IPC: 6 cumulative IPC: 5.884 (Simulation time: 00 hr 01 min 00 sec)
Warmup finished CPU 0 instructions: 30000007 cycles: 5098738 cumulative IPC: 5.884 (Simulation time: 00 hr 01 min 00 sec)
Warmup complete CPU 0 instructions: 30000007 cycles: 5098738 cumulative IPC: 5.884 (Simulation time: 00 hr 01 min 00 sec)
[DUEL] Epoch ended. INSTR misses = 2, DATA misses = 5. Winner = INSTR
Heartbeat CPU 0 instructions: 40000004 cycles: 6766502 heartbeat IPC: 5.996 cumulative IPC: 5.996 (Simulation time: 00 hr 01 min 23 sec)
Heartbeat CPU 0 instructions: 50000000 cycles: 8433163 heartbeat IPC: 6 cumulative IPC: 5.998 (Simulation time: 00 hr 01 min 45 sec)
[DUEL] Epoch ended. INSTR misses = 1, DATA misses = 0. Winner = DATA
[DUEL] Epoch ended. INSTR misses = 0, DATA misses = 0. Winner = INSTR
*** Reached end of trace: (0, "../traces/secret_traces/crypto/crypto3.champsimtrace.xz")
[DUEL] Epoch ended. INSTR misses = 19, DATA misses = 27. Winner = INSTR
[DUEL] Epoch ended. INSTR misses = 25, DATA misses = 20. Winner = DATA
[DUEL] Epoch ended. INSTR misses = 0, DATA misses = 3. Winner = INSTR
[DUEL] Epoch ended. INSTR misses = 0, DATA misses = 0. Winner = INSTR
[DUEL] Epoch ended. INSTR misses = 0, DATA misses = 0. Winner = INSTR
[DUEL] Epoch ended. INSTR misses = 0, DATA misses = 0. Winner = INSTR
[DUEL] Epoch ended. INSTR misses = 0, DATA misses = 0. Winner = INSTR
[DUEL] Epoch ended. INSTR misses = 0, DATA misses = 0. Winner = INSTR
[DUEL] Epoch ended. INSTR misses = 0, DATA misses = 0. Winner = INSTR
[DUEL] Epoch ended. INSTR misses = 0, DATA misses = 3. Winner = INSTR
[DUEL] Epoch ended. INSTR misses = 5, DATA misses = 0. Winner = DATA
[DUEL] Epoch ended. INSTR misses = 1, DATA misses = 0. Winner = DATA
[DUEL] Epoch ended. INSTR misses = 11, DATA misses = 5. Winner = DATA
Heartbeat CPU 0 instructions: 60000004 cycles: 10878726 heartbeat IPC: 4.089 cumulative IPC: 5.19 (Simulation time: 00 hr 02 min 12 sec)
Heartbeat CPU 0 instructions: 70000007 cycles: 12545394 heartbeat IPC: 6 cumulative IPC: 5.372 (Simulation time: 00 hr 02 min 35 sec)
[DUEL] Epoch ended. INSTR misses = 2, DATA misses = 3. Winner = INSTR
[DUEL] Epoch ended. INSTR misses = 4, DATA misses = 2. Winner = DATA
[DUEL] Epoch ended. INSTR misses = 61, DATA misses = 83. Winner = INSTR
Heartbeat CPU 0 instructions: 80000003 cycles: 14856651 heartbeat IPC: 4.327 cumulative IPC: 5.124 (Simulation time: 00 hr 03 min 01 sec)
[DUEL] Epoch ended. INSTR misses = 24, DATA misses = 24. Winner = INSTR
Heartbeat CPU 0 instructions: 90000000 cycles: 16538677 heartbeat IPC: 5.945 cumulative IPC: 5.245 (Simulation time: 00 hr 03 min 24 sec)
[DUEL] Epoch ended. INSTR misses = 2, DATA misses = 3. Winner = INSTR
Heartbeat CPU 0 instructions: 100000004 cycles: 18206216 heartbeat IPC: 5.997 cumulative IPC: 5.34 (Simulation time: 00 hr 03 min 47 sec)
[DUEL] Epoch ended. INSTR misses = 0, DATA misses = 0. Winner = INSTR
[DUEL] Epoch ended. INSTR misses = 0, DATA misses = 0. Winner = INSTR
*** Reached end of trace: (0, "../traces/secret_traces/crypto/crypto3.champsimtrace.xz")
[DUEL] Epoch ended. INSTR misses = 10, DATA misses = 20. Winner = INSTR
[DUEL] Epoch ended. INSTR misses = 24, DATA misses = 14. Winner = DATA
[DUEL] Epoch ended. INSTR misses = 0, DATA misses = 3. Winner = INSTR
[DUEL] Epoch ended. INSTR misses = 0, DATA misses = 0. Winner = INSTR
[DUEL] Epoch ended. INSTR misses = 0, DATA misses = 0. Winner = INSTR
[DUEL] Epoch ended. INSTR misses = 0, DATA misses = 0. Winner = INSTR
[DUEL] Epoch ended. INSTR misses = 0, DATA misses = 0. Winner = INSTR
[DUEL] Epoch ended. INSTR misses = 0, DATA misses = 0. Winner = INSTR
[DUEL] Epoch ended. INSTR misses = 0, DATA misses = 0. Winner = INSTR
[DUEL] Epoch ended. INSTR misses = 0, DATA misses = 3. Winner = INSTR
[DUEL] Epoch ended. INSTR misses = 5, DATA misses = 0. Winner = DATA
[DUEL] Epoch ended. INSTR misses = 3, DATA misses = 0. Winner = DATA
Heartbeat CPU 0 instructions: 110000004 cycles: 20462375 heartbeat IPC: 4.432 cumulative IPC: 5.207 (Simulation time: 00 hr 04 min 13 sec)
[DUEL] Epoch ended. INSTR misses = 12, DATA misses = 0. Winner = DATA
Heartbeat CPU 0 instructions: 120000000 cycles: 22185439 heartbeat IPC: 5.804 cumulative IPC: 5.267 (Simulation time: 00 hr 04 min 36 sec)
[DUEL] Epoch ended. INSTR misses = 2, DATA misses = 4. Winner = INSTR
[DUEL] Epoch ended. INSTR misses = 4, DATA misses = 5. Winner = INSTR
[DUEL] Epoch ended. INSTR misses = 45, DATA misses = 71. Winner = INSTR
Heartbeat CPU 0 instructions: 130000003 cycles: 24327928 heartbeat IPC: 4.667 cumulative IPC: 5.2 (Simulation time: 00 hr 05 min 01 sec)
Simulation finished CPU 0 instructions: 100000007 cycles: 19229193 cumulative IPC: 5.2 (Simulation time: 00 hr 05 min 01 sec)
Simulation complete CPU 0 instructions: 100000007 cycles: 19229193 cumulative IPC: 5.2 (Simulation time: 00 hr 05 min 01 sec)

ChampSim completed all CPUs

=== Simulation ===
CPU 0 runs ../traces/secret_traces/crypto/crypto3.champsimtrace.xz
Region of Interest Statistics

CPU 0 cumulative IPC: 5.2 instructions: 100000007 cycles: 19229193
CPU 0 Branch Prediction Accuracy: 99.49% MPKI: 0.5588 Average ROB Occupancy at Mispredict: 32.03
Branch type MPKI
BRANCH_DIRECT_JUMP: 0.0293
BRANCH_INDIRECT: 0.273
BRANCH_CONDITIONAL: 0.112
BRANCH_DIRECT_CALL: 0.0859
BRANCH_INDIRECT_CALL: 0.011
BRANCH_RETURN: 0.0471

LLC TOTAL        ACCESS:     231012 HIT:     158285 MISS:      72727
LLC LOAD         ACCESS:      23017 HIT:      12094 MISS:      10923
LLC RFO          ACCESS:      70089 HIT:      49690 MISS:      20399
LLC PREFETCH     ACCESS:      58259 HIT:      29507 MISS:      28752
LLC WRITE        ACCESS:      78224 HIT:      66731 MISS:      11493
LLC TRANSLATION  ACCESS:       1423 HIT:        263 MISS:       1160
LLC PREFETCH REQUESTED:          0 ISSUED:          0 USEFUL:          0 USELESS:          0
LLC AVERAGE MISS LATENCY: 178.9 cycles
cpu0_DTLB TOTAL        ACCESS:   11131084 HIT:   11108957 MISS:      22127
cpu0_DTLB LOAD         ACCESS:   11131084 HIT:   11108957 MISS:      22127
cpu0_DTLB RFO          ACCESS:          0 HIT:          0 MISS:          0
cpu0_DTLB PREFETCH     ACCESS:          0 HIT:          0 MISS:          0
cpu0_DTLB WRITE        ACCESS:          0 HIT:          0 MISS:          0
cpu0_DTLB TRANSLATION  ACCESS:          0 HIT:          0 MISS:          0
cpu0_DTLB PREFETCH REQUESTED:          0 ISSUED:          0 USEFUL:          0 USELESS:          0
cpu0_DTLB AVERAGE MISS LATENCY: 11.97 cycles
cpu0_ITLB TOTAL        ACCESS:     387015 HIT:     378914 MISS:       8101
cpu0_ITLB LOAD         ACCESS:     387015 HIT:     378914 MISS:       8101
cpu0_ITLB RFO          ACCESS:          0 HIT:          0 MISS:          0
cpu0_ITLB PREFETCH     ACCESS:          0 HIT:          0 MISS:          0
cpu0_ITLB WRITE        ACCESS:          0 HIT:          0 MISS:          0
cpu0_ITLB TRANSLATION  ACCESS:          0 HIT:          0 MISS:          0
cpu0_ITLB PREFETCH REQUESTED:          0 ISSUED:          0 USEFUL:          0 USELESS:          0
cpu0_ITLB AVERAGE MISS LATENCY: 21.83 cycles
cpu0_L1D TOTAL        ACCESS:   17325216 HIT:   16991806 MISS:     333410
cpu0_L1D LOAD         ACCESS:   11164490 HIT:   11078856 MISS:      85634
cpu0_L1D RFO          ACCESS:          0 HIT:          0 MISS:          0
cpu0_L1D PREFETCH     ACCESS:     286492 HIT:     228049 MISS:      58443
cpu0_L1D WRITE        ACCESS:    5871386 HIT:    5683895 MISS:     187491
cpu0_L1D TRANSLATION  ACCESS:       2848 HIT:       1006 MISS:       1842
cpu0_L1D PREFETCH REQUESTED:    2274036 ISSUED:     286492 USEFUL:       6821 USELESS:        675
cpu0_L1D AVERAGE MISS LATENCY: 34.1 cycles
cpu0_L1I TOTAL        ACCESS:     563737 HIT:     466817 MISS:      96920
cpu0_L1I LOAD         ACCESS:     186858 HIT:     161998 MISS:      24860
cpu0_L1I RFO          ACCESS:          0 HIT:          0 MISS:          0
cpu0_L1I PREFETCH     ACCESS:     376879 HIT:     304819 MISS:      72060
cpu0_L1I WRITE        ACCESS:          0 HIT:          0 MISS:          0
cpu0_L1I TRANSLATION  ACCESS:          0 HIT:          0 MISS:          0
cpu0_L1I PREFETCH REQUESTED:     586622 ISSUED:     376879 USEFUL:      38906 USELESS:      29523
cpu0_L1I AVERAGE MISS LATENCY: 31.28 cycles
cpu0_L2C TOTAL        ACCESS:     537593 HIT:     338464 MISS:     199129
cpu0_L2C LOAD         ACCESS:      71376 HIT:      42531 MISS:      28845
cpu0_L2C RFO          ACCESS:      77539 HIT:       7410 MISS:      70129
cpu0_L2C PREFETCH     ACCESS:     298402 HIT:     199670 MISS:      98732
cpu0_L2C WRITE        ACCESS:      88495 HIT:      88495 MISS:          0
cpu0_L2C TRANSLATION  ACCESS:       1781 HIT:        358 MISS:       1423
cpu0_L2C PREFETCH REQUESTED:     188731 ISSUED:     181047 USEFUL:      15863 USELESS:      13666
cpu0_L2C AVERAGE MISS LATENCY: 78.17 cycles
cpu0_STLB TOTAL        ACCESS:      13579 HIT:      10969 MISS:       2610
cpu0_STLB LOAD         ACCESS:      13579 HIT:      10969 MISS:       2610
cpu0_STLB RFO          ACCESS:          0 HIT:          0 MISS:          0
cpu0_STLB PREFETCH     ACCESS:          0 HIT:          0 MISS:          0
cpu0_STLB WRITE        ACCESS:          0 HIT:          0 MISS:          0
cpu0_STLB TRANSLATION  ACCESS:          0 HIT:          0 MISS:          0
cpu0_STLB PREFETCH REQUESTED:          0 ISSUED:          0 USEFUL:          0 USELESS:          0
cpu0_STLB AVERAGE MISS LATENCY: 147.1 cycles

DRAM Statistics

Channel 0 RQ ROW_BUFFER_HIT:      14265
  ROW_BUFFER_MISS:      16853
 AVG DBUS CONGESTED CYCLE: 3.908
WQ ROW_BUFFER_HIT: Channel 0 
  ROW_BUFFER_MISS:       1284
  FULL:      10249

Channel 1 RQ ROW_BUFFER_HIT:      13780
  ROW_BUFFER_MISS:      16312
 AVG DBUS CONGESTED CYCLE: 3.898
WQ ROW_BUFFER_HIT: Channel 1 
  ROW_BUFFER_MISS:       1293
  FULL:       9647
BERTI TO_L1: 790622 TO_L2: 1975962 TO_L2_BC_MSHR: 1178571
BERTI AVG_LAT: 66.898 NUM_TRACK_LATENCY: 93911 NUM_CANT_TRACK_LATENCY: 0
BERTI CROSS_PAGE 546900 NO_CROSS_PAGE: 2219684
BERTI FOUND_BERTI: 519364 NO_FOUND_BERTI: 14455895
BERTI AVERAGE_ISSUED: 4.16965
CPU 0 L1I Entangling prefetcher final stats
IP accesses: 6f71 1bdc40 873 / 187733
IP misses: e9db 3a76c0 167 / 25735
IP hits: 0 0 0 / 0
IP late: 59b0 166c00 25 / 12201
IP wrong: f801 3e0040 62 / 29403
miss rate: 0.137083
coverage: 0
coverage_late: 0.474102
accuracy: 0
accuracy_late: 0.293266
discarded: 0
evicts entangled j table: 0
evicts entangled k table: 3963
max bb size: 53
formats: 996 0 3497 1786 753 1604 0 
hist_lookups: 3204 3424 2522 2212 1941 1668 1255 926 784 575 438 302 188 114 65 0 3 4146 
hist_lookups_evict: 0.0126226 %
hist_lookups_shortlat: 17.4444 %
bb_found_hist: 0 46534 19855 9850 4259 2249 1010 715 265 48 13 70 60 46 15 20 2 0 0 0 0 4 0 0 0 0 0 0 0 0 0 2 0 0 2 0 0 0 0 0 0 0 0 0 0 0 0 0 0 0 0 0 0 2 0 0 0 0 0 0 0 0 0 0 
bb_found_summary: 160772 85021 1.89097
entangled_found_hist: 0 24365 19239 32959 6472 968 410 0 
entangled_found_summary: 194908 84413 2.30899
bb_ent_found_hist: 0 65923 29609 19559 7878 4548 2391 1189 751 20 22 115 56 20 19 57 76 0 0 0 0 28 0 0 0 0 0 0 0 0 0 2 0 0 3 0 0 0 0 0 0 0 0 0 0 0 0 0 0 0 0 0 0 2 0 0 0 0 0 0 0 0 0 0 
bb_ent_found_summary: 272539 132268 2.06051
