WARNING: physical memory size is smaller than virtual memory size.

*** ChampSim Multicore Out-of-Order Simulator ***
Warmup Instructions: 30000000
Simulation Instructions: 100000000
Number of CPUs: 1
Page size: 4096

BTB:
Basic BTB sets: 1024 ways: 8
Indirect:
history lengths: 0 0 10 16 27 44 60 96 109 219 449 487 714 1313 2146 3881 
ITTAGE tables: 64768 bytes;Region table: 240 bytes;IUM: 384 bytes;Total Storage= 65392 bytes;
RAS:
RAS size: 64
[LLC] INSTR Demand IPV: 1 2 2 1 4 Prefetch IPV: 1 2 1 1 4
[LLC] DATA  Demand IPV: 1 1 1 2 4 Prefetch IPV: 1 1 2 2 4
Berti Prefetcher
CPU 0 Entangling prefetcher
Off-chip DRAM Size: 8 GiB Channels: 2 Width: 64-bit Data Race: 6400 MT/s
[DUEL] Epoch ended. INSTR misses = 35, DATA misses = 43. Winner = INSTR
[DUEL] Epoch ended. INSTR misses = 16, DATA misses = 17. Winner = INSTR
[DUEL] Epoch ended. INSTR misses = 0, DATA misses = 0. Winner = INSTR
[DUEL] Epoch ended. INSTR misses = 0, DATA misses = 0. Winner = INSTR
[DUEL] Epoch ended. INSTR misses = 0, DATA misses = 0. Winner = INSTR
[DUEL] Epoch ended. INSTR misses = 0, DATA misses = 0. Winner = INSTR
[DUEL] Epoch ended. INSTR misses = 16, DATA misses = 16. Winner = INSTR
[DUEL] Epoch ended. INSTR misses = 0, DATA misses = 0. Winner = INSTR
[DUEL] Epoch ended. INSTR misses = 0, DATA misses = 0. Winner = INSTR
[DUEL] Epoch ended. INSTR misses = 6, DATA misses = 4. Winner = DATA
[DUEL] Epoch ended. INSTR misses = 0, DATA misses = 0. Winner = INSTR
[DUEL] Epoch ended. INSTR misses = 0, DATA misses = 0. Winner = INSTR
Heartbeat CPU 0 instructions: 10000003 cycles: 1733572 heartbeat IPC: 5.768 cumulative IPC: 5.768 (Simulation time: 00 hr 00 min 21 sec)
[DUEL] Epoch ended. INSTR misses = 8, DATA misses = 11. Winner = INSTR
[DUEL] Epoch ended. INSTR misses = 21, DATA misses = 16. Winner = DATA
[DUEL] Epoch ended. INSTR misses = 103, DATA misses = 106. Winner = INSTR
Heartbeat CPU 0 instructions: 20000005 cycles: 3474959 heartbeat IPC: 5.743 cumulative IPC: 5.755 (Simulation time: 00 hr 00 min 42 sec)
[DUEL] Epoch ended. INSTR misses = 38, DATA misses = 47. Winner = INSTR
*** Reached end of trace: (0, "../traces/secret_traces/crypto/crypto59.champsimtrace.xz")
[DUEL] Epoch ended. INSTR misses = 12, DATA misses = 18. Winner = INSTR
[DUEL] Epoch ended. INSTR misses = 14, DATA misses = 21. Winner = INSTR
[DUEL] Epoch ended. INSTR misses = 0, DATA misses = 0. Winner = INSTR
[DUEL] Epoch ended. INSTR misses = 0, DATA misses = 0. Winner = INSTR
[DUEL] Epoch ended. INSTR misses = 0, DATA misses = 0. Winner = INSTR
[DUEL] Epoch ended. INSTR misses = 0, DATA misses = 0. Winner = INSTR
[DUEL] Epoch ended. INSTR misses = 0, DATA misses = 0. Winner = INSTR
[DUEL] Epoch ended. INSTR misses = 2, DATA misses = 1. Winner = DATA
[DUEL] Epoch ended. INSTR misses = 0, DATA misses = 0. Winner = INSTR
[DUEL] Epoch ended. INSTR misses = 0, DATA misses = 1. Winner = INSTR
[DUEL] Epoch ended. INSTR misses = 4, DATA misses = 0. Winner = DATA
[DUEL] Epoch ended. INSTR misses = 0, DATA misses = 0. Winner = INSTR
Heartbeat CPU 0 instructions: 30000001 cycles: 5211653 heartbeat IPC: 5.758 cumulative IPC: 5.756 (Simulation time: 00 hr 01 min 04 sec)
Warmup finished CPU 0 instructions: 30000001 cycles: 5211654 cumulative IPC: 5.756 (Simulation time: 00 hr 01 min 04 sec)
Warmup complete CPU 0 instructions: 30000001 cycles: 5211654 cumulative IPC: 5.756 (Simulation time: 00 hr 01 min 04 sec)
[DUEL] Epoch ended. INSTR misses = 0, DATA misses = 0. Winner = INSTR
Heartbeat CPU 0 instructions: 40000003 cycles: 6970164 heartbeat IPC: 5.687 cumulative IPC: 5.687 (Simulation time: 00 hr 01 min 27 sec)
[DUEL] Epoch ended. INSTR misses = 8, DATA misses = 8. Winner = INSTR
[DUEL] Epoch ended. INSTR misses = 4, DATA misses = 3. Winner = DATA
[DUEL] Epoch ended. INSTR misses = 24, DATA misses = 38. Winner = INSTR
Heartbeat CPU 0 instructions: 50000001 cycles: 9269293 heartbeat IPC: 4.349 cumulative IPC: 4.929 (Simulation time: 00 hr 01 min 54 sec)
[DUEL] Epoch ended. INSTR misses = 22, DATA misses = 29. Winner = INSTR
*** Reached end of trace: (0, "../traces/secret_traces/crypto/crypto59.champsimtrace.xz")
[DUEL] Epoch ended. INSTR misses = 8, DATA misses = 12. Winner = INSTR
[DUEL] Epoch ended. INSTR misses = 14, DATA misses = 18. Winner = INSTR
[DUEL] Epoch ended. INSTR misses = 0, DATA misses = 0. Winner = INSTR
[DUEL] Epoch ended. INSTR misses = 0, DATA misses = 0. Winner = INSTR
[DUEL] Epoch ended. INSTR misses = 0, DATA misses = 0. Winner = INSTR
[DUEL] Epoch ended. INSTR misses = 0, DATA misses = 0. Winner = INSTR
[DUEL] Epoch ended. INSTR misses = 0, DATA misses = 0. Winner = INSTR
[DUEL] Epoch ended. INSTR misses = 1, DATA misses = 0. Winner = DATA
[DUEL] Epoch ended. INSTR misses = 0, DATA misses = 0. Winner = INSTR
[DUEL] Epoch ended. INSTR misses = 0, DATA misses = 2. Winner = INSTR
[DUEL] Epoch ended. INSTR misses = 3, DATA misses = 0. Winner = DATA
[DUEL] Epoch ended. INSTR misses = 1, DATA misses = 0. Winner = DATA
[DUEL] Epoch ended. INSTR misses = 0, DATA misses = 0. Winner = INSTR
Heartbeat CPU 0 instructions: 60000002 cycles: 11553362 heartbeat IPC: 4.378 cumulative IPC: 4.731 (Simulation time: 00 hr 02 min 21 sec)
[DUEL] Epoch ended. INSTR misses = 8, DATA misses = 6. Winner = DATA
[DUEL] Epoch ended. INSTR misses = 4, DATA misses = 2. Winner = DATA
[DUEL] Epoch ended. INSTR misses = 19, DATA misses = 31. Winner = INSTR
Heartbeat CPU 0 instructions: 70000004 cycles: 13743603 heartbeat IPC: 4.566 cumulative IPC: 4.688 (Simulation time: 00 hr 02 min 47 sec)
[DUEL] Epoch ended. INSTR misses = 20, DATA misses = 23. Winner = INSTR
*** Reached end of trace: (0, "../traces/secret_traces/crypto/crypto59.champsimtrace.xz")
[DUEL] Epoch ended. INSTR misses = 8, DATA misses = 14. Winner = INSTR
[DUEL] Epoch ended. INSTR misses = 11, DATA misses = 18. Winner = INSTR
[DUEL] Epoch ended. INSTR misses = 0, DATA misses = 0. Winner = INSTR
[DUEL] Epoch ended. INSTR misses = 0, DATA misses = 0. Winner = INSTR
[DUEL] Epoch ended. INSTR misses = 0, DATA misses = 0. Winner = INSTR
[DUEL] Epoch ended. INSTR misses = 0, DATA misses = 0. Winner = INSTR
[DUEL] Epoch ended. INSTR misses = 0, DATA misses = 0. Winner = INSTR
[DUEL] Epoch ended. INSTR misses = 0, DATA misses = 0. Winner = INSTR
[DUEL] Epoch ended. INSTR misses = 0, DATA misses = 0. Winner = INSTR
[DUEL] Epoch ended. INSTR misses = 0, DATA misses = 2. Winner = INSTR
[DUEL] Epoch ended. INSTR misses = 3, DATA misses = 2. Winner = DATA
[DUEL] Epoch ended. INSTR misses = 1, DATA misses = 0. Winner = DATA
Heartbeat CPU 0 instructions: 80000002 cycles: 15911169 heartbeat IPC: 4.613 cumulative IPC: 4.673 (Simulation time: 00 hr 03 min 13 sec)
[DUEL] Epoch ended. INSTR misses = 0, DATA misses = 0. Winner = INSTR
Heartbeat CPU 0 instructions: 90000007 cycles: 17660838 heartbeat IPC: 5.715 cumulative IPC: 4.82 (Simulation time: 00 hr 03 min 37 sec)
[DUEL] Epoch ended. INSTR misses = 3, DATA misses = 5. Winner = INSTR
[DUEL] Epoch ended. INSTR misses = 5, DATA misses = 1. Winner = DATA
[DUEL] Epoch ended. INSTR misses = 20, DATA misses = 30. Winner = INSTR
Heartbeat CPU 0 instructions: 100000005 cycles: 19784356 heartbeat IPC: 4.709 cumulative IPC: 4.804 (Simulation time: 00 hr 04 min 02 sec)
[DUEL] Epoch ended. INSTR misses = 21, DATA misses = 21. Winner = INSTR
*** Reached end of trace: (0, "../traces/secret_traces/crypto/crypto59.champsimtrace.xz")
[DUEL] Epoch ended. INSTR misses = 7, DATA misses = 14. Winner = INSTR
[DUEL] Epoch ended. INSTR misses = 10, DATA misses = 17. Winner = INSTR
[DUEL] Epoch ended. INSTR misses = 0, DATA misses = 0. Winner = INSTR
[DUEL] Epoch ended. INSTR misses = 0, DATA misses = 0. Winner = INSTR
[DUEL] Epoch ended. INSTR misses = 0, DATA misses = 0. Winner = INSTR
[DUEL] Epoch ended. INSTR misses = 0, DATA misses = 0. Winner = INSTR
[DUEL] Epoch ended. INSTR misses = 0, DATA misses = 0. Winner = INSTR
[DUEL] Epoch ended. INSTR misses = 0, DATA misses = 0. Winner = INSTR
[DUEL] Epoch ended. INSTR misses = 0, DATA misses = 0. Winner = INSTR
[DUEL] Epoch ended. INSTR misses = 0, DATA misses = 2. Winner = INSTR
[DUEL] Epoch ended. INSTR misses = 3, DATA misses = 0. Winner = DATA
[DUEL] Epoch ended. INSTR misses = 1, DATA misses = 0. Winner = DATA
[DUEL] Epoch ended. INSTR misses = 0, DATA misses = 0. Winner = INSTR
Heartbeat CPU 0 instructions: 110000002 cycles: 21975814 heartbeat IPC: 4.563 cumulative IPC: 4.772 (Simulation time: 00 hr 04 min 29 sec)
[DUEL] Epoch ended. INSTR misses = 4, DATA misses = 4. Winner = INSTR
[DUEL] Epoch ended. INSTR misses = 4, DATA misses = 1. Winner = DATA
[DUEL] Epoch ended. INSTR misses = 17, DATA misses = 30. Winner = INSTR
Heartbeat CPU 0 instructions: 120000005 cycles: 24076626 heartbeat IPC: 4.76 cumulative IPC: 4.771 (Simulation time: 00 hr 04 min 55 sec)
[DUEL] Epoch ended. INSTR misses = 18, DATA misses = 21. Winner = INSTR
*** Reached end of trace: (0, "../traces/secret_traces/crypto/crypto59.champsimtrace.xz")
[DUEL] Epoch ended. INSTR misses = 8, DATA misses = 13. Winner = INSTR
[DUEL] Epoch ended. INSTR misses = 11, DATA misses = 17. Winner = INSTR
[DUEL] Epoch ended. INSTR misses = 0, DATA misses = 0. Winner = INSTR
[DUEL] Epoch ended. INSTR misses = 0, DATA misses = 0. Winner = INSTR
[DUEL] Epoch ended. INSTR misses = 0, DATA misses = 0. Winner = INSTR
[DUEL] Epoch ended. INSTR misses = 0, DATA misses = 0. Winner = INSTR
[DUEL] Epoch ended. INSTR misses = 0, DATA misses = 0. Winner = INSTR
[DUEL] Epoch ended. INSTR misses = 0, DATA misses = 0. Winner = INSTR
[DUEL] Epoch ended. INSTR misses = 0, DATA misses = 0. Winner = INSTR
Heartbeat CPU 0 instructions: 130000001 cycles: 26114482 heartbeat IPC: 4.907 cumulative IPC: 4.784 (Simulation time: 00 hr 05 min 20 sec)
Simulation finished CPU 0 instructions: 100000000 cycles: 20902829 cumulative IPC: 4.784 (Simulation time: 00 hr 05 min 20 sec)
Simulation complete CPU 0 instructions: 100000000 cycles: 20902829 cumulative IPC: 4.784 (Simulation time: 00 hr 05 min 20 sec)

ChampSim completed all CPUs

=== Simulation ===
CPU 0 runs ../traces/secret_traces/crypto/crypto59.champsimtrace.xz
Region of Interest Statistics

CPU 0 cumulative IPC: 4.784 instructions: 100000000 cycles: 20902829
CPU 0 Branch Prediction Accuracy: 99.5% MPKI: 0.8945 Average ROB Occupancy at Mispredict: 32.6
Branch type MPKI
BRANCH_DIRECT_JUMP: 0.0545
BRANCH_INDIRECT: 0.475
BRANCH_CONDITIONAL: 0.113
BRANCH_DIRECT_CALL: 0.151
BRANCH_INDIRECT_CALL: 0.0179
BRANCH_RETURN: 0.0828

LLC TOTAL        ACCESS:     445669 HIT:     325059 MISS:     120610
LLC LOAD         ACCESS:      42153 HIT:      23877 MISS:      18276
LLC RFO          ACCESS:     136877 HIT:     106308 MISS:      30569
LLC PREFETCH     ACCESS:     110782 HIT:      58892 MISS:      51890
LLC WRITE        ACCESS:     153493 HIT:     135381 MISS:      18112
LLC TRANSLATION  ACCESS:       2364 HIT:        601 MISS:       1763
LLC PREFETCH REQUESTED:          0 ISSUED:          0 USEFUL:          0 USELESS:          0
LLC AVERAGE MISS LATENCY: 177.3 cycles
cpu0_DTLB TOTAL        ACCESS:   11656536 HIT:   11614131 MISS:      42405
cpu0_DTLB LOAD         ACCESS:   11656536 HIT:   11614131 MISS:      42405
cpu0_DTLB RFO          ACCESS:          0 HIT:          0 MISS:          0
cpu0_DTLB PREFETCH     ACCESS:          0 HIT:          0 MISS:          0
cpu0_DTLB WRITE        ACCESS:          0 HIT:          0 MISS:          0
cpu0_DTLB TRANSLATION  ACCESS:          0 HIT:          0 MISS:          0
cpu0_DTLB PREFETCH REQUESTED:          0 ISSUED:          0 USEFUL:          0 USELESS:          0
cpu0_DTLB AVERAGE MISS LATENCY: 9.53 cycles
cpu0_ITLB TOTAL        ACCESS:     738101 HIT:     723106 MISS:      14995
cpu0_ITLB LOAD         ACCESS:     738101 HIT:     723106 MISS:      14995
cpu0_ITLB RFO          ACCESS:          0 HIT:          0 MISS:          0
cpu0_ITLB PREFETCH     ACCESS:          0 HIT:          0 MISS:          0
cpu0_ITLB WRITE        ACCESS:          0 HIT:          0 MISS:          0
cpu0_ITLB TRANSLATION  ACCESS:          0 HIT:          0 MISS:          0
cpu0_ITLB PREFETCH REQUESTED:          0 ISSUED:          0 USEFUL:          0 USELESS:          0
cpu0_ITLB AVERAGE MISS LATENCY: 18.47 cycles
cpu0_L1D TOTAL        ACCESS:   19532520 HIT:   18879633 MISS:     652887
cpu0_L1D LOAD         ACCESS:    5032886 HIT:    4867290 MISS:     165596
cpu0_L1D RFO          ACCESS:          0 HIT:          0 MISS:          0
cpu0_L1D PREFETCH     ACCESS:     502955 HIT:     386727 MISS:     116228
cpu0_L1D WRITE        ACCESS:   13991759 HIT:   13623782 MISS:     367977
cpu0_L1D TRANSLATION  ACCESS:       4920 HIT:       1834 MISS:       3086
cpu0_L1D PREFETCH REQUESTED:    3603511 ISSUED:     502955 USEFUL:      16064 USELESS:       1269
cpu0_L1D AVERAGE MISS LATENCY: 28.69 cycles
cpu0_L1I TOTAL        ACCESS:    1075111 HIT:     899265 MISS:     175846
cpu0_L1I LOAD         ACCESS:     350612 HIT:     311329 MISS:      39283
cpu0_L1I RFO          ACCESS:          0 HIT:          0 MISS:          0
cpu0_L1I PREFETCH     ACCESS:     724499 HIT:     587936 MISS:     136563
cpu0_L1I WRITE        ACCESS:          0 HIT:          0 MISS:          0
cpu0_L1I TRANSLATION  ACCESS:          0 HIT:          0 MISS:          0
cpu0_L1I PREFETCH REQUESTED:    1165745 ISSUED:     724499 USEFUL:      77047 USELESS:      53813
cpu0_L1I AVERAGE MISS LATENCY: 31.86 cycles
cpu0_L2C TOTAL        ACCESS:    1018525 HIT:     642254 MISS:     376271
cpu0_L2C LOAD         ACCESS:     130029 HIT:      77514 MISS:      52515
cpu0_L2C RFO          ACCESS:     151006 HIT:      14067 MISS:     136939
cpu0_L2C PREFETCH     ACCESS:     561490 HIT:     377037 MISS:     184453
cpu0_L2C WRITE        ACCESS:     173031 HIT:     173031 MISS:          0
cpu0_L2C TRANSLATION  ACCESS:       2969 HIT:        605 MISS:       2364
cpu0_L2C PREFETCH REQUESTED:     354625 ISSUED:     336894 USEFUL:      27894 USELESS:      25226
cpu0_L2C AVERAGE MISS LATENCY: 69.67 cycles
cpu0_STLB TOTAL        ACCESS:      25696 HIT:      21173 MISS:       4523
cpu0_STLB LOAD         ACCESS:      25696 HIT:      21173 MISS:       4523
cpu0_STLB RFO          ACCESS:          0 HIT:          0 MISS:          0
cpu0_STLB PREFETCH     ACCESS:          0 HIT:          0 MISS:          0
cpu0_STLB WRITE        ACCESS:          0 HIT:          0 MISS:          0
cpu0_STLB TRANSLATION  ACCESS:          0 HIT:          0 MISS:          0
cpu0_STLB PREFETCH REQUESTED:          0 ISSUED:          0 USEFUL:          0 USELESS:          0
cpu0_STLB AVERAGE MISS LATENCY: 128.6 cycles

DRAM Statistics

Channel 0 RQ ROW_BUFFER_HIT:      24179
  ROW_BUFFER_MISS:      28117
 AVG DBUS CONGESTED CYCLE: 3.904
WQ ROW_BUFFER_HIT: Channel 0 
  ROW_BUFFER_MISS:       2028
  FULL:      15283

Channel 1 RQ ROW_BUFFER_HIT:      23032
  ROW_BUFFER_MISS:      27128
 AVG DBUS CONGESTED CYCLE: 3.884
WQ ROW_BUFFER_HIT: Channel 1 
  ROW_BUFFER_MISS:       2110
  FULL:      14191
BERTI TO_L1: 1290459 TO_L2: 3098395 TO_L2_BC_MSHR: 1802798
BERTI AVG_LAT: 69.1988 NUM_TRACK_LATENCY: 163812 NUM_CANT_TRACK_LATENCY: 0
BERTI CROSS_PAGE 970277 NO_CROSS_PAGE: 3418577
BERTI FOUND_BERTI: 884256 NO_FOUND_BERTI: 6563544
BERTI AVERAGE_ISSUED: 4.35363
CPU 0 L1I Entangling prefetcher final stats
IP accesses: 6f71 1bdc40 1753 / 351380
IP misses: 59a6 166980 186 / 40051
IP hits: 0 0 0 / 0
IP late: 6e9e 1ba780 52 / 19636
IP wrong: f801 3e0040 123 / 53597
miss rate: 0.113983
coverage: 0
coverage_late: 0.490275
accuracy: 0
accuracy_late: 0.268131
discarded: 0
evicts entangled j table: 0
evicts entangled k table: 6693
max bb size: 53
formats: 1659 0 5390 2703 1131 2057 0 
hist_lookups: 4189 4883 3904 3628 3272 2768 2131 1531 1198 1005 740 521 331 174 93 0 6 7120 
hist_lookups_evict: 0.0160026 %
hist_lookups_shortlat: 18.9898 %
bb_found_hist: 0 87859 38027 18747 9368 4194 1926 1501 513 107 8 105 119 98 27 40 3 6 0 0 0 7 0 0 0 0 0 0 0 0 0 3 0 0 3 0 0 0 0 0 0 0 0 0 0 0 0 0 0 0 0 0 0 3 0 0 0 0 0 0 0 0 0 0 
bb_found_summary: 311292 162664 1.91372
entangled_found_hist: 0 50912 33703 66476 12190 2250 497 0 
entangled_found_summary: 380738 166028 2.29322
bb_ent_found_hist: 0 128466 59744 39285 15585 10531 3903 2258 1324 284 0 72 103 103 8 200 260 3 0 0 0 143 0 0 0 0 0 0 0 0 0 3 0 0 6 0 0 0 0 0 0 0 0 0 0 0 0 0 0 0 0 0 0 5 0 0 0 0 0 0 0 0 0 0 
bb_ent_found_summary: 547431 262286 2.08716
