WARNING: physical memory size is smaller than virtual memory size.

*** ChampSim Multicore Out-of-Order Simulator ***
Warmup Instructions: 30000000
Simulation Instructions: 100000000
Number of CPUs: 1
Page size: 4096

BTB:
Basic BTB sets: 1024 ways: 8
Indirect:
history lengths: 0 0 10 16 27 44 60 96 109 219 449 487 714 1313 2146 3881 
ITTAGE tables: 64768 bytes;Region table: 240 bytes;IUM: 384 bytes;Total Storage= 65392 bytes;
RAS:
RAS size: 64
[LLC] INSTR Demand IPV: 1 2 2 1 4 Prefetch IPV: 1 2 1 1 4
[LLC] DATA  Demand IPV: 1 1 1 2 4 Prefetch IPV: 1 1 2 2 4
Berti Prefetcher
CPU 0 Entangling prefetcher
Off-chip DRAM Size: 8 GiB Channels: 2 Width: 64-bit Data Race: 6400 MT/s
[DUEL] Epoch ended. INSTR misses = 111, DATA misses = 126. Winner = INSTR
[DUEL] Epoch ended. INSTR misses = 49, DATA misses = 51. Winner = INSTR
[DUEL] Epoch ended. INSTR misses = 18, DATA misses = 23. Winner = INSTR
[DUEL] Epoch ended. INSTR misses = 1, DATA misses = 8. Winner = INSTR
[DUEL] Epoch ended. INSTR misses = 16, DATA misses = 18. Winner = INSTR
[DUEL] Epoch ended. INSTR misses = 50, DATA misses = 56. Winner = INSTR
[DUEL] Epoch ended. INSTR misses = 50, DATA misses = 38. Winner = DATA
[DUEL] Epoch ended. INSTR misses = 14, DATA misses = 12. Winner = DATA
[DUEL] Epoch ended. INSTR misses = 20, DATA misses = 10. Winner = DATA
[DUEL] Epoch ended. INSTR misses = 59, DATA misses = 73. Winner = INSTR
[DUEL] Epoch ended. INSTR misses = 8, DATA misses = 9. Winner = INSTR
[DUEL] Epoch ended. INSTR misses = 0, DATA misses = 0. Winner = INSTR
[DUEL] Epoch ended. INSTR misses = 1, DATA misses = 0. Winner = DATA
[DUEL] Epoch ended. INSTR misses = 0, DATA misses = 1. Winner = INSTR
[DUEL] Epoch ended. INSTR misses = 0, DATA misses = 0. Winner = INSTR
[DUEL] Epoch ended. INSTR misses = 0, DATA misses = 0. Winner = INSTR
[DUEL] Epoch ended. INSTR misses = 9, DATA misses = 2. Winner = DATA
[DUEL] Epoch ended. INSTR misses = 0, DATA misses = 6. Winner = INSTR
[DUEL] Epoch ended. INSTR misses = 0, DATA misses = 0. Winner = INSTR
[DUEL] Epoch ended. INSTR misses = 1, DATA misses = 0. Winner = DATA
[DUEL] Epoch ended. INSTR misses = 17, DATA misses = 30. Winner = INSTR
[DUEL] Epoch ended. INSTR misses = 35, DATA misses = 53. Winner = INSTR
[DUEL] Epoch ended. INSTR misses = 10, DATA misses = 19. Winner = INSTR
[DUEL] Epoch ended. INSTR misses = 66, DATA misses = 74. Winner = INSTR
[DUEL] Epoch ended. INSTR misses = 61, DATA misses = 63. Winner = INSTR
[DUEL] Epoch ended. INSTR misses = 16, DATA misses = 18. Winner = INSTR
[DUEL] Epoch ended. INSTR misses = 0, DATA misses = 7. Winner = INSTR
[DUEL] Epoch ended. INSTR misses = 25, DATA misses = 39. Winner = INSTR
[DUEL] Epoch ended. INSTR misses = 2, DATA misses = 13. Winner = INSTR
[DUEL] Epoch ended. INSTR misses = 11, DATA misses = 18. Winner = INSTR
[DUEL] Epoch ended. INSTR misses = 24, DATA misses = 22. Winner = DATA
[DUEL] Epoch ended. INSTR misses = 32, DATA misses = 67. Winner = INSTR
[DUEL] Epoch ended. INSTR misses = 49, DATA misses = 72. Winner = INSTR
[DUEL] Epoch ended. INSTR misses = 23, DATA misses = 17. Winner = DATA
[DUEL] Epoch ended. INSTR misses = 20, DATA misses = 34. Winner = INSTR
[DUEL] Epoch ended. INSTR misses = 28, DATA misses = 58. Winner = INSTR
[DUEL] Epoch ended. INSTR misses = 68, DATA misses = 116. Winner = INSTR
[DUEL] Epoch ended. INSTR misses = 65, DATA misses = 104. Winner = INSTR
Heartbeat CPU 0 instructions: 10000006 cycles: 2077660 heartbeat IPC: 4.813 cumulative IPC: 4.813 (Simulation time: 00 hr 00 min 28 sec)
[DUEL] Epoch ended. INSTR misses = 56, DATA misses = 65. Winner = INSTR
[DUEL] Epoch ended. INSTR misses = 7, DATA misses = 16. Winner = INSTR
[DUEL] Epoch ended. INSTR misses = 49, DATA misses = 63. Winner = INSTR
[DUEL] Epoch ended. INSTR misses = 48, DATA misses = 36. Winner = DATA
[DUEL] Epoch ended. INSTR misses = 8, DATA misses = 19. Winner = INSTR
[DUEL] Epoch ended. INSTR misses = 40, DATA misses = 63. Winner = INSTR
[DUEL] Epoch ended. INSTR misses = 24, DATA misses = 26. Winner = INSTR
[DUEL] Epoch ended. INSTR misses = 32, DATA misses = 42. Winner = INSTR
[DUEL] Epoch ended. INSTR misses = 81, DATA misses = 87. Winner = INSTR
[DUEL] Epoch ended. INSTR misses = 61, DATA misses = 76. Winner = INSTR
[DUEL] Epoch ended. INSTR misses = 52, DATA misses = 45. Winner = DATA
[DUEL] Epoch ended. INSTR misses = 16, DATA misses = 16. Winner = INSTR
[DUEL] Epoch ended. INSTR misses = 16, DATA misses = 14. Winner = DATA
[DUEL] Epoch ended. INSTR misses = 0, DATA misses = 0. Winner = INSTR
[DUEL] Epoch ended. INSTR misses = 0, DATA misses = 0. Winner = INSTR
[DUEL] Epoch ended. INSTR misses = 3, DATA misses = 4. Winner = INSTR
[DUEL] Epoch ended. INSTR misses = 47, DATA misses = 51. Winner = INSTR
[DUEL] Epoch ended. INSTR misses = 55, DATA misses = 47. Winner = DATA
[DUEL] Epoch ended. INSTR misses = 45, DATA misses = 41. Winner = DATA
[DUEL] Epoch ended. INSTR misses = 52, DATA misses = 32. Winner = DATA
[DUEL] Epoch ended. INSTR misses = 6, DATA misses = 5. Winner = DATA
[DUEL] Epoch ended. INSTR misses = 27, DATA misses = 14. Winner = DATA
[DUEL] Epoch ended. INSTR misses = 16, DATA misses = 30. Winner = INSTR
[DUEL] Epoch ended. INSTR misses = 15, DATA misses = 37. Winner = INSTR
[DUEL] Epoch ended. INSTR misses = 25, DATA misses = 23. Winner = DATA
[DUEL] Epoch ended. INSTR misses = 21, DATA misses = 20. Winner = DATA
[DUEL] Epoch ended. INSTR misses = 1, DATA misses = 0. Winner = DATA
[DUEL] Epoch ended. INSTR misses = 4, DATA misses = 0. Winner = DATA
[DUEL] Epoch ended. INSTR misses = 0, DATA misses = 0. Winner = INSTR
[DUEL] Epoch ended. INSTR misses = 0, DATA misses = 0. Winner = INSTR
[DUEL] Epoch ended. INSTR misses = 0, DATA misses = 0. Winner = INSTR
[DUEL] Epoch ended. INSTR misses = 0, DATA misses = 0. Winner = INSTR
[DUEL] Epoch ended. INSTR misses = 3, DATA misses = 3. Winner = INSTR
[DUEL] Epoch ended. INSTR misses = 3, DATA misses = 0. Winner = DATA
[DUEL] Epoch ended. INSTR misses = 0, DATA misses = 0. Winner = INSTR
[DUEL] Epoch ended. INSTR misses = 1, DATA misses = 0. Winner = DATA
[DUEL] Epoch ended. INSTR misses = 14, DATA misses = 15. Winner = INSTR
[DUEL] Epoch ended. INSTR misses = 20, DATA misses = 3. Winner = DATA
Heartbeat CPU 0 instructions: 20000002 cycles: 4109374 heartbeat IPC: 4.922 cumulative IPC: 4.867 (Simulation time: 00 hr 00 min 56 sec)
[DUEL] Epoch ended. INSTR misses = 22, DATA misses = 28. Winner = INSTR
[DUEL] Epoch ended. INSTR misses = 10, DATA misses = 7. Winner = DATA
[DUEL] Epoch ended. INSTR misses = 16, DATA misses = 27. Winner = INSTR
[DUEL] Epoch ended. INSTR misses = 6, DATA misses = 3. Winner = DATA
[DUEL] Epoch ended. INSTR misses = 7, DATA misses = 10. Winner = INSTR
[DUEL] Epoch ended. INSTR misses = 47, DATA misses = 47. Winner = INSTR
[DUEL] Epoch ended. INSTR misses = 31, DATA misses = 42. Winner = INSTR
[DUEL] Epoch ended. INSTR misses = 12, DATA misses = 6. Winner = DATA
[DUEL] Epoch ended. INSTR misses = 4, DATA misses = 0. Winner = DATA
[DUEL] Epoch ended. INSTR misses = 5, DATA misses = 0. Winner = DATA
[DUEL] Epoch ended. INSTR misses = 0, DATA misses = 14. Winner = INSTR
[DUEL] Epoch ended. INSTR misses = 9, DATA misses = 5. Winner = DATA
[DUEL] Epoch ended. INSTR misses = 16, DATA misses = 6. Winner = DATA
[DUEL] Epoch ended. INSTR misses = 25, DATA misses = 28. Winner = INSTR
[DUEL] Epoch ended. INSTR misses = 3, DATA misses = 10. Winner = INSTR
[DUEL] Epoch ended. INSTR misses = 14, DATA misses = 25. Winner = INSTR
[DUEL] Epoch ended. INSTR misses = 67, DATA misses = 78. Winner = INSTR
[DUEL] Epoch ended. INSTR misses = 45, DATA misses = 46. Winner = INSTR
[DUEL] Epoch ended. INSTR misses = 52, DATA misses = 54. Winner = INSTR
[DUEL] Epoch ended. INSTR misses = 36, DATA misses = 51. Winner = INSTR
[DUEL] Epoch ended. INSTR misses = 4, DATA misses = 9. Winner = INSTR
[DUEL] Epoch ended. INSTR misses = 3, DATA misses = 3. Winner = INSTR
[DUEL] Epoch ended. INSTR misses = 0, DATA misses = 3. Winner = INSTR
[DUEL] Epoch ended. INSTR misses = 0, DATA misses = 4. Winner = INSTR
[DUEL] Epoch ended. INSTR misses = 6, DATA misses = 11. Winner = INSTR
[DUEL] Epoch ended. INSTR misses = 0, DATA misses = 3. Winner = INSTR
[DUEL] Epoch ended. INSTR misses = 1, DATA misses = 1. Winner = INSTR
[DUEL] Epoch ended. INSTR misses = 2, DATA misses = 0. Winner = DATA
[DUEL] Epoch ended. INSTR misses = 1, DATA misses = 0. Winner = DATA
[DUEL] Epoch ended. INSTR misses = 23, DATA misses = 19. Winner = DATA
[DUEL] Epoch ended. INSTR misses = 4, DATA misses = 0. Winner = DATA
[DUEL] Epoch ended. INSTR misses = 20, DATA misses = 26. Winner = INSTR
[DUEL] Epoch ended. INSTR misses = 1, DATA misses = 0. Winner = DATA
[DUEL] Epoch ended. INSTR misses = 3, DATA misses = 4. Winner = INSTR
[DUEL] Epoch ended. INSTR misses = 0, DATA misses = 0. Winner = INSTR
[DUEL] Epoch ended. INSTR misses = 0, DATA misses = 0. Winner = INSTR
[DUEL] Epoch ended. INSTR misses = 20, DATA misses = 17. Winner = DATA
Heartbeat CPU 0 instructions: 30000006 cycles: 5915029 heartbeat IPC: 5.538 cumulative IPC: 5.072 (Simulation time: 00 hr 01 min 22 sec)
Warmup finished CPU 0 instructions: 30000006 cycles: 5915030 cumulative IPC: 5.072 (Simulation time: 00 hr 01 min 22 sec)
Warmup complete CPU 0 instructions: 30000006 cycles: 5915030 cumulative IPC: 5.072 (Simulation time: 00 hr 01 min 22 sec)
[DUEL] Epoch ended. INSTR misses = 2, DATA misses = 0. Winner = DATA
[DUEL] Epoch ended. INSTR misses = 15, DATA misses = 26. Winner = INSTR
[DUEL] Epoch ended. INSTR misses = 2, DATA misses = 22. Winner = INSTR
[DUEL] Epoch ended. INSTR misses = 7, DATA misses = 6. Winner = DATA
[DUEL] Epoch ended. INSTR misses = 1, DATA misses = 3. Winner = INSTR
[DUEL] Epoch ended. INSTR misses = 0, DATA misses = 3. Winner = INSTR
[DUEL] Epoch ended. INSTR misses = 1, DATA misses = 5. Winner = INSTR
[DUEL] Epoch ended. INSTR misses = 0, DATA misses = 0. Winner = INSTR
[DUEL] Epoch ended. INSTR misses = 0, DATA misses = 0. Winner = INSTR
[DUEL] Epoch ended. INSTR misses = 0, DATA misses = 0. Winner = INSTR
[DUEL] Epoch ended. INSTR misses = 0, DATA misses = 0. Winner = INSTR
[DUEL] Epoch ended. INSTR misses = 0, DATA misses = 0. Winner = INSTR
[DUEL] Epoch ended. INSTR misses = 0, DATA misses = 1. Winner = INSTR
[DUEL] Epoch ended. INSTR misses = 2, DATA misses = 2. Winner = INSTR
[DUEL] Epoch ended. INSTR misses = 0, DATA misses = 0. Winner = INSTR
[DUEL] Epoch ended. INSTR misses = 9, DATA misses = 0. Winner = DATA
[DUEL] Epoch ended. INSTR misses = 0, DATA misses = 0. Winner = INSTR
[DUEL] Epoch ended. INSTR misses = 51, DATA misses = 34. Winner = DATA
[DUEL] Epoch ended. INSTR misses = 18, DATA misses = 27. Winner = INSTR
[DUEL] Epoch ended. INSTR misses = 0, DATA misses = 2. Winner = INSTR
[DUEL] Epoch ended. INSTR misses = 49, DATA misses = 45. Winner = DATA
[DUEL] Epoch ended. INSTR misses = 18, DATA misses = 34. Winner = INSTR
[DUEL] Epoch ended. INSTR misses = 18, DATA misses = 8. Winner = DATA
[DUEL] Epoch ended. INSTR misses = 0, DATA misses = 4. Winner = INSTR
[DUEL] Epoch ended. INSTR misses = 0, DATA misses = 5. Winner = INSTR
[DUEL] Epoch ended. INSTR misses = 0, DATA misses = 0. Winner = INSTR
[DUEL] Epoch ended. INSTR misses = 31, DATA misses = 21. Winner = DATA
[DUEL] Epoch ended. INSTR misses = 12, DATA misses = 18. Winner = INSTR
[DUEL] Epoch ended. INSTR misses = 2, DATA misses = 0. Winner = DATA
[DUEL] Epoch ended. INSTR misses = 2, DATA misses = 4. Winner = INSTR
[DUEL] Epoch ended. INSTR misses = 5, DATA misses = 3. Winner = DATA
[DUEL] Epoch ended. INSTR misses = 0, DATA misses = 0. Winner = INSTR
[DUEL] Epoch ended. INSTR misses = 7, DATA misses = 0. Winner = DATA
[DUEL] Epoch ended. INSTR misses = 0, DATA misses = 0. Winner = INSTR
[DUEL] Epoch ended. INSTR misses = 4, DATA misses = 3. Winner = DATA
[DUEL] Epoch ended. INSTR misses = 15, DATA misses = 37. Winner = INSTR
[DUEL] Epoch ended. INSTR misses = 5, DATA misses = 4. Winner = DATA
[DUEL] Epoch ended. INSTR misses = 0, DATA misses = 0. Winner = INSTR
Heartbeat CPU 0 instructions: 40000005 cycles: 13494359 heartbeat IPC: 1.319 cumulative IPC: 1.319 (Simulation time: 00 hr 02 min 11 sec)
[DUEL] Epoch ended. INSTR misses = 10, DATA misses = 5. Winner = DATA
[DUEL] Epoch ended. INSTR misses = 7, DATA misses = 20. Winner = INSTR
[DUEL] Epoch ended. INSTR misses = 0, DATA misses = 0. Winner = INSTR
[DUEL] Epoch ended. INSTR misses = 27, DATA misses = 28. Winner = INSTR
[DUEL] Epoch ended. INSTR misses = 0, DATA misses = 0. Winner = INSTR
[DUEL] Epoch ended. INSTR misses = 14, DATA misses = 12. Winner = DATA
[DUEL] Epoch ended. INSTR misses = 1, DATA misses = 0. Winner = DATA
[DUEL] Epoch ended. INSTR misses = 0, DATA misses = 0. Winner = INSTR
[DUEL] Epoch ended. INSTR misses = 62, DATA misses = 49. Winner = DATA
[DUEL] Epoch ended. INSTR misses = 2, DATA misses = 3. Winner = INSTR
[DUEL] Epoch ended. INSTR misses = 14, DATA misses = 10. Winner = DATA
[DUEL] Epoch ended. INSTR misses = 7, DATA misses = 1. Winner = DATA
[DUEL] Epoch ended. INSTR misses = 36, DATA misses = 46. Winner = INSTR
[DUEL] Epoch ended. INSTR misses = 3, DATA misses = 0. Winner = DATA
[DUEL] Epoch ended. INSTR misses = 14, DATA misses = 38. Winner = INSTR
[DUEL] Epoch ended. INSTR misses = 9, DATA misses = 9. Winner = INSTR
[DUEL] Epoch ended. INSTR misses = 3, DATA misses = 16. Winner = INSTR
[DUEL] Epoch ended. INSTR misses = 0, DATA misses = 1. Winner = INSTR
[DUEL] Epoch ended. INSTR misses = 2, DATA misses = 2. Winner = INSTR
[DUEL] Epoch ended. INSTR misses = 1, DATA misses = 17. Winner = INSTR
[DUEL] Epoch ended. INSTR misses = 18, DATA misses = 16. Winner = DATA
[DUEL] Epoch ended. INSTR misses = 7, DATA misses = 12. Winner = INSTR
[DUEL] Epoch ended. INSTR misses = 0, DATA misses = 0. Winner = INSTR
[DUEL] Epoch ended. INSTR misses = 34, DATA misses = 27. Winner = DATA
[DUEL] Epoch ended. INSTR misses = 22, DATA misses = 13. Winner = DATA
[DUEL] Epoch ended. INSTR misses = 3, DATA misses = 0. Winner = DATA
[DUEL] Epoch ended. INSTR misses = 0, DATA misses = 0. Winner = INSTR
[DUEL] Epoch ended. INSTR misses = 12, DATA misses = 19. Winner = INSTR
[DUEL] Epoch ended. INSTR misses = 8, DATA misses = 21. Winner = INSTR
[DUEL] Epoch ended. INSTR misses = 22, DATA misses = 12. Winner = DATA
[DUEL] Epoch ended. INSTR misses = 10, DATA misses = 5. Winner = DATA
[DUEL] Epoch ended. INSTR misses = 7, DATA misses = 7. Winner = INSTR
[DUEL] Epoch ended. INSTR misses = 20, DATA misses = 14. Winner = DATA
[DUEL] Epoch ended. INSTR misses = 21, DATA misses = 22. Winner = INSTR
[DUEL] Epoch ended. INSTR misses = 8, DATA misses = 10. Winner = INSTR
[DUEL] Epoch ended. INSTR misses = 37, DATA misses = 26. Winner = DATA
[DUEL] Epoch ended. INSTR misses = 8, DATA misses = 8. Winner = INSTR
[DUEL] Epoch ended. INSTR misses = 2, DATA misses = 6. Winner = INSTR
Heartbeat CPU 0 instructions: 50000004 cycles: 20655223 heartbeat IPC: 1.396 cumulative IPC: 1.357 (Simulation time: 00 hr 03 min 01 sec)
[DUEL] Epoch ended. INSTR misses = 0, DATA misses = 0. Winner = INSTR
[DUEL] Epoch ended. INSTR misses = 7, DATA misses = 30. Winner = INSTR
[DUEL] Epoch ended. INSTR misses = 9, DATA misses = 22. Winner = INSTR
[DUEL] Epoch ended. INSTR misses = 23, DATA misses = 23. Winner = INSTR
[DUEL] Epoch ended. INSTR misses = 3, DATA misses = 4. Winner = INSTR
[DUEL] Epoch ended. INSTR misses = 41, DATA misses = 38. Winner = DATA
[DUEL] Epoch ended. INSTR misses = 17, DATA misses = 10. Winner = DATA
[DUEL] Epoch ended. INSTR misses = 2, DATA misses = 1. Winner = DATA
[DUEL] Epoch ended. INSTR misses = 0, DATA misses = 0. Winner = INSTR
[DUEL] Epoch ended. INSTR misses = 18, DATA misses = 31. Winner = INSTR
[DUEL] Epoch ended. INSTR misses = 1, DATA misses = 5. Winner = INSTR
[DUEL] Epoch ended. INSTR misses = 4, DATA misses = 5. Winner = INSTR
[DUEL] Epoch ended. INSTR misses = 6, DATA misses = 4. Winner = DATA
[DUEL] Epoch ended. INSTR misses = 0, DATA misses = 0. Winner = INSTR
[DUEL] Epoch ended. INSTR misses = 0, DATA misses = 0. Winner = INSTR
[DUEL] Epoch ended. INSTR misses = 0, DATA misses = 0. Winner = INSTR
[DUEL] Epoch ended. INSTR misses = 0, DATA misses = 0. Winner = INSTR
[DUEL] Epoch ended. INSTR misses = 1, DATA misses = 0. Winner = DATA
[DUEL] Epoch ended. INSTR misses = 12, DATA misses = 15. Winner = INSTR
[DUEL] Epoch ended. INSTR misses = 0, DATA misses = 0. Winner = INSTR
[DUEL] Epoch ended. INSTR misses = 0, DATA misses = 0. Winner = INSTR
[DUEL] Epoch ended. INSTR misses = 1, DATA misses = 0. Winner = DATA
[DUEL] Epoch ended. INSTR misses = 0, DATA misses = 2. Winner = INSTR
[DUEL] Epoch ended. INSTR misses = 8, DATA misses = 7. Winner = DATA
[DUEL] Epoch ended. INSTR misses = 13, DATA misses = 24. Winner = INSTR
[DUEL] Epoch ended. INSTR misses = 2, DATA misses = 0. Winner = DATA
[DUEL] Epoch ended. INSTR misses = 0, DATA misses = 0. Winner = INSTR
[DUEL] Epoch ended. INSTR misses = 0, DATA misses = 0. Winner = INSTR
[DUEL] Epoch ended. INSTR misses = 0, DATA misses = 0. Winner = INSTR
[DUEL] Epoch ended. INSTR misses = 0, DATA misses = 0. Winner = INSTR
[DUEL] Epoch ended. INSTR misses = 0, DATA misses = 0. Winner = INSTR
[DUEL] Epoch ended. INSTR misses = 0, DATA misses = 0. Winner = INSTR
[DUEL] Epoch ended. INSTR misses = 0, DATA misses = 0. Winner = INSTR
[DUEL] Epoch ended. INSTR misses = 2, DATA misses = 0. Winner = DATA
[DUEL] Epoch ended. INSTR misses = 5, DATA misses = 2. Winner = DATA
[DUEL] Epoch ended. INSTR misses = 6, DATA misses = 14. Winner = INSTR
[DUEL] Epoch ended. INSTR misses = 0, DATA misses = 0. Winner = INSTR
Heartbeat CPU 0 instructions: 60000004 cycles: 26491011 heartbeat IPC: 1.714 cumulative IPC: 1.458 (Simulation time: 00 hr 03 min 45 sec)
[DUEL] Epoch ended. INSTR misses = 0, DATA misses = 0. Winner = INSTR
[DUEL] Epoch ended. INSTR misses = 10, DATA misses = 16. Winner = INSTR
[DUEL] Epoch ended. INSTR misses = 0, DATA misses = 2. Winner = INSTR
[DUEL] Epoch ended. INSTR misses = 15, DATA misses = 13. Winner = DATA
[DUEL] Epoch ended. INSTR misses = 32, DATA misses = 32. Winner = INSTR
[DUEL] Epoch ended. INSTR misses = 19, DATA misses = 23. Winner = INSTR
[DUEL] Epoch ended. INSTR misses = 4, DATA misses = 2. Winner = DATA
[DUEL] Epoch ended. INSTR misses = 10, DATA misses = 17. Winner = INSTR
[DUEL] Epoch ended. INSTR misses = 0, DATA misses = 0. Winner = INSTR
[DUEL] Epoch ended. INSTR misses = 26, DATA misses = 67. Winner = INSTR
[DUEL] Epoch ended. INSTR misses = 16, DATA misses = 23. Winner = INSTR
[DUEL] Epoch ended. INSTR misses = 12, DATA misses = 19. Winner = INSTR
[DUEL] Epoch ended. INSTR misses = 8, DATA misses = 16. Winner = INSTR
[DUEL] Epoch ended. INSTR misses = 11, DATA misses = 23. Winner = INSTR
[DUEL] Epoch ended. INSTR misses = 4, DATA misses = 7. Winner = INSTR
[DUEL] Epoch ended. INSTR misses = 0, DATA misses = 2. Winner = INSTR
[DUEL] Epoch ended. INSTR misses = 7, DATA misses = 26. Winner = INSTR
[DUEL] Epoch ended. INSTR misses = 1, DATA misses = 6. Winner = INSTR
[DUEL] Epoch ended. INSTR misses = 24, DATA misses = 74. Winner = INSTR
[DUEL] Epoch ended. INSTR misses = 3, DATA misses = 24. Winner = INSTR
[DUEL] Epoch ended. INSTR misses = 1, DATA misses = 10. Winner = INSTR
[DUEL] Epoch ended. INSTR misses = 0, DATA misses = 6. Winner = INSTR
[DUEL] Epoch ended. INSTR misses = 6, DATA misses = 15. Winner = INSTR
[DUEL] Epoch ended. INSTR misses = 0, DATA misses = 0. Winner = INSTR
[DUEL] Epoch ended. INSTR misses = 2, DATA misses = 1. Winner = DATA
[DUEL] Epoch ended. INSTR misses = 0, DATA misses = 0. Winner = INSTR
[DUEL] Epoch ended. INSTR misses = 0, DATA misses = 0. Winner = INSTR
[DUEL] Epoch ended. INSTR misses = 3, DATA misses = 14. Winner = INSTR
[DUEL] Epoch ended. INSTR misses = 4, DATA misses = 27. Winner = INSTR
[DUEL] Epoch ended. INSTR misses = 1, DATA misses = 11. Winner = INSTR
[DUEL] Epoch ended. INSTR misses = 0, DATA misses = 7. Winner = INSTR
[DUEL] Epoch ended. INSTR misses = 2, DATA misses = 6. Winner = INSTR
[DUEL] Epoch ended. INSTR misses = 0, DATA misses = 0. Winner = INSTR
[DUEL] Epoch ended. INSTR misses = 10, DATA misses = 12. Winner = INSTR
[DUEL] Epoch ended. INSTR misses = 0, DATA misses = 0. Winner = INSTR
[DUEL] Epoch ended. INSTR misses = 14, DATA misses = 10. Winner = DATA
[DUEL] Epoch ended. INSTR misses = 8, DATA misses = 21. Winner = INSTR
[DUEL] Epoch ended. INSTR misses = 0, DATA misses = 0. Winner = INSTR
[DUEL] Epoch ended. INSTR misses = 1, DATA misses = 0. Winner = DATA
Heartbeat CPU 0 instructions: 70000011 cycles: 31789818 heartbeat IPC: 1.887 cumulative IPC: 1.546 (Simulation time: 00 hr 04 min 26 sec)
[DUEL] Epoch ended. INSTR misses = 1, DATA misses = 2. Winner = INSTR
[DUEL] Epoch ended. INSTR misses = 0, DATA misses = 0. Winner = INSTR
[DUEL] Epoch ended. INSTR misses = 0, DATA misses = 0. Winner = INSTR
[DUEL] Epoch ended. INSTR misses = 0, DATA misses = 0. Winner = INSTR
[DUEL] Epoch ended. INSTR misses = 3, DATA misses = 22. Winner = INSTR
[DUEL] Epoch ended. INSTR misses = 2, DATA misses = 21. Winner = INSTR
[DUEL] Epoch ended. INSTR misses = 2, DATA misses = 8. Winner = INSTR
[DUEL] Epoch ended. INSTR misses = 0, DATA misses = 3. Winner = INSTR
[DUEL] Epoch ended. INSTR misses = 0, DATA misses = 0. Winner = INSTR
[DUEL] Epoch ended. INSTR misses = 2, DATA misses = 15. Winner = INSTR
[DUEL] Epoch ended. INSTR misses = 0, DATA misses = 4. Winner = INSTR
[DUEL] Epoch ended. INSTR misses = 2, DATA misses = 7. Winner = INSTR
[DUEL] Epoch ended. INSTR misses = 8, DATA misses = 17. Winner = INSTR
[DUEL] Epoch ended. INSTR misses = 1, DATA misses = 3. Winner = INSTR
[DUEL] Epoch ended. INSTR misses = 2, DATA misses = 2. Winner = INSTR
[DUEL] Epoch ended. INSTR misses = 0, DATA misses = 0. Winner = INSTR
[DUEL] Epoch ended. INSTR misses = 0, DATA misses = 3. Winner = INSTR
[DUEL] Epoch ended. INSTR misses = 0, DATA misses = 0. Winner = INSTR
[DUEL] Epoch ended. INSTR misses = 0, DATA misses = 0. Winner = INSTR
[DUEL] Epoch ended. INSTR misses = 0, DATA misses = 0. Winner = INSTR
[DUEL] Epoch ended. INSTR misses = 4, DATA misses = 5. Winner = INSTR
[DUEL] Epoch ended. INSTR misses = 0, DATA misses = 0. Winner = INSTR
[DUEL] Epoch ended. INSTR misses = 0, DATA misses = 0. Winner = INSTR
[DUEL] Epoch ended. INSTR misses = 1, DATA misses = 0. Winner = DATA
[DUEL] Epoch ended. INSTR misses = 0, DATA misses = 0. Winner = INSTR
[DUEL] Epoch ended. INSTR misses = 0, DATA misses = 2. Winner = INSTR
[DUEL] Epoch ended. INSTR misses = 0, DATA misses = 0. Winner = INSTR
[DUEL] Epoch ended. INSTR misses = 1, DATA misses = 0. Winner = DATA
[DUEL] Epoch ended. INSTR misses = 0, DATA misses = 0. Winner = INSTR
[DUEL] Epoch ended. INSTR misses = 13, DATA misses = 1. Winner = DATA
[DUEL] Epoch ended. INSTR misses = 3, DATA misses = 0. Winner = DATA
[DUEL] Epoch ended. INSTR misses = 13, DATA misses = 20. Winner = INSTR
[DUEL] Epoch ended. INSTR misses = 0, DATA misses = 0. Winner = INSTR
[DUEL] Epoch ended. INSTR misses = 0, DATA misses = 0. Winner = INSTR
Heartbeat CPU 0 instructions: 80000002 cycles: 35052466 heartbeat IPC: 3.065 cumulative IPC: 1.716 (Simulation time: 00 hr 04 min 59 sec)
[DUEL] Epoch ended. INSTR misses = 0, DATA misses = 0. Winner = INSTR
[DUEL] Epoch ended. INSTR misses = 0, DATA misses = 0. Winner = INSTR
[DUEL] Epoch ended. INSTR misses = 0, DATA misses = 0. Winner = INSTR
[DUEL] Epoch ended. INSTR misses = 0, DATA misses = 0. Winner = INSTR
[DUEL] Epoch ended. INSTR misses = 0, DATA misses = 0. Winner = INSTR
[DUEL] Epoch ended. INSTR misses = 0, DATA misses = 0. Winner = INSTR
[DUEL] Epoch ended. INSTR misses = 0, DATA misses = 0. Winner = INSTR
[DUEL] Epoch ended. INSTR misses = 0, DATA misses = 0. Winner = INSTR
[DUEL] Epoch ended. INSTR misses = 0, DATA misses = 0. Winner = INSTR
[DUEL] Epoch ended. INSTR misses = 0, DATA misses = 0. Winner = INSTR
[DUEL] Epoch ended. INSTR misses = 0, DATA misses = 0. Winner = INSTR
[DUEL] Epoch ended. INSTR misses = 0, DATA misses = 0. Winner = INSTR
[DUEL] Epoch ended. INSTR misses = 0, DATA misses = 0. Winner = INSTR
[DUEL] Epoch ended. INSTR misses = 0, DATA misses = 0. Winner = INSTR
[DUEL] Epoch ended. INSTR misses = 0, DATA misses = 0. Winner = INSTR
[DUEL] Epoch ended. INSTR misses = 0, DATA misses = 0. Winner = INSTR
[DUEL] Epoch ended. INSTR misses = 0, DATA misses = 0. Winner = INSTR
[DUEL] Epoch ended. INSTR misses = 0, DATA misses = 1. Winner = INSTR
[DUEL] Epoch ended. INSTR misses = 0, DATA misses = 0. Winner = INSTR
[DUEL] Epoch ended. INSTR misses = 0, DATA misses = 0. Winner = INSTR
[DUEL] Epoch ended. INSTR misses = 0, DATA misses = 0. Winner = INSTR
[DUEL] Epoch ended. INSTR misses = 0, DATA misses = 0. Winner = INSTR
[DUEL] Epoch ended. INSTR misses = 0, DATA misses = 0. Winner = INSTR
[DUEL] Epoch ended. INSTR misses = 0, DATA misses = 0. Winner = INSTR
[DUEL] Epoch ended. INSTR misses = 0, DATA misses = 0. Winner = INSTR
[DUEL] Epoch ended. INSTR misses = 0, DATA misses = 0. Winner = INSTR
[DUEL] Epoch ended. INSTR misses = 0, DATA misses = 0. Winner = INSTR
[DUEL] Epoch ended. INSTR misses = 0, DATA misses = 0. Winner = INSTR
[DUEL] Epoch ended. INSTR misses = 0, DATA misses = 0. Winner = INSTR
[DUEL] Epoch ended. INSTR misses = 0, DATA misses = 0. Winner = INSTR
[DUEL] Epoch ended. INSTR misses = 0, DATA misses = 0. Winner = INSTR
[DUEL] Epoch ended. INSTR misses = 4, DATA misses = 22. Winner = INSTR
[DUEL] Epoch ended. INSTR misses = 4, DATA misses = 16. Winner = INSTR
[DUEL] Epoch ended. INSTR misses = 0, DATA misses = 2. Winner = INSTR
[DUEL] Epoch ended. INSTR misses = 1, DATA misses = 0. Winner = DATA
[DUEL] Epoch ended. INSTR misses = 0, DATA misses = 3. Winner = INSTR
[DUEL] Epoch ended. INSTR misses = 0, DATA misses = 2. Winner = INSTR
Heartbeat CPU 0 instructions: 90000001 cycles: 38002148 heartbeat IPC: 3.39 cumulative IPC: 1.87 (Simulation time: 00 hr 05 min 33 sec)
[DUEL] Epoch ended. INSTR misses = 0, DATA misses = 0. Winner = INSTR
[DUEL] Epoch ended. INSTR misses = 0, DATA misses = 0. Winner = INSTR
[DUEL] Epoch ended. INSTR misses = 0, DATA misses = 0. Winner = INSTR
[DUEL] Epoch ended. INSTR misses = 0, DATA misses = 0. Winner = INSTR
[DUEL] Epoch ended. INSTR misses = 8, DATA misses = 16. Winner = INSTR
[DUEL] Epoch ended. INSTR misses = 0, DATA misses = 1. Winner = INSTR
[DUEL] Epoch ended. INSTR misses = 0, DATA misses = 0. Winner = INSTR
[DUEL] Epoch ended. INSTR misses = 0, DATA misses = 2. Winner = INSTR
[DUEL] Epoch ended. INSTR misses = 0, DATA misses = 0. Winner = INSTR
[DUEL] Epoch ended. INSTR misses = 0, DATA misses = 0. Winner = INSTR
[DUEL] Epoch ended. INSTR misses = 0, DATA misses = 0. Winner = INSTR
[DUEL] Epoch ended. INSTR misses = 0, DATA misses = 0. Winner = INSTR
[DUEL] Epoch ended. INSTR misses = 0, DATA misses = 0. Winner = INSTR
[DUEL] Epoch ended. INSTR misses = 7, DATA misses = 20. Winner = INSTR
[DUEL] Epoch ended. INSTR misses = 7, DATA misses = 3. Winner = DATA
[DUEL] Epoch ended. INSTR misses = 1, DATA misses = 1. Winner = INSTR
[DUEL] Epoch ended. INSTR misses = 0, DATA misses = 0. Winner = INSTR
[DUEL] Epoch ended. INSTR misses = 0, DATA misses = 0. Winner = INSTR
[DUEL] Epoch ended. INSTR misses = 3, DATA misses = 10. Winner = INSTR
[DUEL] Epoch ended. INSTR misses = 1, DATA misses = 16. Winner = INSTR
[DUEL] Epoch ended. INSTR misses = 0, DATA misses = 2. Winner = INSTR
[DUEL] Epoch ended. INSTR misses = 0, DATA misses = 0. Winner = INSTR
[DUEL] Epoch ended. INSTR misses = 0, DATA misses = 2. Winner = INSTR
[DUEL] Epoch ended. INSTR misses = 0, DATA misses = 1. Winner = INSTR
[DUEL] Epoch ended. INSTR misses = 0, DATA misses = 0. Winner = INSTR
[DUEL] Epoch ended. INSTR misses = 0, DATA misses = 0. Winner = INSTR
[DUEL] Epoch ended. INSTR misses = 0, DATA misses = 0. Winner = INSTR
[DUEL] Epoch ended. INSTR misses = 0, DATA misses = 0. Winner = INSTR
[DUEL] Epoch ended. INSTR misses = 0, DATA misses = 0. Winner = INSTR
[DUEL] Epoch ended. INSTR misses = 0, DATA misses = 0. Winner = INSTR
[DUEL] Epoch ended. INSTR misses = 0, DATA misses = 0. Winner = INSTR
[DUEL] Epoch ended. INSTR misses = 1, DATA misses = 2. Winner = INSTR
[DUEL] Epoch ended. INSTR misses = 10, DATA misses = 29. Winner = INSTR
[DUEL] Epoch ended. INSTR misses = 9, DATA misses = 15. Winner = INSTR
[DUEL] Epoch ended. INSTR misses = 0, DATA misses = 5. Winner = INSTR
Heartbeat CPU 0 instructions: 100000005 cycles: 42844280 heartbeat IPC: 2.065 cumulative IPC: 1.896 (Simulation time: 00 hr 06 min 12 sec)
[DUEL] Epoch ended. INSTR misses = 4, DATA misses = 22. Winner = INSTR
[DUEL] Epoch ended. INSTR misses = 1, DATA misses = 0. Winner = DATA
[DUEL] Epoch ended. INSTR misses = 4, DATA misses = 5. Winner = INSTR
[DUEL] Epoch ended. INSTR misses = 0, DATA misses = 5. Winner = INSTR
[DUEL] Epoch ended. INSTR misses = 0, DATA misses = 2. Winner = INSTR
[DUEL] Epoch ended. INSTR misses = 16, DATA misses = 21. Winner = INSTR
[DUEL] Epoch ended. INSTR misses = 0, DATA misses = 0. Winner = INSTR
[DUEL] Epoch ended. INSTR misses = 0, DATA misses = 0. Winner = INSTR
[DUEL] Epoch ended. INSTR misses = 2, DATA misses = 4. Winner = INSTR
[DUEL] Epoch ended. INSTR misses = 0, DATA misses = 3. Winner = INSTR
[DUEL] Epoch ended. INSTR misses = 1, DATA misses = 0. Winner = DATA
[DUEL] Epoch ended. INSTR misses = 0, DATA misses = 0. Winner = INSTR
[DUEL] Epoch ended. INSTR misses = 0, DATA misses = 3. Winner = INSTR
*** Reached end of trace: (0, "../traces/secret_traces/crypto/crypto100.champsimtrace.xz")
[DUEL] Epoch ended. INSTR misses = 50, DATA misses = 55. Winner = INSTR
[DUEL] Epoch ended. INSTR misses = 92, DATA misses = 90. Winner = DATA
[DUEL] Epoch ended. INSTR misses = 131, DATA misses = 78. Winner = DATA
[DUEL] Epoch ended. INSTR misses = 26, DATA misses = 33. Winner = INSTR
[DUEL] Epoch ended. INSTR misses = 24, DATA misses = 5. Winner = DATA
[DUEL] Epoch ended. INSTR misses = 48, DATA misses = 29. Winner = DATA
[DUEL] Epoch ended. INSTR misses = 62, DATA misses = 47. Winner = DATA
[DUEL] Epoch ended. INSTR misses = 31, DATA misses = 23. Winner = DATA
[DUEL] Epoch ended. INSTR misses = 15, DATA misses = 16. Winner = INSTR
[DUEL] Epoch ended. INSTR misses = 56, DATA misses = 65. Winner = INSTR
[DUEL] Epoch ended. INSTR misses = 15, DATA misses = 14. Winner = DATA
[DUEL] Epoch ended. INSTR misses = 2, DATA misses = 0. Winner = DATA
[DUEL] Epoch ended. INSTR misses = 0, DATA misses = 0. Winner = INSTR
[DUEL] Epoch ended. INSTR misses = 0, DATA misses = 1. Winner = INSTR
[DUEL] Epoch ended. INSTR misses = 0, DATA misses = 0. Winner = INSTR
[DUEL] Epoch ended. INSTR misses = 0, DATA misses = 0. Winner = INSTR
[DUEL] Epoch ended. INSTR misses = 6, DATA misses = 0. Winner = DATA
[DUEL] Epoch ended. INSTR misses = 4, DATA misses = 9. Winner = INSTR
[DUEL] Epoch ended. INSTR misses = 0, DATA misses = 0. Winner = INSTR
[DUEL] Epoch ended. INSTR misses = 1, DATA misses = 0. Winner = DATA
[DUEL] Epoch ended. INSTR misses = 0, DATA misses = 0. Winner = INSTR
[DUEL] Epoch ended. INSTR misses = 52, DATA misses = 56. Winner = INSTR
[DUEL] Epoch ended. INSTR misses = 90, DATA misses = 107. Winner = INSTR
[DUEL] Epoch ended. INSTR misses = 46, DATA misses = 42. Winner = DATA
[DUEL] Epoch ended. INSTR misses = 137, DATA misses = 111. Winner = DATA
[DUEL] Epoch ended. INSTR misses = 46, DATA misses = 26. Winner = DATA
Heartbeat CPU 0 instructions: 110000007 cycles: 51187383 heartbeat IPC: 1.199 cumulative IPC: 1.767 (Simulation time: 00 hr 07 min 15 sec)
[DUEL] Epoch ended. INSTR misses = 20, DATA misses = 20. Winner = INSTR
[DUEL] Epoch ended. INSTR misses = 35, DATA misses = 58. Winner = INSTR
[DUEL] Epoch ended. INSTR misses = 20, DATA misses = 7. Winner = DATA
[DUEL] Epoch ended. INSTR misses = 9, DATA misses = 21. Winner = INSTR
[DUEL] Epoch ended. INSTR misses = 12, DATA misses = 15. Winner = INSTR
[DUEL] Epoch ended. INSTR misses = 69, DATA misses = 63. Winner = DATA
[DUEL] Epoch ended. INSTR misses = 68, DATA misses = 61. Winner = DATA
[DUEL] Epoch ended. INSTR misses = 34, DATA misses = 40. Winner = INSTR
[DUEL] Epoch ended. INSTR misses = 62, DATA misses = 37. Winner = DATA
[DUEL] Epoch ended. INSTR misses = 43, DATA misses = 35. Winner = DATA
[DUEL] Epoch ended. INSTR misses = 65, DATA misses = 92. Winner = INSTR
[DUEL] Epoch ended. INSTR misses = 87, DATA misses = 77. Winner = DATA
[DUEL] Epoch ended. INSTR misses = 101, DATA misses = 98. Winner = DATA
[DUEL] Epoch ended. INSTR misses = 23, DATA misses = 16. Winner = DATA
[DUEL] Epoch ended. INSTR misses = 46, DATA misses = 54. Winner = INSTR
[DUEL] Epoch ended. INSTR misses = 35, DATA misses = 24. Winner = DATA
[DUEL] Epoch ended. INSTR misses = 56, DATA misses = 45. Winner = DATA
[DUEL] Epoch ended. INSTR misses = 37, DATA misses = 28. Winner = DATA
[DUEL] Epoch ended. INSTR misses = 58, DATA misses = 64. Winner = INSTR
[DUEL] Epoch ended. INSTR misses = 20, DATA misses = 30. Winner = INSTR
[DUEL] Epoch ended. INSTR misses = 48, DATA misses = 47. Winner = DATA
[DUEL] Epoch ended. INSTR misses = 99, DATA misses = 99. Winner = INSTR
[DUEL] Epoch ended. INSTR misses = 75, DATA misses = 75. Winner = INSTR
[DUEL] Epoch ended. INSTR misses = 15, DATA misses = 16. Winner = INSTR
[DUEL] Epoch ended. INSTR misses = 0, DATA misses = 0. Winner = INSTR
[DUEL] Epoch ended. INSTR misses = 15, DATA misses = 22. Winner = INSTR
[DUEL] Epoch ended. INSTR misses = 1, DATA misses = 0. Winner = DATA
[DUEL] Epoch ended. INSTR misses = 1, DATA misses = 0. Winner = DATA
[DUEL] Epoch ended. INSTR misses = 32, DATA misses = 27. Winner = DATA
[DUEL] Epoch ended. INSTR misses = 67, DATA misses = 44. Winner = DATA
[DUEL] Epoch ended. INSTR misses = 19, DATA misses = 48. Winner = INSTR
[DUEL] Epoch ended. INSTR misses = 62, DATA misses = 55. Winner = DATA
[DUEL] Epoch ended. INSTR misses = 34, DATA misses = 13. Winner = DATA
[DUEL] Epoch ended. INSTR misses = 10, DATA misses = 4. Winner = DATA
[DUEL] Epoch ended. INSTR misses = 35, DATA misses = 47. Winner = INSTR
[DUEL] Epoch ended. INSTR misses = 18, DATA misses = 32. Winner = INSTR
[DUEL] Epoch ended. INSTR misses = 9, DATA misses = 18. Winner = INSTR
[DUEL] Epoch ended. INSTR misses = 45, DATA misses = 26. Winner = DATA
Heartbeat CPU 0 instructions: 120000000 cycles: 62729152 heartbeat IPC: 0.8664 cumulative IPC: 1.584 (Simulation time: 00 hr 08 min 36 sec)
[DUEL] Epoch ended. INSTR misses = 5, DATA misses = 11. Winner = INSTR
[DUEL] Epoch ended. INSTR misses = 3, DATA misses = 0. Winner = DATA
[DUEL] Epoch ended. INSTR misses = 0, DATA misses = 0. Winner = INSTR
[DUEL] Epoch ended. INSTR misses = 0, DATA misses = 0. Winner = INSTR
[DUEL] Epoch ended. INSTR misses = 0, DATA misses = 0. Winner = INSTR
[DUEL] Epoch ended. INSTR misses = 3, DATA misses = 0. Winner = DATA
[DUEL] Epoch ended. INSTR misses = 0, DATA misses = 3. Winner = INSTR
[DUEL] Epoch ended. INSTR misses = 1, DATA misses = 0. Winner = DATA
[DUEL] Epoch ended. INSTR misses = 1, DATA misses = 0. Winner = DATA
[DUEL] Epoch ended. INSTR misses = 18, DATA misses = 23. Winner = INSTR
[DUEL] Epoch ended. INSTR misses = 3, DATA misses = 4. Winner = INSTR
[DUEL] Epoch ended. INSTR misses = 24, DATA misses = 31. Winner = INSTR
[DUEL] Epoch ended. INSTR misses = 17, DATA misses = 11. Winner = DATA
[DUEL] Epoch ended. INSTR misses = 22, DATA misses = 12. Winner = DATA
[DUEL] Epoch ended. INSTR misses = 11, DATA misses = 18. Winner = INSTR
[DUEL] Epoch ended. INSTR misses = 7, DATA misses = 5. Winner = DATA
[DUEL] Epoch ended. INSTR misses = 5, DATA misses = 9. Winner = INSTR
[DUEL] Epoch ended. INSTR misses = 60, DATA misses = 44. Winner = DATA
[DUEL] Epoch ended. INSTR misses = 26, DATA misses = 40. Winner = INSTR
[DUEL] Epoch ended. INSTR misses = 8, DATA misses = 0. Winner = DATA
[DUEL] Epoch ended. INSTR misses = 3, DATA misses = 0. Winner = DATA
[DUEL] Epoch ended. INSTR misses = 2, DATA misses = 0. Winner = DATA
[DUEL] Epoch ended. INSTR misses = 2, DATA misses = 14. Winner = INSTR
[DUEL] Epoch ended. INSTR misses = 14, DATA misses = 5. Winner = DATA
[DUEL] Epoch ended. INSTR misses = 17, DATA misses = 13. Winner = DATA
[DUEL] Epoch ended. INSTR misses = 31, DATA misses = 28. Winner = DATA
[DUEL] Epoch ended. INSTR misses = 3, DATA misses = 10. Winner = INSTR
[DUEL] Epoch ended. INSTR misses = 20, DATA misses = 28. Winner = INSTR
[DUEL] Epoch ended. INSTR misses = 61, DATA misses = 77. Winner = INSTR
[DUEL] Epoch ended. INSTR misses = 44, DATA misses = 42. Winner = DATA
[DUEL] Epoch ended. INSTR misses = 67, DATA misses = 56. Winner = DATA
[DUEL] Epoch ended. INSTR misses = 39, DATA misses = 51. Winner = INSTR
[DUEL] Epoch ended. INSTR misses = 3, DATA misses = 12. Winner = INSTR
[DUEL] Epoch ended. INSTR misses = 4, DATA misses = 2. Winner = DATA
[DUEL] Epoch ended. INSTR misses = 0, DATA misses = 3. Winner = INSTR
[DUEL] Epoch ended. INSTR misses = 0, DATA misses = 6. Winner = INSTR
[DUEL] Epoch ended. INSTR misses = 12, DATA misses = 4. Winner = DATA
Heartbeat CPU 0 instructions: 130000000 cycles: 70549776 heartbeat IPC: 1.279 cumulative IPC: 1.547 (Simulation time: 00 hr 09 min 27 sec)
Simulation finished CPU 0 instructions: 100000007 cycles: 64634749 cumulative IPC: 1.547 (Simulation time: 00 hr 09 min 27 sec)
Simulation complete CPU 0 instructions: 100000007 cycles: 64634749 cumulative IPC: 1.547 (Simulation time: 00 hr 09 min 27 sec)

ChampSim completed all CPUs

=== Simulation ===
CPU 0 runs ../traces/secret_traces/crypto/crypto100.champsimtrace.xz
Region of Interest Statistics

CPU 0 cumulative IPC: 1.547 instructions: 100000007 cycles: 64634749
CPU 0 Branch Prediction Accuracy: 94.21% MPKI: 10.65 Average ROB Occupancy at Mispredict: 25.11
Branch type MPKI
BRANCH_DIRECT_JUMP: 0.505
BRANCH_INDIRECT: 3.97
BRANCH_CONDITIONAL: 3.56
BRANCH_DIRECT_CALL: 0.925
BRANCH_INDIRECT_CALL: 0.658
BRANCH_RETURN: 1.03

LLC TOTAL        ACCESS:    1693398 HIT:     553788 MISS:    1139610
LLC LOAD         ACCESS:     251255 HIT:      54443 MISS:     196812
LLC RFO          ACCESS:     437832 HIT:     143628 MISS:     294204
LLC PREFETCH     ACCESS:     493626 HIT:     123787 MISS:     369839
LLC WRITE        ACCESS:     492950 HIT:     231145 MISS:     261805
LLC TRANSLATION  ACCESS:      17735 HIT:        785 MISS:      16950
LLC PREFETCH REQUESTED:          0 ISSUED:          0 USEFUL:          0 USELESS:          0
LLC AVERAGE MISS LATENCY: 195.9 cycles
cpu0_DTLB TOTAL        ACCESS:   19410030 HIT:   19098502 MISS:     311528
cpu0_DTLB LOAD         ACCESS:   19410030 HIT:   19098502 MISS:     311528
cpu0_DTLB RFO          ACCESS:          0 HIT:          0 MISS:          0
cpu0_DTLB PREFETCH     ACCESS:          0 HIT:          0 MISS:          0
cpu0_DTLB WRITE        ACCESS:          0 HIT:          0 MISS:          0
cpu0_DTLB TRANSLATION  ACCESS:          0 HIT:          0 MISS:          0
cpu0_DTLB PREFETCH REQUESTED:          0 ISSUED:          0 USEFUL:          0 USELESS:          0
cpu0_DTLB AVERAGE MISS LATENCY: 13.74 cycles
cpu0_ITLB TOTAL        ACCESS:    8843609 HIT:    8746833 MISS:      96776
cpu0_ITLB LOAD         ACCESS:    8843609 HIT:    8746833 MISS:      96776
cpu0_ITLB RFO          ACCESS:          0 HIT:          0 MISS:          0
cpu0_ITLB PREFETCH     ACCESS:          0 HIT:          0 MISS:          0
cpu0_ITLB WRITE        ACCESS:          0 HIT:          0 MISS:          0
cpu0_ITLB TRANSLATION  ACCESS:          0 HIT:          0 MISS:          0
cpu0_ITLB PREFETCH REQUESTED:          0 ISSUED:          0 USEFUL:          0 USELESS:          0
cpu0_ITLB AVERAGE MISS LATENCY: 18.98 cycles
cpu0_L1D TOTAL        ACCESS:   30230135 HIT:   26711794 MISS:    3518341
cpu0_L1D LOAD         ACCESS:   18017091 HIT:   16724406 MISS:    1292685
cpu0_L1D RFO          ACCESS:          0 HIT:          0 MISS:          0
cpu0_L1D PREFETCH     ACCESS:    1114930 HIT:     755561 MISS:     359369
cpu0_L1D WRITE        ACCESS:   11068234 HIT:    9224577 MISS:    1843657
cpu0_L1D TRANSLATION  ACCESS:      29880 HIT:       7250 MISS:      22630
cpu0_L1D PREFETCH REQUESTED:   24414532 ISSUED:    1114930 USEFUL:      63083 USELESS:       5266
cpu0_L1D AVERAGE MISS LATENCY: 49.07 cycles
cpu0_L1I TOTAL        ACCESS:   12861141 HIT:   10639602 MISS:    2221539
cpu0_L1I LOAD         ACCESS:    4662712 HIT:    3837221 MISS:     825491
cpu0_L1I RFO          ACCESS:          0 HIT:          0 MISS:          0
cpu0_L1I PREFETCH     ACCESS:    8198429 HIT:    6802381 MISS:    1396048
cpu0_L1I WRITE        ACCESS:          0 HIT:          0 MISS:          0
cpu0_L1I TRANSLATION  ACCESS:          0 HIT:          0 MISS:          0
cpu0_L1I PREFETCH REQUESTED:   14086399 ISSUED:    8198429 USEFUL:     717657 USELESS:     580477
cpu0_L1I AVERAGE MISS LATENCY: 21.9 cycles
cpu0_L2C TOTAL        ACCESS:    7133845 HIT:    5534446 MISS:    1599399
cpu0_L2C LOAD         ACCESS:    1381105 HIT:    1059270 MISS:     321835
cpu0_L2C RFO          ACCESS:     589461 HIT:     150591 MISS:     438870
cpu0_L2C PREFETCH     ACCESS:    4422309 HIT:    3601371 MISS:     820938
cpu0_L2C WRITE        ACCESS:     718466 HIT:     718445 MISS:         21
cpu0_L2C TRANSLATION  ACCESS:      22504 HIT:       4769 MISS:      17735
cpu0_L2C PREFETCH REQUESTED:    2973478 ISSUED:    2838069 USEFUL:     179376 USELESS:     130190
cpu0_L2C AVERAGE MISS LATENCY: 150.6 cycles
cpu0_STLB TOTAL        ACCESS:     223880 HIT:     196728 MISS:      27152
cpu0_STLB LOAD         ACCESS:     223880 HIT:     196728 MISS:      27152
cpu0_STLB RFO          ACCESS:          0 HIT:          0 MISS:          0
cpu0_STLB PREFETCH     ACCESS:          0 HIT:          0 MISS:          0
cpu0_STLB WRITE        ACCESS:          0 HIT:          0 MISS:          0
cpu0_STLB TRANSLATION  ACCESS:          0 HIT:          0 MISS:          0
cpu0_STLB PREFETCH REQUESTED:          0 ISSUED:          0 USEFUL:          0 USELESS:          0
cpu0_STLB AVERAGE MISS LATENCY: 185.7 cycles

DRAM Statistics

Channel 0 RQ ROW_BUFFER_HIT:     143340
  ROW_BUFFER_MISS:     299804
 AVG DBUS CONGESTED CYCLE: 3.917
WQ ROW_BUFFER_HIT: Channel 0 
  ROW_BUFFER_MISS:      24936
  FULL:     147077

Channel 1 RQ ROW_BUFFER_HIT:     140603
  ROW_BUFFER_MISS:     293778
 AVG DBUS CONGESTED CYCLE: 3.911
WQ ROW_BUFFER_HIT: Channel 1 
  ROW_BUFFER_MISS:      25241
  FULL:     144215
BERTI TO_L1: 3049753 TO_L2: 24459022 TO_L2_BC_MSHR: 15282384
BERTI AVG_LAT: 72.6696 NUM_TRACK_LATENCY: 1300962 NUM_CANT_TRACK_LATENCY: 0
BERTI CROSS_PAGE 6268197 NO_CROSS_PAGE: 21240578
BERTI FOUND_BERTI: 5296384 NO_FOUND_BERTI: 20110530
BERTI AVERAGE_ISSUED: 3.45054
CPU 0 L1I Entangling prefetcher final stats
IP accesses: 98b3 262cc0 20640 / 4675701
IP misses: 109 4240 2318 / 838480
IP hits: 0 0 0 / 0
IP late: 9a49 269240 521 / 342075
IP wrong: 207f 81fc0 669 / 576239
miss rate: 0.179328
coverage: 0
coverage_late: 0.407971
accuracy: 0
accuracy_late: 0.372504
discarded: 0
evicts entangled j table: 0
evicts entangled k table: 105495
max bb size: 67
formats: 10484 8945 113178 33493 24232 45394 0 
hist_lookups: 90436 87060 67722 66052 60327 50146 39060 29715 23300 18260 13511 8693 5153 2731 1234 0 30 94813 
hist_lookups_evict: 0.00455759 %
hist_lookups_shortlat: 14.404 %
bb_found_hist: 0 956459 423358 225884 93048 44146 22829 18568 13043 5921 3987 2120 893 2689 330 80 2 62 5 14 0 177 0 0 0 0 0 0 0 0 0 0 0 0 0 0 0 0 0 0 0 0 0 0 0 0 0 0 0 0 0 0 0 0 0 0 0 0 0 0 0 0 0 0 
bb_found_summary: 3618174 1813615 1.99501
entangled_found_hist: 0 508380 448372 826402 153744 71388 4172 0 
entangled_found_summary: 4881278 2012458 2.42554
bb_ent_found_hist: 0 1561337 664874 396783 204091 101398 45164 29476 23338 14504 9043 6538 1818 6037 1468 339 0 126 5 65 0 4 23 0 0 0 0 0 0 0 0 0 0 0 0 0 0 0 0 0 0 0 0 0 0 0 0 0 0 0 0 0 0 0 0 0 0 0 0 0 0 0 0 0 
bb_ent_found_summary: 6491683 3066431 2.11702
