WARNING: physical memory size is smaller than virtual memory size.

*** ChampSim Multicore Out-of-Order Simulator ***
Warmup Instructions: 30000000
Simulation Instructions: 100000000
Number of CPUs: 1
Page size: 4096

BTB:
Basic BTB sets: 1024 ways: 8
Indirect:
history lengths: 0 0 10 16 27 44 60 96 109 219 449 487 714 1313 2146 3881 
ITTAGE tables: 64768 bytes;Region table: 240 bytes;IUM: 384 bytes;Total Storage= 65392 bytes;
RAS:
RAS size: 64
[LLC] INSTR Demand IPV: 1 2 2 1 4 Prefetch IPV: 1 2 1 1 4
[LLC] DATA  Demand IPV: 1 1 1 2 4 Prefetch IPV: 1 1 2 2 4
Berti Prefetcher
CPU 0 Entangling prefetcher
Off-chip DRAM Size: 8 GiB Channels: 2 Width: 64-bit Data Race: 6400 MT/s
[DUEL] Epoch ended. INSTR misses = 41, DATA misses = 50. Winner = INSTR
[DUEL] Epoch ended. INSTR misses = 24, DATA misses = 16. Winner = DATA
[DUEL] Epoch ended. INSTR misses = 0, DATA misses = 0. Winner = INSTR
[DUEL] Epoch ended. INSTR misses = 0, DATA misses = 0. Winner = INSTR
[DUEL] Epoch ended. INSTR misses = 0, DATA misses = 0. Winner = INSTR
[DUEL] Epoch ended. INSTR misses = 0, DATA misses = 0. Winner = INSTR
[DUEL] Epoch ended. INSTR misses = 16, DATA misses = 16. Winner = INSTR
[DUEL] Epoch ended. INSTR misses = 0, DATA misses = 0. Winner = INSTR
[DUEL] Epoch ended. INSTR misses = 4, DATA misses = 0. Winner = DATA
[DUEL] Epoch ended. INSTR misses = 4, DATA misses = 5. Winner = INSTR
[DUEL] Epoch ended. INSTR misses = 0, DATA misses = 0. Winner = INSTR
[DUEL] Epoch ended. INSTR misses = 0, DATA misses = 0. Winner = INSTR
[DUEL] Epoch ended. INSTR misses = 12, DATA misses = 1. Winner = DATA
Heartbeat CPU 0 instructions: 10000002 cycles: 1715426 heartbeat IPC: 5.829 cumulative IPC: 5.829 (Simulation time: 00 hr 00 min 21 sec)
[DUEL] Epoch ended. INSTR misses = 1, DATA misses = 9. Winner = INSTR
[DUEL] Epoch ended. INSTR misses = 17, DATA misses = 18. Winner = INSTR
[DUEL] Epoch ended. INSTR misses = 94, DATA misses = 110. Winner = INSTR
Heartbeat CPU 0 instructions: 20000000 cycles: 3431584 heartbeat IPC: 5.827 cumulative IPC: 5.828 (Simulation time: 00 hr 00 min 43 sec)
[DUEL] Epoch ended. INSTR misses = 67, DATA misses = 60. Winner = DATA
Heartbeat CPU 0 instructions: 30000007 cycles: 5098328 heartbeat IPC: 6 cumulative IPC: 5.884 (Simulation time: 00 hr 01 min 03 sec)
Warmup finished CPU 0 instructions: 30000007 cycles: 5098329 cumulative IPC: 5.884 (Simulation time: 00 hr 01 min 03 sec)
Warmup complete CPU 0 instructions: 30000007 cycles: 5098329 cumulative IPC: 5.884 (Simulation time: 00 hr 01 min 03 sec)
[DUEL] Epoch ended. INSTR misses = 0, DATA misses = 1. Winner = INSTR
Heartbeat CPU 0 instructions: 40000002 cycles: 6766327 heartbeat IPC: 5.995 cumulative IPC: 5.995 (Simulation time: 00 hr 01 min 27 sec)
Heartbeat CPU 0 instructions: 50000009 cycles: 8432986 heartbeat IPC: 6 cumulative IPC: 5.998 (Simulation time: 00 hr 01 min 50 sec)
[DUEL] Epoch ended. INSTR misses = 0, DATA misses = 0. Winner = INSTR
[DUEL] Epoch ended. INSTR misses = 0, DATA misses = 0. Winner = INSTR
*** Reached end of trace: (0, "../traces/secret_traces/crypto/crypto84.champsimtrace.xz")
[DUEL] Epoch ended. INSTR misses = 20, DATA misses = 13. Winner = DATA
[DUEL] Epoch ended. INSTR misses = 2, DATA misses = 3. Winner = INSTR
[DUEL] Epoch ended. INSTR misses = 0, DATA misses = 0. Winner = INSTR
Heartbeat CPU 0 instructions: 60000003 cycles: 10529994 heartbeat IPC: 4.769 cumulative IPC: 5.523 (Simulation time: 00 hr 02 min 16 sec)
[DUEL] Epoch ended. INSTR misses = 0, DATA misses = 0. Winner = INSTR
[DUEL] Epoch ended. INSTR misses = 0, DATA misses = 0. Winner = INSTR
[DUEL] Epoch ended. INSTR misses = 0, DATA misses = 0. Winner = INSTR
[DUEL] Epoch ended. INSTR misses = 0, DATA misses = 0. Winner = INSTR
[DUEL] Epoch ended. INSTR misses = 0, DATA misses = 0. Winner = INSTR
[DUEL] Epoch ended. INSTR misses = 0, DATA misses = 0. Winner = INSTR
[DUEL] Epoch ended. INSTR misses = 2, DATA misses = 6. Winner = INSTR
[DUEL] Epoch ended. INSTR misses = 0, DATA misses = 0. Winner = INSTR
[DUEL] Epoch ended. INSTR misses = 1, DATA misses = 0. Winner = DATA
[DUEL] Epoch ended. INSTR misses = 5, DATA misses = 0. Winner = DATA
Heartbeat CPU 0 instructions: 70000002 cycles: 12530520 heartbeat IPC: 4.999 cumulative IPC: 5.382 (Simulation time: 00 hr 02 min 42 sec)
[DUEL] Epoch ended. INSTR misses = 1, DATA misses = 4. Winner = INSTR
[DUEL] Epoch ended. INSTR misses = 1, DATA misses = 4. Winner = INSTR
[DUEL] Epoch ended. INSTR misses = 36, DATA misses = 50. Winner = INSTR
Heartbeat CPU 0 instructions: 80000001 cycles: 14738398 heartbeat IPC: 4.529 cumulative IPC: 5.187 (Simulation time: 00 hr 03 min 09 sec)
[DUEL] Epoch ended. INSTR misses = 50, DATA misses = 42. Winner = DATA
Heartbeat CPU 0 instructions: 90000000 cycles: 16419915 heartbeat IPC: 5.947 cumulative IPC: 5.3 (Simulation time: 00 hr 03 min 33 sec)
[DUEL] Epoch ended. INSTR misses = 0, DATA misses = 2. Winner = INSTR
Heartbeat CPU 0 instructions: 100000006 cycles: 18087425 heartbeat IPC: 5.997 cumulative IPC: 5.389 (Simulation time: 00 hr 03 min 56 sec)
Heartbeat CPU 0 instructions: 110000002 cycles: 19754094 heartbeat IPC: 6 cumulative IPC: 5.459 (Simulation time: 00 hr 04 min 20 sec)
[DUEL] Epoch ended. INSTR misses = 0, DATA misses = 0. Winner = INSTR
[DUEL] Epoch ended. INSTR misses = 0, DATA misses = 0. Winner = INSTR
*** Reached end of trace: (0, "../traces/secret_traces/crypto/crypto84.champsimtrace.xz")
[DUEL] Epoch ended. INSTR misses = 15, DATA misses = 5. Winner = DATA
[DUEL] Epoch ended. INSTR misses = 1, DATA misses = 1. Winner = INSTR
[DUEL] Epoch ended. INSTR misses = 0, DATA misses = 0. Winner = INSTR
[DUEL] Epoch ended. INSTR misses = 0, DATA misses = 0. Winner = INSTR
[DUEL] Epoch ended. INSTR misses = 0, DATA misses = 0. Winner = INSTR
[DUEL] Epoch ended. INSTR misses = 0, DATA misses = 0. Winner = INSTR
Heartbeat CPU 0 instructions: 120000007 cycles: 21780027 heartbeat IPC: 4.936 cumulative IPC: 5.395 (Simulation time: 00 hr 04 min 46 sec)
[DUEL] Epoch ended. INSTR misses = 0, DATA misses = 0. Winner = INSTR
[DUEL] Epoch ended. INSTR misses = 0, DATA misses = 0. Winner = INSTR
[DUEL] Epoch ended. INSTR misses = 0, DATA misses = 0. Winner = INSTR
[DUEL] Epoch ended. INSTR misses = 2, DATA misses = 6. Winner = INSTR
[DUEL] Epoch ended. INSTR misses = 0, DATA misses = 0. Winner = INSTR
[DUEL] Epoch ended. INSTR misses = 1, DATA misses = 0. Winner = DATA
[DUEL] Epoch ended. INSTR misses = 0, DATA misses = 0. Winner = INSTR
Heartbeat CPU 0 instructions: 130000006 cycles: 23683026 heartbeat IPC: 5.255 cumulative IPC: 5.381 (Simulation time: 00 hr 05 min 11 sec)
Simulation finished CPU 0 instructions: 100000011 cycles: 18584699 cumulative IPC: 5.381 (Simulation time: 00 hr 05 min 11 sec)
Simulation complete CPU 0 instructions: 100000011 cycles: 18584699 cumulative IPC: 5.381 (Simulation time: 00 hr 05 min 11 sec)

ChampSim completed all CPUs

=== Simulation ===
CPU 0 runs ../traces/secret_traces/crypto/crypto84.champsimtrace.xz
Region of Interest Statistics

CPU 0 cumulative IPC: 5.381 instructions: 100000011 cycles: 18584699
CPU 0 Branch Prediction Accuracy: 99.55% MPKI: 0.4691 Average ROB Occupancy at Mispredict: 31.82
Branch type MPKI
BRANCH_DIRECT_JUMP: 0.0234
BRANCH_INDIRECT: 0.23
BRANCH_CONDITIONAL: 0.0994
BRANCH_DIRECT_CALL: 0.0692
BRANCH_INDIRECT_CALL: 0.00974
BRANCH_RETURN: 0.0377

LLC TOTAL        ACCESS:     157876 HIT:     109438 MISS:      48438
LLC LOAD         ACCESS:      15859 HIT:       8030 MISS:       7829
LLC RFO          ACCESS:      46365 HIT:      35648 MISS:      10717
LLC PREFETCH     ACCESS:      40793 HIT:      20951 MISS:      19842
LLC WRITE        ACCESS:      53799 HIT:      44620 MISS:       9179
LLC TRANSLATION  ACCESS:       1060 HIT:        189 MISS:        871
LLC PREFETCH REQUESTED:          0 ISSUED:          0 USEFUL:          0 USELESS:          0
LLC AVERAGE MISS LATENCY: 162.3 cycles
cpu0_DTLB TOTAL        ACCESS:   11679913 HIT:   11664205 MISS:      15708
cpu0_DTLB LOAD         ACCESS:   11679913 HIT:   11664205 MISS:      15708
cpu0_DTLB RFO          ACCESS:          0 HIT:          0 MISS:          0
cpu0_DTLB PREFETCH     ACCESS:          0 HIT:          0 MISS:          0
cpu0_DTLB WRITE        ACCESS:          0 HIT:          0 MISS:          0
cpu0_DTLB TRANSLATION  ACCESS:          0 HIT:          0 MISS:          0
cpu0_DTLB PREFETCH REQUESTED:          0 ISSUED:          0 USEFUL:          0 USELESS:          0
cpu0_DTLB AVERAGE MISS LATENCY: 11.84 cycles
cpu0_ITLB TOTAL        ACCESS:     304707 HIT:     298152 MISS:       6555
cpu0_ITLB LOAD         ACCESS:     304707 HIT:     298152 MISS:       6555
cpu0_ITLB RFO          ACCESS:          0 HIT:          0 MISS:          0
cpu0_ITLB PREFETCH     ACCESS:          0 HIT:          0 MISS:          0
cpu0_ITLB WRITE        ACCESS:          0 HIT:          0 MISS:          0
cpu0_ITLB TRANSLATION  ACCESS:          0 HIT:          0 MISS:          0
cpu0_ITLB PREFETCH REQUESTED:          0 ISSUED:          0 USEFUL:          0 USELESS:          0
cpu0_ITLB AVERAGE MISS LATENCY: 21.8 cycles
cpu0_L1D TOTAL        ACCESS:   17260008 HIT:   17041807 MISS:     218201
cpu0_L1D LOAD         ACCESS:   11959857 HIT:   11900899 MISS:      58958
cpu0_L1D RFO          ACCESS:          0 HIT:          0 MISS:          0
cpu0_L1D PREFETCH     ACCESS:     258062 HIT:     216464 MISS:      41598
cpu0_L1D WRITE        ACCESS:    5039852 HIT:    4923629 MISS:     116223
cpu0_L1D TRANSLATION  ACCESS:       2237 HIT:        815 MISS:       1422
cpu0_L1D PREFETCH REQUESTED:    1431711 ISSUED:     258062 USEFUL:       4519 USELESS:        643
cpu0_L1D AVERAGE MISS LATENCY: 29.92 cycles
cpu0_L1I TOTAL        ACCESS:     442929 HIT:     367799 MISS:      75130
cpu0_L1I LOAD         ACCESS:     145301 HIT:     126367 MISS:      18934
cpu0_L1I RFO          ACCESS:          0 HIT:          0 MISS:          0
cpu0_L1I PREFETCH     ACCESS:     297628 HIT:     241432 MISS:      56196
cpu0_L1I WRITE        ACCESS:          0 HIT:          0 MISS:          0
cpu0_L1I TRANSLATION  ACCESS:          0 HIT:          0 MISS:          0
cpu0_L1I PREFETCH REQUESTED:     446816 ISSUED:     297628 USEFUL:      29593 USELESS:      23665
cpu0_L1I AVERAGE MISS LATENCY: 29.42 cycles
cpu0_L2C TOTAL        ACCESS:     384111 HIT:     248174 MISS:     135937
cpu0_L2C LOAD         ACCESS:      51016 HIT:      31656 MISS:      19360
cpu0_L2C RFO          ACCESS:      50314 HIT:       3935 MISS:      46379
cpu0_L2C PREFETCH     ACCESS:     222792 HIT:     153654 MISS:      69138
cpu0_L2C WRITE        ACCESS:      58623 HIT:      58623 MISS:          0
cpu0_L2C TRANSLATION  ACCESS:       1366 HIT:        306 MISS:       1060
cpu0_L2C PREFETCH REQUESTED:     138940 ISSUED:     134868 USEFUL:      10368 USELESS:       9169
cpu0_L2C AVERAGE MISS LATENCY: 70.85 cycles
cpu0_STLB TOTAL        ACCESS:      10415 HIT:       8345 MISS:       2070
cpu0_STLB LOAD         ACCESS:      10415 HIT:       8345 MISS:       2070
cpu0_STLB RFO          ACCESS:          0 HIT:          0 MISS:          0
cpu0_STLB PREFETCH     ACCESS:          0 HIT:          0 MISS:          0
cpu0_STLB WRITE        ACCESS:          0 HIT:          0 MISS:          0
cpu0_STLB TRANSLATION  ACCESS:          0 HIT:          0 MISS:          0
cpu0_STLB PREFETCH REQUESTED:          0 ISSUED:          0 USEFUL:          0 USELESS:          0
cpu0_STLB AVERAGE MISS LATENCY: 136.7 cycles

DRAM Statistics

Channel 0 RQ ROW_BUFFER_HIT:       8894
  ROW_BUFFER_MISS:      11088
 AVG DBUS CONGESTED CYCLE: 3.894
WQ ROW_BUFFER_HIT: Channel 0 
  ROW_BUFFER_MISS:        877
  FULL:       6438

Channel 1 RQ ROW_BUFFER_HIT:       8515
  ROW_BUFFER_MISS:      10757
 AVG DBUS CONGESTED CYCLE: 3.879
WQ ROW_BUFFER_HIT: Channel 1 
  ROW_BUFFER_MISS:        952
  FULL:       6055
BERTI TO_L1: 802490 TO_L2: 1117464 TO_L2_BC_MSHR: 584120
BERTI AVG_LAT: 55.9881 NUM_TRACK_LATENCY: 75083 NUM_CANT_TRACK_LATENCY: 0
BERTI CROSS_PAGE 382045 NO_CROSS_PAGE: 1537909
BERTI FOUND_BERTI: 801639 NO_FOUND_BERTI: 14979768
BERTI AVERAGE_ISSUED: 4.32193
CPU 0 L1I Entangling prefetcher final stats
IP accesses: 6f71 1bdc40 922 / 145371
IP misses: 25bf 96fc0 98 / 19004
IP hits: 0 0 0 / 0
IP late: 4e9e 13a780 54 / 9224
IP wrong: 7cde 1f3780 127 / 23496
miss rate: 0.130728
coverage: 0
coverage_late: 0.485372
accuracy: 0
accuracy_late: 0.281908
discarded: 0
evicts entangled j table: 0
evicts entangled k table: 2968
max bb size: 53
formats: 714 0 2747 1465 579 1397 0 
hist_lookups: 2724 2754 1988 1730 1409 1161 907 727 562 490 338 221 145 70 40 0 9 3641 
hist_lookups_evict: 0.0475788 %
hist_lookups_shortlat: 19.2483 %
bb_found_hist: 0 36645 14091 7753 3326 1662 789 517 192 46 10 54 36 20 12 15 2 4 0 0 0 2 0 0 0 0 0 0 0 0 0 2 0 0 2 0 0 0 0 0 0 0 0 0 0 0 0 0 0 0 0 0 0 2 0 0 0 0 0 0 0 0 0 0 
bb_found_summary: 122160 65182 1.87414
entangled_found_hist: 0 19216 13963 25304 4688 798 147 0 
entangled_found_summary: 146678 64116 2.2877
bb_ent_found_hist: 0 48300 22345 15211 5999 3955 1518 731 718 17 52 75 49 8 16 36 124 2 0 0 0 5 0 0 0 0 0 0 0 0 0 2 0 0 3 0 0 0 0 0 0 0 0 0 0 0 0 0 0 0 0 0 0 2 0 0 0 0 0 0 0 0 0 0 
bb_ent_found_summary: 207710 99168 2.09453
