WARNING: physical memory size is smaller than virtual memory size.

*** ChampSim Multicore Out-of-Order Simulator ***
Warmup Instructions: 30000000
Simulation Instructions: 100000000
Number of CPUs: 1
Page size: 4096

BTB:
Basic BTB sets: 1024 ways: 8
Indirect:
history lengths: 0 0 10 16 27 44 60 96 109 219 449 487 714 1313 2146 3881 
ITTAGE tables: 64768 bytes;Region table: 240 bytes;IUM: 384 bytes;Total Storage= 65392 bytes;
RAS:
RAS size: 64
[LLC] INSTR Demand IPV: 1 2 2 1 4 Prefetch IPV: 1 2 1 1 4
[LLC] DATA  Demand IPV: 1 1 1 2 4 Prefetch IPV: 1 1 2 2 4
Berti Prefetcher
CPU 0 Entangling prefetcher
Off-chip DRAM Size: 8 GiB Channels: 2 Width: 64-bit Data Race: 6400 MT/s
[DUEL] Epoch ended. INSTR misses = 38, DATA misses = 40. Winner = INSTR
[DUEL] Epoch ended. INSTR misses = 16, DATA misses = 16. Winner = INSTR
[DUEL] Epoch ended. INSTR misses = 0, DATA misses = 0. Winner = INSTR
[DUEL] Epoch ended. INSTR misses = 0, DATA misses = 0. Winner = INSTR
[DUEL] Epoch ended. INSTR misses = 3, DATA misses = 0. Winner = DATA
[DUEL] Epoch ended. INSTR misses = 1, DATA misses = 0. Winner = DATA
[DUEL] Epoch ended. INSTR misses = 1, DATA misses = 0. Winner = DATA
[DUEL] Epoch ended. INSTR misses = 0, DATA misses = 0. Winner = INSTR
[DUEL] Epoch ended. INSTR misses = 0, DATA misses = 0. Winner = INSTR
[DUEL] Epoch ended. INSTR misses = 0, DATA misses = 2. Winner = INSTR
[DUEL] Epoch ended. INSTR misses = 1, DATA misses = 0. Winner = DATA
[DUEL] Epoch ended. INSTR misses = 1, DATA misses = 0. Winner = DATA
[DUEL] Epoch ended. INSTR misses = 23, DATA misses = 16. Winner = DATA
Heartbeat CPU 0 instructions: 10000005 cycles: 1715383 heartbeat IPC: 5.83 cumulative IPC: 5.83 (Simulation time: 00 hr 00 min 20 sec)
[DUEL] Epoch ended. INSTR misses = 11, DATA misses = 9. Winner = DATA
[DUEL] Epoch ended. INSTR misses = 26, DATA misses = 25. Winner = DATA
[DUEL] Epoch ended. INSTR misses = 73, DATA misses = 72. Winner = DATA
[DUEL] Epoch ended. INSTR misses = 18, DATA misses = 21. Winner = INSTR
Heartbeat CPU 0 instructions: 20000000 cycles: 3431622 heartbeat IPC: 5.827 cumulative IPC: 5.828 (Simulation time: 00 hr 00 min 40 sec)
[DUEL] Epoch ended. INSTR misses = 1, DATA misses = 0. Winner = DATA
*** Reached end of trace: (0, "../traces/secret_traces/crypto/crypto24.champsimtrace.xz")
[DUEL] Epoch ended. INSTR misses = 7, DATA misses = 2. Winner = DATA
[DUEL] Epoch ended. INSTR misses = 7, DATA misses = 1. Winner = DATA
[DUEL] Epoch ended. INSTR misses = 2, DATA misses = 0. Winner = DATA
[DUEL] Epoch ended. INSTR misses = 0, DATA misses = 0. Winner = INSTR
[DUEL] Epoch ended. INSTR misses = 0, DATA misses = 0. Winner = INSTR
[DUEL] Epoch ended. INSTR misses = 0, DATA misses = 0. Winner = INSTR
[DUEL] Epoch ended. INSTR misses = 1, DATA misses = 0. Winner = DATA
[DUEL] Epoch ended. INSTR misses = 0, DATA misses = 0. Winner = INSTR
[DUEL] Epoch ended. INSTR misses = 0, DATA misses = 0. Winner = INSTR
[DUEL] Epoch ended. INSTR misses = 2, DATA misses = 0. Winner = DATA
[DUEL] Epoch ended. INSTR misses = 0, DATA misses = 0. Winner = INSTR
[DUEL] Epoch ended. INSTR misses = 1, DATA misses = 0. Winner = DATA
[DUEL] Epoch ended. INSTR misses = 0, DATA misses = 2. Winner = INSTR
[DUEL] Epoch ended. INSTR misses = 0, DATA misses = 0. Winner = INSTR
Heartbeat CPU 0 instructions: 30000002 cycles: 5151474 heartbeat IPC: 5.814 cumulative IPC: 5.824 (Simulation time: 00 hr 01 min 01 sec)
Warmup finished CPU 0 instructions: 30000002 cycles: 5151475 cumulative IPC: 5.824 (Simulation time: 00 hr 01 min 01 sec)
Warmup complete CPU 0 instructions: 30000002 cycles: 5151475 cumulative IPC: 5.824 (Simulation time: 00 hr 01 min 01 sec)
Heartbeat CPU 0 instructions: 40000007 cycles: 6818147 heartbeat IPC: 6 cumulative IPC: 6 (Simulation time: 00 hr 01 min 22 sec)
[DUEL] Epoch ended. INSTR misses = 1, DATA misses = 7. Winner = INSTR
[DUEL] Epoch ended. INSTR misses = 8, DATA misses = 5. Winner = DATA
[DUEL] Epoch ended. INSTR misses = 22, DATA misses = 12. Winner = DATA
[DUEL] Epoch ended. INSTR misses = 3, DATA misses = 4. Winner = INSTR
[DUEL] Epoch ended. INSTR misses = 0, DATA misses = 0. Winner = INSTR
*** Reached end of trace: (0, "../traces/secret_traces/crypto/crypto24.champsimtrace.xz")
[DUEL] Epoch ended. INSTR misses = 1, DATA misses = 2. Winner = INSTR
[DUEL] Epoch ended. INSTR misses = 6, DATA misses = 5. Winner = DATA
[DUEL] Epoch ended. INSTR misses = 1, DATA misses = 0. Winner = DATA
[DUEL] Epoch ended. INSTR misses = 0, DATA misses = 0. Winner = INSTR
[DUEL] Epoch ended. INSTR misses = 0, DATA misses = 0. Winner = INSTR
[DUEL] Epoch ended. INSTR misses = 0, DATA misses = 0. Winner = INSTR
[DUEL] Epoch ended. INSTR misses = 1, DATA misses = 0. Winner = DATA
[DUEL] Epoch ended. INSTR misses = 0, DATA misses = 1. Winner = INSTR
[DUEL] Epoch ended. INSTR misses = 0, DATA misses = 0. Winner = INSTR
[DUEL] Epoch ended. INSTR misses = 0, DATA misses = 0. Winner = INSTR
[DUEL] Epoch ended. INSTR misses = 0, DATA misses = 0. Winner = INSTR
[DUEL] Epoch ended. INSTR misses = 8, DATA misses = 0. Winner = DATA
[DUEL] Epoch ended. INSTR misses = 1, DATA misses = 0. Winner = DATA
Heartbeat CPU 0 instructions: 50000002 cycles: 9596997 heartbeat IPC: 3.599 cumulative IPC: 4.499 (Simulation time: 00 hr 01 min 51 sec)
[DUEL] Epoch ended. INSTR misses = 0, DATA misses = 0. Winner = INSTR
Heartbeat CPU 0 instructions: 60000001 cycles: 11322054 heartbeat IPC: 5.797 cumulative IPC: 4.862 (Simulation time: 00 hr 02 min 12 sec)
[DUEL] Epoch ended. INSTR misses = 2, DATA misses = 4. Winner = INSTR
[DUEL] Epoch ended. INSTR misses = 9, DATA misses = 2. Winner = DATA
[DUEL] Epoch ended. INSTR misses = 24, DATA misses = 8. Winner = DATA
[DUEL] Epoch ended. INSTR misses = 4, DATA misses = 3. Winner = DATA
[DUEL] Epoch ended. INSTR misses = 0, DATA misses = 0. Winner = INSTR
*** Reached end of trace: (0, "../traces/secret_traces/crypto/crypto24.champsimtrace.xz")
[DUEL] Epoch ended. INSTR misses = 2, DATA misses = 3. Winner = INSTR
[DUEL] Epoch ended. INSTR misses = 1, DATA misses = 2. Winner = INSTR
[DUEL] Epoch ended. INSTR misses = 1, DATA misses = 0. Winner = DATA
[DUEL] Epoch ended. INSTR misses = 0, DATA misses = 0. Winner = INSTR
[DUEL] Epoch ended. INSTR misses = 2, DATA misses = 0. Winner = DATA
[DUEL] Epoch ended. INSTR misses = 0, DATA misses = 0. Winner = INSTR
[DUEL] Epoch ended. INSTR misses = 1, DATA misses = 0. Winner = DATA
[DUEL] Epoch ended. INSTR misses = 0, DATA misses = 0. Winner = INSTR
[DUEL] Epoch ended. INSTR misses = 0, DATA misses = 0. Winner = INSTR
[DUEL] Epoch ended. INSTR misses = 0, DATA misses = 0. Winner = INSTR
Heartbeat CPU 0 instructions: 70000010 cycles: 13831849 heartbeat IPC: 3.984 cumulative IPC: 4.608 (Simulation time: 00 hr 02 min 39 sec)
[DUEL] Epoch ended. INSTR misses = 2, DATA misses = 0. Winner = DATA
[DUEL] Epoch ended. INSTR misses = 2, DATA misses = 0. Winner = DATA
[DUEL] Epoch ended. INSTR misses = 0, DATA misses = 0. Winner = INSTR
[DUEL] Epoch ended. INSTR misses = 0, DATA misses = 0. Winner = INSTR
Heartbeat CPU 0 instructions: 80000009 cycles: 15662539 heartbeat IPC: 5.462 cumulative IPC: 4.757 (Simulation time: 00 hr 03 min 02 sec)
[DUEL] Epoch ended. INSTR misses = 1, DATA misses = 5. Winner = INSTR
[DUEL] Epoch ended. INSTR misses = 6, DATA misses = 3. Winner = DATA
[DUEL] Epoch ended. INSTR misses = 17, DATA misses = 8. Winner = DATA
[DUEL] Epoch ended. INSTR misses = 2, DATA misses = 4. Winner = INSTR
[DUEL] Epoch ended. INSTR misses = 0, DATA misses = 0. Winner = INSTR
Heartbeat CPU 0 instructions: 90000001 cycles: 17838283 heartbeat IPC: 4.596 cumulative IPC: 4.729 (Simulation time: 00 hr 03 min 27 sec)
*** Reached end of trace: (0, "../traces/secret_traces/crypto/crypto24.champsimtrace.xz")
[DUEL] Epoch ended. INSTR misses = 3, DATA misses = 0. Winner = DATA
[DUEL] Epoch ended. INSTR misses = 4, DATA misses = 2. Winner = DATA
[DUEL] Epoch ended. INSTR misses = 1, DATA misses = 0. Winner = DATA
[DUEL] Epoch ended. INSTR misses = 0, DATA misses = 0. Winner = INSTR
[DUEL] Epoch ended. INSTR misses = 1, DATA misses = 0. Winner = DATA
[DUEL] Epoch ended. INSTR misses = 0, DATA misses = 0. Winner = INSTR
[DUEL] Epoch ended. INSTR misses = 1, DATA misses = 0. Winner = DATA
[DUEL] Epoch ended. INSTR misses = 0, DATA misses = 0. Winner = INSTR
[DUEL] Epoch ended. INSTR misses = 0, DATA misses = 0. Winner = INSTR
[DUEL] Epoch ended. INSTR misses = 0, DATA misses = 0. Winner = INSTR
[DUEL] Epoch ended. INSTR misses = 2, DATA misses = 0. Winner = DATA
[DUEL] Epoch ended. INSTR misses = 1, DATA misses = 0. Winner = DATA
[DUEL] Epoch ended. INSTR misses = 0, DATA misses = 0. Winner = INSTR
[DUEL] Epoch ended. INSTR misses = 0, DATA misses = 0. Winner = INSTR
Heartbeat CPU 0 instructions: 100000002 cycles: 19923914 heartbeat IPC: 4.795 cumulative IPC: 4.739 (Simulation time: 00 hr 03 min 52 sec)
[DUEL] Epoch ended. INSTR misses = 1, DATA misses = 3. Winner = INSTR
[DUEL] Epoch ended. INSTR misses = 3, DATA misses = 2. Winner = DATA
[DUEL] Epoch ended. INSTR misses = 17, DATA misses = 6. Winner = DATA
[DUEL] Epoch ended. INSTR misses = 2, DATA misses = 3. Winner = INSTR
Heartbeat CPU 0 instructions: 110000006 cycles: 22043564 heartbeat IPC: 4.718 cumulative IPC: 4.736 (Simulation time: 00 hr 04 min 16 sec)
[DUEL] Epoch ended. INSTR misses = 0, DATA misses = 0. Winner = INSTR
*** Reached end of trace: (0, "../traces/secret_traces/crypto/crypto24.champsimtrace.xz")
[DUEL] Epoch ended. INSTR misses = 3, DATA misses = 0. Winner = DATA
[DUEL] Epoch ended. INSTR misses = 0, DATA misses = 2. Winner = INSTR
[DUEL] Epoch ended. INSTR misses = 1, DATA misses = 0. Winner = DATA
[DUEL] Epoch ended. INSTR misses = 0, DATA misses = 0. Winner = INSTR
[DUEL] Epoch ended. INSTR misses = 1, DATA misses = 0. Winner = DATA
[DUEL] Epoch ended. INSTR misses = 0, DATA misses = 0. Winner = INSTR
[DUEL] Epoch ended. INSTR misses = 1, DATA misses = 0. Winner = DATA
[DUEL] Epoch ended. INSTR misses = 0, DATA misses = 0. Winner = INSTR
[DUEL] Epoch ended. INSTR misses = 0, DATA misses = 0. Winner = INSTR
[DUEL] Epoch ended. INSTR misses = 0, DATA misses = 0. Winner = INSTR
[DUEL] Epoch ended. INSTR misses = 0, DATA misses = 0. Winner = INSTR
[DUEL] Epoch ended. INSTR misses = 2, DATA misses = 0. Winner = DATA
[DUEL] Epoch ended. INSTR misses = 0, DATA misses = 0. Winner = INSTR
[DUEL] Epoch ended. INSTR misses = 0, DATA misses = 0. Winner = INSTR
Heartbeat CPU 0 instructions: 120000006 cycles: 24158979 heartbeat IPC: 4.727 cumulative IPC: 4.735 (Simulation time: 00 hr 04 min 41 sec)
Heartbeat CPU 0 instructions: 130000006 cycles: 25825644 heartbeat IPC: 6 cumulative IPC: 4.837 (Simulation time: 00 hr 05 min 02 sec)
Simulation finished CPU 0 instructions: 100000004 cycles: 20674170 cumulative IPC: 4.837 (Simulation time: 00 hr 05 min 02 sec)
Simulation complete CPU 0 instructions: 100000004 cycles: 20674170 cumulative IPC: 4.837 (Simulation time: 00 hr 05 min 02 sec)

ChampSim completed all CPUs

=== Simulation ===
CPU 0 runs ../traces/secret_traces/crypto/crypto24.champsimtrace.xz
Region of Interest Statistics

CPU 0 cumulative IPC: 4.837 instructions: 100000004 cycles: 20674170
CPU 0 Branch Prediction Accuracy: 98.41% MPKI: 0.9674 Average ROB Occupancy at Mispredict: 32.18
Branch type MPKI
BRANCH_DIRECT_JUMP: 0.0576
BRANCH_INDIRECT: 0.512
BRANCH_CONDITIONAL: 0.12
BRANCH_DIRECT_CALL: 0.167
BRANCH_INDIRECT_CALL: 0.0203
BRANCH_RETURN: 0.0907

LLC TOTAL        ACCESS:     464410 HIT:     340305 MISS:     124105
LLC LOAD         ACCESS:      48812 HIT:      25099 MISS:      23713
LLC RFO          ACCESS:     142856 HIT:     114141 MISS:      28715
LLC PREFETCH     ACCESS:     111603 HIT:      64297 MISS:      47306
LLC WRITE        ACCESS:     158496 HIT:     135927 MISS:      22569
LLC TRANSLATION  ACCESS:       2643 HIT:        841 MISS:       1802
LLC PREFETCH REQUESTED:          0 ISSUED:          0 USEFUL:          0 USELESS:          0
LLC AVERAGE MISS LATENCY: 158.1 cycles
cpu0_DTLB TOTAL        ACCESS:   15931947 HIT:   15887094 MISS:      44853
cpu0_DTLB LOAD         ACCESS:   15931947 HIT:   15887094 MISS:      44853
cpu0_DTLB RFO          ACCESS:          0 HIT:          0 MISS:          0
cpu0_DTLB PREFETCH     ACCESS:          0 HIT:          0 MISS:          0
cpu0_DTLB WRITE        ACCESS:          0 HIT:          0 MISS:          0
cpu0_DTLB TRANSLATION  ACCESS:          0 HIT:          0 MISS:          0
cpu0_DTLB PREFETCH REQUESTED:          0 ISSUED:          0 USEFUL:          0 USELESS:          0
cpu0_DTLB AVERAGE MISS LATENCY: 8.697 cycles
cpu0_ITLB TOTAL        ACCESS:     759154 HIT:     743875 MISS:      15279
cpu0_ITLB LOAD         ACCESS:     759154 HIT:     743875 MISS:      15279
cpu0_ITLB RFO          ACCESS:          0 HIT:          0 MISS:          0
cpu0_ITLB PREFETCH     ACCESS:          0 HIT:          0 MISS:          0
cpu0_ITLB WRITE        ACCESS:          0 HIT:          0 MISS:          0
cpu0_ITLB TRANSLATION  ACCESS:          0 HIT:          0 MISS:          0
cpu0_ITLB PREFETCH REQUESTED:          0 ISSUED:          0 USEFUL:          0 USELESS:          0
cpu0_ITLB AVERAGE MISS LATENCY: 18.46 cycles
cpu0_L1D TOTAL        ACCESS:   32853005 HIT:   32196109 MISS:     656896
cpu0_L1D LOAD         ACCESS:   10197376 HIT:   10025615 MISS:     171761
cpu0_L1D RFO          ACCESS:          0 HIT:          0 MISS:          0
cpu0_L1D PREFETCH     ACCESS:   18871778 HIT:   18765316 MISS:     106462
cpu0_L1D WRITE        ACCESS:    3778375 HIT:    3403111 MISS:     375264
cpu0_L1D TRANSLATION  ACCESS:       5476 HIT:       2067 MISS:       3409
cpu0_L1D PREFETCH REQUESTED:   22513283 ISSUED:   18871773 USEFUL:      13638 USELESS:       1764
cpu0_L1D AVERAGE MISS LATENCY: 28.45 cycles
cpu0_L1I TOTAL        ACCESS:    1104824 HIT:     926587 MISS:     178237
cpu0_L1I LOAD         ACCESS:     360804 HIT:     320573 MISS:      40231
cpu0_L1I RFO          ACCESS:          0 HIT:          0 MISS:          0
cpu0_L1I PREFETCH     ACCESS:     744020 HIT:     606014 MISS:     138006
cpu0_L1I WRITE        ACCESS:          0 HIT:          0 MISS:          0
cpu0_L1I TRANSLATION  ACCESS:          0 HIT:          0 MISS:          0
cpu0_L1I PREFETCH REQUESTED:    1191075 ISSUED:     744020 USEFUL:      77928 USELESS:      54635
cpu0_L1I AVERAGE MISS LATENCY: 29.93 cycles
cpu0_L2C TOTAL        ACCESS:    1049138 HIT:     650551 MISS:     398587
cpu0_L2C LOAD         ACCESS:     138475 HIT:      77724 MISS:      60751
cpu0_L2C RFO          ACCESS:     155044 HIT:      12137 MISS:     142907
cpu0_L2C PREFETCH     ACCESS:     572521 HIT:     380235 MISS:     192286
cpu0_L2C WRITE        ACCESS:     179764 HIT:     179764 MISS:          0
cpu0_L2C TRANSLATION  ACCESS:       3334 HIT:        691 MISS:       2643
cpu0_L2C PREFETCH REQUESTED:     361187 ISSUED:     349809 USEFUL:      29662 USELESS:      26676
cpu0_L2C AVERAGE MISS LATENCY: 62.53 cycles
cpu0_STLB TOTAL        ACCESS:      26106 HIT:      21074 MISS:       5032
cpu0_STLB LOAD         ACCESS:      26106 HIT:      21074 MISS:       5032
cpu0_STLB RFO          ACCESS:          0 HIT:          0 MISS:          0
cpu0_STLB PREFETCH     ACCESS:          0 HIT:          0 MISS:          0
cpu0_STLB WRITE        ACCESS:          0 HIT:          0 MISS:          0
cpu0_STLB TRANSLATION  ACCESS:          0 HIT:          0 MISS:          0
cpu0_STLB PREFETCH REQUESTED:          0 ISSUED:          0 USEFUL:          0 USELESS:          0
cpu0_STLB AVERAGE MISS LATENCY: 112.6 cycles

DRAM Statistics

Channel 0 RQ ROW_BUFFER_HIT:      26329
  ROW_BUFFER_MISS:      25269
 AVG DBUS CONGESTED CYCLE: 3.893
WQ ROW_BUFFER_HIT: Channel 0 
  ROW_BUFFER_MISS:       2212
  FULL:      14554

Channel 1 RQ ROW_BUFFER_HIT:      25084
  ROW_BUFFER_MISS:      24836
 AVG DBUS CONGESTED CYCLE: 3.885
WQ ROW_BUFFER_HIT: Channel 1 
  ROW_BUFFER_MISS:       2036
  FULL:      14097
BERTI TO_L1: 23441880 TO_L2: 5237536 TO_L2_BC_MSHR: 2001012
BERTI AVG_LAT: 64.7144 NUM_TRACK_LATENCY: 172868 NUM_CANT_TRACK_LATENCY: 0
BERTI CROSS_PAGE 7709345 NO_CROSS_PAGE: 20970071
BERTI FOUND_BERTI: 3973637 NO_FOUND_BERTI: 9876950
BERTI AVERAGE_ISSUED: 9.73638
CPU 0 L1I Entangling prefetcher final stats
IP accesses: 6f71 1bdc40 1809 / 362103
IP misses: 5bf1 16fc40 185 / 41530
IP hits: 0 0 0 / 0
IP late: 3ffa ffe80 50 / 19596
IP wrong: f7ed 3dfb40 119 / 54400
miss rate: 0.114692
coverage: 0
coverage_late: 0.471852
accuracy: 0
accuracy_late: 0.264826
discarded: 0
evicts entangled j table: 0
evicts entangled k table: 6992
max bb size: 53
formats: 1750 0 5578 2695 1176 2027 0 
hist_lookups: 4440 5219 4263 3711 3364 2835 2063 1578 1275 981 720 453 281 155 89 0 9 7130 
hist_lookups_evict: 0.0233367 %
hist_lookups_shortlat: 18.4878 %
bb_found_hist: 0 92096 40032 19156 8891 4221 2252 1750 569 109 6 109 120 98 28 0 4 0 0 0 0 8 0 0 0 0 0 0 0 0 0 4 0 0 4 0 0 0 0 0 0 0 0 0 0 0 0 0 0 0 0 0 0 4 0 0 0 0 0 0 0 0 0 0 
bb_found_summary: 322661 169461 1.90405
entangled_found_hist: 0 51380 37552 65873 13065 2077 678 0 
entangled_found_summary: 390816 170625 2.2905
bb_ent_found_hist: 0 128275 58771 40366 16871 10328 3606 2421 1722 110 0 245 125 36 16 0 255 0 0 0 0 146 0 0 0 0 0 0 0 0 0 7 0 0 8 0 0 0 0 0 0 0 0 0 0 0 0 0 0 0 0 0 0 4 0 0 0 0 0 0 0 0 0 0 
bb_ent_found_summary: 552122 263312 2.09684
