WARNING: physical memory size is smaller than virtual memory size.

*** ChampSim Multicore Out-of-Order Simulator ***
Warmup Instructions: 30000000
Simulation Instructions: 100000000
Number of CPUs: 1
Page size: 4096

BTB:
Basic BTB sets: 1024 ways: 8
Indirect:
history lengths: 0 0 10 16 27 44 60 96 109 219 449 487 714 1313 2146 3881 
ITTAGE tables: 64768 bytes;Region table: 240 bytes;IUM: 384 bytes;Total Storage= 65392 bytes;
RAS:
RAS size: 64
[LLC] INSTR Demand IPV: 1 2 2 1 4 Prefetch IPV: 1 2 1 1 4
[LLC] DATA  Demand IPV: 1 1 1 2 4 Prefetch IPV: 1 1 2 2 4
Berti Prefetcher
CPU 0 Entangling prefetcher
Off-chip DRAM Size: 8 GiB Channels: 2 Width: 64-bit Data Race: 6400 MT/s
[DUEL] Epoch ended. INSTR misses = 36, DATA misses = 41. Winner = INSTR
[DUEL] Epoch ended. INSTR misses = 16, DATA misses = 16. Winner = INSTR
[DUEL] Epoch ended. INSTR misses = 1, DATA misses = 0. Winner = DATA
[DUEL] Epoch ended. INSTR misses = 0, DATA misses = 0. Winner = INSTR
[DUEL] Epoch ended. INSTR misses = 0, DATA misses = 0. Winner = INSTR
[DUEL] Epoch ended. INSTR misses = 0, DATA misses = 0. Winner = INSTR
[DUEL] Epoch ended. INSTR misses = 0, DATA misses = 1. Winner = INSTR
[DUEL] Epoch ended. INSTR misses = 0, DATA misses = 0. Winner = INSTR
[DUEL] Epoch ended. INSTR misses = 0, DATA misses = 0. Winner = INSTR
[DUEL] Epoch ended. INSTR misses = 16, DATA misses = 18. Winner = INSTR
[DUEL] Epoch ended. INSTR misses = 1, DATA misses = 0. Winner = DATA
[DUEL] Epoch ended. INSTR misses = 8, DATA misses = 1. Winner = DATA
[DUEL] Epoch ended. INSTR misses = 16, DATA misses = 16. Winner = INSTR
Heartbeat CPU 0 instructions: 10000001 cycles: 1715452 heartbeat IPC: 5.829 cumulative IPC: 5.829 (Simulation time: 00 hr 00 min 20 sec)
[DUEL] Epoch ended. INSTR misses = 2, DATA misses = 4. Winner = INSTR
[DUEL] Epoch ended. INSTR misses = 21, DATA misses = 24. Winner = INSTR
[DUEL] Epoch ended. INSTR misses = 84, DATA misses = 86. Winner = INSTR
[DUEL] Epoch ended. INSTR misses = 51, DATA misses = 53. Winner = INSTR
Heartbeat CPU 0 instructions: 20000003 cycles: 3431788 heartbeat IPC: 5.826 cumulative IPC: 5.828 (Simulation time: 00 hr 00 min 40 sec)
[DUEL] Epoch ended. INSTR misses = 0, DATA misses = 0. Winner = INSTR
*** Reached end of trace: (0, "../traces/secret_traces/crypto/crypto29.champsimtrace.xz")
[DUEL] Epoch ended. INSTR misses = 6, DATA misses = 15. Winner = INSTR
[DUEL] Epoch ended. INSTR misses = 10, DATA misses = 14. Winner = INSTR
[DUEL] Epoch ended. INSTR misses = 1, DATA misses = 1. Winner = INSTR
[DUEL] Epoch ended. INSTR misses = 1, DATA misses = 0. Winner = DATA
[DUEL] Epoch ended. INSTR misses = 0, DATA misses = 0. Winner = INSTR
[DUEL] Epoch ended. INSTR misses = 0, DATA misses = 0. Winner = INSTR
[DUEL] Epoch ended. INSTR misses = 0, DATA misses = 0. Winner = INSTR
[DUEL] Epoch ended. INSTR misses = 2, DATA misses = 1. Winner = DATA
[DUEL] Epoch ended. INSTR misses = 0, DATA misses = 0. Winner = INSTR
[DUEL] Epoch ended. INSTR misses = 2, DATA misses = 0. Winner = DATA
[DUEL] Epoch ended. INSTR misses = 0, DATA misses = 1. Winner = INSTR
[DUEL] Epoch ended. INSTR misses = 2, DATA misses = 0. Winner = DATA
[DUEL] Epoch ended. INSTR misses = 4, DATA misses = 0. Winner = DATA
Heartbeat CPU 0 instructions: 30000003 cycles: 5151697 heartbeat IPC: 5.814 cumulative IPC: 5.823 (Simulation time: 00 hr 01 min 00 sec)
Warmup finished CPU 0 instructions: 30000003 cycles: 5151698 cumulative IPC: 5.823 (Simulation time: 00 hr 01 min 00 sec)
Warmup complete CPU 0 instructions: 30000003 cycles: 5151698 cumulative IPC: 5.823 (Simulation time: 00 hr 01 min 00 sec)
Heartbeat CPU 0 instructions: 40000001 cycles: 6818372 heartbeat IPC: 6 cumulative IPC: 6 (Simulation time: 00 hr 01 min 22 sec)
[DUEL] Epoch ended. INSTR misses = 1, DATA misses = 3. Winner = INSTR
[DUEL] Epoch ended. INSTR misses = 8, DATA misses = 5. Winner = DATA
[DUEL] Epoch ended. INSTR misses = 36, DATA misses = 47. Winner = INSTR
[DUEL] Epoch ended. INSTR misses = 27, DATA misses = 36. Winner = INSTR
[DUEL] Epoch ended. INSTR misses = 0, DATA misses = 0. Winner = INSTR
*** Reached end of trace: (0, "../traces/secret_traces/crypto/crypto29.champsimtrace.xz")
[DUEL] Epoch ended. INSTR misses = 3, DATA misses = 13. Winner = INSTR
[DUEL] Epoch ended. INSTR misses = 9, DATA misses = 8. Winner = DATA
[DUEL] Epoch ended. INSTR misses = 1, DATA misses = 1. Winner = INSTR
[DUEL] Epoch ended. INSTR misses = 1, DATA misses = 0. Winner = DATA
[DUEL] Epoch ended. INSTR misses = 0, DATA misses = 0. Winner = INSTR
[DUEL] Epoch ended. INSTR misses = 0, DATA misses = 0. Winner = INSTR
[DUEL] Epoch ended. INSTR misses = 0, DATA misses = 0. Winner = INSTR
[DUEL] Epoch ended. INSTR misses = 1, DATA misses = 1. Winner = INSTR
[DUEL] Epoch ended. INSTR misses = 0, DATA misses = 0. Winner = INSTR
[DUEL] Epoch ended. INSTR misses = 1, DATA misses = 0. Winner = DATA
[DUEL] Epoch ended. INSTR misses = 0, DATA misses = 0. Winner = INSTR
[DUEL] Epoch ended. INSTR misses = 1, DATA misses = 0. Winner = DATA
Heartbeat CPU 0 instructions: 50000004 cycles: 9666269 heartbeat IPC: 3.511 cumulative IPC: 4.43 (Simulation time: 00 hr 01 min 51 sec)
[DUEL] Epoch ended. INSTR misses = 3, DATA misses = 0. Winner = DATA
Heartbeat CPU 0 instructions: 60000009 cycles: 11392711 heartbeat IPC: 5.792 cumulative IPC: 4.807 (Simulation time: 00 hr 02 min 12 sec)
[DUEL] Epoch ended. INSTR misses = 1, DATA misses = 3. Winner = INSTR
[DUEL] Epoch ended. INSTR misses = 6, DATA misses = 5. Winner = DATA
[DUEL] Epoch ended. INSTR misses = 33, DATA misses = 43. Winner = INSTR
[DUEL] Epoch ended. INSTR misses = 23, DATA misses = 32. Winner = INSTR
[DUEL] Epoch ended. INSTR misses = 0, DATA misses = 0. Winner = INSTR
*** Reached end of trace: (0, "../traces/secret_traces/crypto/crypto29.champsimtrace.xz")
[DUEL] Epoch ended. INSTR misses = 3, DATA misses = 10. Winner = INSTR
[DUEL] Epoch ended. INSTR misses = 5, DATA misses = 6. Winner = INSTR
[DUEL] Epoch ended. INSTR misses = 4, DATA misses = 2. Winner = DATA
[DUEL] Epoch ended. INSTR misses = 1, DATA misses = 0. Winner = DATA
[DUEL] Epoch ended. INSTR misses = 0, DATA misses = 0. Winner = INSTR
[DUEL] Epoch ended. INSTR misses = 0, DATA misses = 0. Winner = INSTR
[DUEL] Epoch ended. INSTR misses = 0, DATA misses = 0. Winner = INSTR
[DUEL] Epoch ended. INSTR misses = 0, DATA misses = 1. Winner = INSTR
[DUEL] Epoch ended. INSTR misses = 0, DATA misses = 0. Winner = INSTR
Heartbeat CPU 0 instructions: 70000003 cycles: 13921999 heartbeat IPC: 3.954 cumulative IPC: 4.561 (Simulation time: 00 hr 02 min 39 sec)
[DUEL] Epoch ended. INSTR misses = 1, DATA misses = 0. Winner = DATA
[DUEL] Epoch ended. INSTR misses = 0, DATA misses = 0. Winner = INSTR
[DUEL] Epoch ended. INSTR misses = 2, DATA misses = 0. Winner = DATA
[DUEL] Epoch ended. INSTR misses = 4, DATA misses = 1. Winner = DATA
Heartbeat CPU 0 instructions: 80000001 cycles: 15794329 heartbeat IPC: 5.341 cumulative IPC: 4.698 (Simulation time: 00 hr 03 min 02 sec)
[DUEL] Epoch ended. INSTR misses = 0, DATA misses = 4. Winner = INSTR
[DUEL] Epoch ended. INSTR misses = 4, DATA misses = 5. Winner = INSTR
[DUEL] Epoch ended. INSTR misses = 28, DATA misses = 39. Winner = INSTR
[DUEL] Epoch ended. INSTR misses = 25, DATA misses = 30. Winner = INSTR
Heartbeat CPU 0 instructions: 90000009 cycles: 17889611 heartbeat IPC: 4.773 cumulative IPC: 4.71 (Simulation time: 00 hr 03 min 25 sec)
[DUEL] Epoch ended. INSTR misses = 0, DATA misses = 0. Winner = INSTR
*** Reached end of trace: (0, "../traces/secret_traces/crypto/crypto29.champsimtrace.xz")
[DUEL] Epoch ended. INSTR misses = 3, DATA misses = 9. Winner = INSTR
[DUEL] Epoch ended. INSTR misses = 6, DATA misses = 5. Winner = DATA
[DUEL] Epoch ended. INSTR misses = 2, DATA misses = 2. Winner = INSTR
[DUEL] Epoch ended. INSTR misses = 1, DATA misses = 0. Winner = DATA
[DUEL] Epoch ended. INSTR misses = 0, DATA misses = 0. Winner = INSTR
[DUEL] Epoch ended. INSTR misses = 0, DATA misses = 0. Winner = INSTR
[DUEL] Epoch ended. INSTR misses = 0, DATA misses = 0. Winner = INSTR
[DUEL] Epoch ended. INSTR misses = 1, DATA misses = 1. Winner = INSTR
[DUEL] Epoch ended. INSTR misses = 0, DATA misses = 0. Winner = INSTR
[DUEL] Epoch ended. INSTR misses = 1, DATA misses = 0. Winner = DATA
[DUEL] Epoch ended. INSTR misses = 0, DATA misses = 0. Winner = INSTR
[DUEL] Epoch ended. INSTR misses = 2, DATA misses = 0. Winner = DATA
[DUEL] Epoch ended. INSTR misses = 5, DATA misses = 1. Winner = DATA
Heartbeat CPU 0 instructions: 100000006 cycles: 20093055 heartbeat IPC: 4.538 cumulative IPC: 4.685 (Simulation time: 00 hr 03 min 51 sec)
[DUEL] Epoch ended. INSTR misses = 0, DATA misses = 4. Winner = INSTR
[DUEL] Epoch ended. INSTR misses = 4, DATA misses = 5. Winner = INSTR
[DUEL] Epoch ended. INSTR misses = 29, DATA misses = 40. Winner = INSTR
[DUEL] Epoch ended. INSTR misses = 24, DATA misses = 29. Winner = INSTR
Heartbeat CPU 0 instructions: 110000001 cycles: 22174735 heartbeat IPC: 4.804 cumulative IPC: 4.7 (Simulation time: 00 hr 04 min 14 sec)
[DUEL] Epoch ended. INSTR misses = 0, DATA misses = 0. Winner = INSTR
*** Reached end of trace: (0, "../traces/secret_traces/crypto/crypto29.champsimtrace.xz")
[DUEL] Epoch ended. INSTR misses = 4, DATA misses = 10. Winner = INSTR
[DUEL] Epoch ended. INSTR misses = 7, DATA misses = 5. Winner = DATA
[DUEL] Epoch ended. INSTR misses = 2, DATA misses = 1. Winner = DATA
[DUEL] Epoch ended. INSTR misses = 1, DATA misses = 0. Winner = DATA
[DUEL] Epoch ended. INSTR misses = 0, DATA misses = 0. Winner = INSTR
[DUEL] Epoch ended. INSTR misses = 0, DATA misses = 0. Winner = INSTR
[DUEL] Epoch ended. INSTR misses = 0, DATA misses = 0. Winner = INSTR
[DUEL] Epoch ended. INSTR misses = 0, DATA misses = 1. Winner = INSTR
[DUEL] Epoch ended. INSTR misses = 0, DATA misses = 0. Winner = INSTR
[DUEL] Epoch ended. INSTR misses = 2, DATA misses = 0. Winner = DATA
[DUEL] Epoch ended. INSTR misses = 0, DATA misses = 1. Winner = INSTR
[DUEL] Epoch ended. INSTR misses = 1, DATA misses = 1. Winner = INSTR
[DUEL] Epoch ended. INSTR misses = 5, DATA misses = 0. Winner = DATA
Heartbeat CPU 0 instructions: 120000003 cycles: 24355875 heartbeat IPC: 4.585 cumulative IPC: 4.686 (Simulation time: 00 hr 04 min 39 sec)
Heartbeat CPU 0 instructions: 130000000 cycles: 26022543 heartbeat IPC: 6 cumulative IPC: 4.791 (Simulation time: 00 hr 05 min 00 sec)
Simulation finished CPU 0 instructions: 100000004 cycles: 20870847 cumulative IPC: 4.791 (Simulation time: 00 hr 05 min 00 sec)
Simulation complete CPU 0 instructions: 100000004 cycles: 20870847 cumulative IPC: 4.791 (Simulation time: 00 hr 05 min 00 sec)

ChampSim completed all CPUs

=== Simulation ===
CPU 0 runs ../traces/secret_traces/crypto/crypto29.champsimtrace.xz
Region of Interest Statistics

CPU 0 cumulative IPC: 4.791 instructions: 100000004 cycles: 20870847
CPU 0 Branch Prediction Accuracy: 98.42% MPKI: 0.9675 Average ROB Occupancy at Mispredict: 33.96
Branch type MPKI
BRANCH_DIRECT_JUMP: 0.0577
BRANCH_INDIRECT: 0.513
BRANCH_CONDITIONAL: 0.119
BRANCH_DIRECT_CALL: 0.167
BRANCH_INDIRECT_CALL: 0.0202
BRANCH_RETURN: 0.0906

LLC TOTAL        ACCESS:     461396 HIT:     336295 MISS:     125101
LLC LOAD         ACCESS:      45032 HIT:      23840 MISS:      21192
LLC RFO          ACCESS:     141341 HIT:     114661 MISS:      26680
LLC PREFETCH     ACCESS:     115263 HIT:      58741 MISS:      56522
LLC WRITE        ACCESS:     157021 HIT:     138531 MISS:      18490
LLC TRANSLATION  ACCESS:       2739 HIT:        522 MISS:       2217
LLC PREFETCH REQUESTED:          0 ISSUED:          0 USEFUL:          0 USELESS:          0
LLC AVERAGE MISS LATENCY: 165.9 cycles
cpu0_DTLB TOTAL        ACCESS:   14989782 HIT:   14944592 MISS:      45190
cpu0_DTLB LOAD         ACCESS:   14989782 HIT:   14944592 MISS:      45190
cpu0_DTLB RFO          ACCESS:          0 HIT:          0 MISS:          0
cpu0_DTLB PREFETCH     ACCESS:          0 HIT:          0 MISS:          0
cpu0_DTLB WRITE        ACCESS:          0 HIT:          0 MISS:          0
cpu0_DTLB TRANSLATION  ACCESS:          0 HIT:          0 MISS:          0
cpu0_DTLB PREFETCH REQUESTED:          0 ISSUED:          0 USEFUL:          0 USELESS:          0
cpu0_DTLB AVERAGE MISS LATENCY: 10.25 cycles
cpu0_ITLB TOTAL        ACCESS:     765823 HIT:     750099 MISS:      15724
cpu0_ITLB LOAD         ACCESS:     765823 HIT:     750099 MISS:      15724
cpu0_ITLB RFO          ACCESS:          0 HIT:          0 MISS:          0
cpu0_ITLB PREFETCH     ACCESS:          0 HIT:          0 MISS:          0
cpu0_ITLB WRITE        ACCESS:          0 HIT:          0 MISS:          0
cpu0_ITLB TRANSLATION  ACCESS:          0 HIT:          0 MISS:          0
cpu0_ITLB PREFETCH REQUESTED:          0 ISSUED:          0 USEFUL:          0 USELESS:          0
cpu0_ITLB AVERAGE MISS LATENCY: 20.26 cycles
cpu0_L1D TOTAL        ACCESS:   28770559 HIT:   27968961 MISS:     801598
cpu0_L1D LOAD         ACCESS:   10223103 HIT:   10050464 MISS:     172639
cpu0_L1D RFO          ACCESS:          0 HIT:          0 MISS:          0
cpu0_L1D PREFETCH     ACCESS:   14736385 HIT:   14485813 MISS:     250572
cpu0_L1D WRITE        ACCESS:    3805416 HIT:    3430604 MISS:     374812
cpu0_L1D TRANSLATION  ACCESS:       5655 HIT:       2080 MISS:       3575
cpu0_L1D PREFETCH REQUESTED:   17848109 ISSUED:   14736368 USEFUL:      15666 USELESS:       1821
cpu0_L1D AVERAGE MISS LATENCY: 22.32 cycles
cpu0_L1I TOTAL        ACCESS:    1115497 HIT:     935671 MISS:     179826
cpu0_L1I LOAD         ACCESS:     361279 HIT:     321210 MISS:      40069
cpu0_L1I RFO          ACCESS:          0 HIT:          0 MISS:          0
cpu0_L1I PREFETCH     ACCESS:     754218 HIT:     614461 MISS:     139757
cpu0_L1I WRITE        ACCESS:          0 HIT:          0 MISS:          0
cpu0_L1I TRANSLATION  ACCESS:          0 HIT:          0 MISS:          0
cpu0_L1I PREFETCH REQUESTED:    1216481 ISSUED:     754218 USEFUL:      78907 USELESS:      55371
cpu0_L1I AVERAGE MISS LATENCY: 33.32 cycles
cpu0_L2C TOTAL        ACCESS:    1316859 HIT:     920114 MISS:     396745
cpu0_L2C LOAD         ACCESS:     134432 HIT:      78302 MISS:      56130
cpu0_L2C RFO          ACCESS:     154849 HIT:      13455 MISS:     141394
cpu0_L2C PREFETCH     ACCESS:     845858 HIT:     649376 MISS:     196482
cpu0_L2C WRITE        ACCESS:     178248 HIT:     178248 MISS:          0
cpu0_L2C TRANSLATION  ACCESS:       3472 HIT:        733 MISS:       2739
cpu0_L2C PREFETCH REQUESTED:     498183 ISSUED:     482107 USEFUL:      29469 USELESS:      26908
cpu0_L2C AVERAGE MISS LATENCY: 65.24 cycles
cpu0_STLB TOTAL        ACCESS:      26636 HIT:      21453 MISS:       5183
cpu0_STLB LOAD         ACCESS:      26636 HIT:      21453 MISS:       5183
cpu0_STLB RFO          ACCESS:          0 HIT:          0 MISS:          0
cpu0_STLB PREFETCH     ACCESS:          0 HIT:          0 MISS:          0
cpu0_STLB WRITE        ACCESS:          0 HIT:          0 MISS:          0
cpu0_STLB TRANSLATION  ACCESS:          0 HIT:          0 MISS:          0
cpu0_STLB PREFETCH REQUESTED:          0 ISSUED:          0 USEFUL:          0 USELESS:          0
cpu0_STLB AVERAGE MISS LATENCY: 131.4 cycles

DRAM Statistics

Channel 0 RQ ROW_BUFFER_HIT:      24987
  ROW_BUFFER_MISS:      29219
 AVG DBUS CONGESTED CYCLE: 3.891
WQ ROW_BUFFER_HIT: Channel 0 
  ROW_BUFFER_MISS:       1959
  FULL:      13993

Channel 1 RQ ROW_BUFFER_HIT:      23978
  ROW_BUFFER_MISS:      28383
 AVG DBUS CONGESTED CYCLE: 3.872
WQ ROW_BUFFER_HIT: Channel 1 
  ROW_BUFFER_MISS:       1886
  FULL:      12943
BERTI TO_L1: 17272805 TO_L2: 6272858 TO_L2_BC_MSHR: 1659035
BERTI AVG_LAT: 65.2532 NUM_TRACK_LATENCY: 171087 NUM_CANT_TRACK_LATENCY: 0
BERTI CROSS_PAGE 5905859 NO_CROSS_PAGE: 17639804
BERTI FOUND_BERTI: 3999225 NO_FOUND_BERTI: 9806712
BERTI AVERAGE_ISSUED: 7.95931
CPU 0 L1I Entangling prefetcher final stats
IP accesses: 6f71 1bdc40 1820 / 362029
IP misses: 5bf1 16fc40 198 / 40819
IP hits: 0 0 0 / 0
IP late: 6e9e 1ba780 99 / 19929
IP wrong: 251e 94780 130 / 55119
miss rate: 0.112751
coverage: 0
coverage_late: 0.488229
accuracy: 0
accuracy_late: 0.265551
discarded: 0
evicts entangled j table: 0
evicts entangled k table: 6792
max bb size: 53
formats: 1721 0 5465 2637 1119 2061 0 
hist_lookups: 4327 5015 3999 3659 3339 2804 2064 1586 1235 1068 725 499 314 200 116 0 9 7349 
hist_lookups_evict: 0.0234938 %
hist_lookups_shortlat: 19.184 %
bb_found_hist: 0 93975 38847 18857 8905 4186 2054 1704 570 126 6 109 119 98 28 0 4 0 0 0 0 8 0 0 0 0 0 0 0 0 0 4 0 0 4 0 0 0 0 0 0 0 0 0 0 0 0 0 0 0 0 0 0 4 0 0 0 0 0 0 0 0 0 0 
bb_found_summary: 319793 169608 1.88549
entangled_found_hist: 0 49589 37331 67920 13804 2956 648 0 
entangled_found_summary: 401895 172248 2.33324
bb_ent_found_hist: 0 131339 61081 39590 18537 11854 4498 2484 1881 92 0 150 93 30 16 0 267 0 0 0 0 19 0 0 0 0 0 0 0 0 0 8 0 0 4 0 0 0 0 0 0 0 0 0 0 0 0 0 0 0 0 0 0 9 0 0 0 0 0 0 0 0 0 0 
bb_ent_found_summary: 574853 271952 2.11381
