WARNING: physical memory size is smaller than virtual memory size.

*** ChampSim Multicore Out-of-Order Simulator ***
Warmup Instructions: 30000000
Simulation Instructions: 100000000
Number of CPUs: 1
Page size: 4096

BTB:
Basic BTB sets: 1024 ways: 8
Indirect:
history lengths: 0 0 10 16 27 44 60 96 109 219 449 487 714 1313 2146 3881 
ITTAGE tables: 64768 bytes;Region table: 240 bytes;IUM: 384 bytes;Total Storage= 65392 bytes;
RAS:
RAS size: 64
[LLC] INSTR Demand IPV: 1 2 2 1 4 Prefetch IPV: 1 2 1 1 4
[LLC] DATA  Demand IPV: 1 1 1 2 4 Prefetch IPV: 1 1 2 2 4
Berti Prefetcher
CPU 0 Entangling prefetcher
Off-chip DRAM Size: 8 GiB Channels: 2 Width: 64-bit Data Race: 6400 MT/s
[DUEL] Epoch ended. INSTR misses = 36, DATA misses = 41. Winner = INSTR
[DUEL] Epoch ended. INSTR misses = 16, DATA misses = 16. Winner = INSTR
[DUEL] Epoch ended. INSTR misses = 1, DATA misses = 0. Winner = DATA
[DUEL] Epoch ended. INSTR misses = 0, DATA misses = 0. Winner = INSTR
[DUEL] Epoch ended. INSTR misses = 0, DATA misses = 0. Winner = INSTR
[DUEL] Epoch ended. INSTR misses = 0, DATA misses = 0. Winner = INSTR
[DUEL] Epoch ended. INSTR misses = 0, DATA misses = 1. Winner = INSTR
[DUEL] Epoch ended. INSTR misses = 0, DATA misses = 0. Winner = INSTR
[DUEL] Epoch ended. INSTR misses = 0, DATA misses = 0. Winner = INSTR
[DUEL] Epoch ended. INSTR misses = 16, DATA misses = 18. Winner = INSTR
[DUEL] Epoch ended. INSTR misses = 1, DATA misses = 0. Winner = DATA
[DUEL] Epoch ended. INSTR misses = 8, DATA misses = 1. Winner = DATA
[DUEL] Epoch ended. INSTR misses = 16, DATA misses = 16. Winner = INSTR
Heartbeat CPU 0 instructions: 10000005 cycles: 1715456 heartbeat IPC: 5.829 cumulative IPC: 5.829 (Simulation time: 00 hr 00 min 20 sec)
[DUEL] Epoch ended. INSTR misses = 1, DATA misses = 10. Winner = INSTR
[DUEL] Epoch ended. INSTR misses = 20, DATA misses = 25. Winner = INSTR
[DUEL] Epoch ended. INSTR misses = 89, DATA misses = 104. Winner = INSTR
Heartbeat CPU 0 instructions: 20000008 cycles: 3431621 heartbeat IPC: 5.827 cumulative IPC: 5.828 (Simulation time: 00 hr 00 min 40 sec)
[DUEL] Epoch ended. INSTR misses = 34, DATA misses = 32. Winner = DATA
Heartbeat CPU 0 instructions: 30000004 cycles: 5098360 heartbeat IPC: 6 cumulative IPC: 5.884 (Simulation time: 00 hr 00 min 59 sec)
Warmup finished CPU 0 instructions: 30000004 cycles: 5098361 cumulative IPC: 5.884 (Simulation time: 00 hr 00 min 59 sec)
Warmup complete CPU 0 instructions: 30000004 cycles: 5098361 cumulative IPC: 5.884 (Simulation time: 00 hr 00 min 59 sec)
[DUEL] Epoch ended. INSTR misses = 0, DATA misses = 0. Winner = INSTR
*** Reached end of trace: (0, "../traces/secret_traces/crypto/crypto58.champsimtrace.xz")
[DUEL] Epoch ended. INSTR misses = 8, DATA misses = 9. Winner = INSTR
[DUEL] Epoch ended. INSTR misses = 11, DATA misses = 4. Winner = DATA
[DUEL] Epoch ended. INSTR misses = 1, DATA misses = 0. Winner = DATA
[DUEL] Epoch ended. INSTR misses = 1, DATA misses = 0. Winner = DATA
[DUEL] Epoch ended. INSTR misses = 0, DATA misses = 0. Winner = INSTR
[DUEL] Epoch ended. INSTR misses = 0, DATA misses = 0. Winner = INSTR
[DUEL] Epoch ended. INSTR misses = 0, DATA misses = 0. Winner = INSTR
[DUEL] Epoch ended. INSTR misses = 0, DATA misses = 0. Winner = INSTR
[DUEL] Epoch ended. INSTR misses = 0, DATA misses = 0. Winner = INSTR
[DUEL] Epoch ended. INSTR misses = 0, DATA misses = 0. Winner = INSTR
[DUEL] Epoch ended. INSTR misses = 0, DATA misses = 0. Winner = INSTR
[DUEL] Epoch ended. INSTR misses = 3, DATA misses = 0. Winner = DATA
[DUEL] Epoch ended. INSTR misses = 2, DATA misses = 0. Winner = DATA
Heartbeat CPU 0 instructions: 40000000 cycles: 7489128 heartbeat IPC: 4.183 cumulative IPC: 4.183 (Simulation time: 00 hr 01 min 26 sec)
[DUEL] Epoch ended. INSTR misses = 0, DATA misses = 6. Winner = INSTR
Heartbeat CPU 0 instructions: 50000006 cycles: 9261521 heartbeat IPC: 5.642 cumulative IPC: 4.804 (Simulation time: 00 hr 01 min 50 sec)
[DUEL] Epoch ended. INSTR misses = 2, DATA misses = 9. Winner = INSTR
[DUEL] Epoch ended. INSTR misses = 48, DATA misses = 68. Winner = INSTR
Heartbeat CPU 0 instructions: 60000010 cycles: 11328893 heartbeat IPC: 4.837 cumulative IPC: 4.815 (Simulation time: 00 hr 02 min 15 sec)
[DUEL] Epoch ended. INSTR misses = 23, DATA misses = 28. Winner = INSTR
[DUEL] Epoch ended. INSTR misses = 0, DATA misses = 0. Winner = INSTR
*** Reached end of trace: (0, "../traces/secret_traces/crypto/crypto58.champsimtrace.xz")
[DUEL] Epoch ended. INSTR misses = 4, DATA misses = 4. Winner = INSTR
[DUEL] Epoch ended. INSTR misses = 4, DATA misses = 2. Winner = DATA
[DUEL] Epoch ended. INSTR misses = 2, DATA misses = 0. Winner = DATA
[DUEL] Epoch ended. INSTR misses = 1, DATA misses = 0. Winner = DATA
[DUEL] Epoch ended. INSTR misses = 0, DATA misses = 0. Winner = INSTR
[DUEL] Epoch ended. INSTR misses = 0, DATA misses = 0. Winner = INSTR
[DUEL] Epoch ended. INSTR misses = 0, DATA misses = 0. Winner = INSTR
[DUEL] Epoch ended. INSTR misses = 0, DATA misses = 0. Winner = INSTR
[DUEL] Epoch ended. INSTR misses = 0, DATA misses = 0. Winner = INSTR
[DUEL] Epoch ended. INSTR misses = 0, DATA misses = 0. Winner = INSTR
[DUEL] Epoch ended. INSTR misses = 0, DATA misses = 0. Winner = INSTR
[DUEL] Epoch ended. INSTR misses = 2, DATA misses = 0. Winner = DATA
Heartbeat CPU 0 instructions: 70000003 cycles: 13531810 heartbeat IPC: 4.539 cumulative IPC: 4.743 (Simulation time: 00 hr 02 min 41 sec)
[DUEL] Epoch ended. INSTR misses = 1, DATA misses = 0. Winner = DATA
Heartbeat CPU 0 instructions: 80000002 cycles: 15244503 heartbeat IPC: 5.839 cumulative IPC: 4.928 (Simulation time: 00 hr 03 min 04 sec)
[DUEL] Epoch ended. INSTR misses = 0, DATA misses = 5. Winner = INSTR
[DUEL] Epoch ended. INSTR misses = 3, DATA misses = 9. Winner = INSTR
[DUEL] Epoch ended. INSTR misses = 43, DATA misses = 58. Winner = INSTR
Heartbeat CPU 0 instructions: 90000002 cycles: 17357119 heartbeat IPC: 4.733 cumulative IPC: 4.894 (Simulation time: 00 hr 03 min 30 sec)
[DUEL] Epoch ended. INSTR misses = 32, DATA misses = 36. Winner = INSTR
[DUEL] Epoch ended. INSTR misses = 0, DATA misses = 1. Winner = INSTR
*** Reached end of trace: (0, "../traces/secret_traces/crypto/crypto58.champsimtrace.xz")
[DUEL] Epoch ended. INSTR misses = 4, DATA misses = 3. Winner = DATA
[DUEL] Epoch ended. INSTR misses = 2, DATA misses = 1. Winner = DATA
[DUEL] Epoch ended. INSTR misses = 1, DATA misses = 0. Winner = DATA
[DUEL] Epoch ended. INSTR misses = 1, DATA misses = 0. Winner = DATA
[DUEL] Epoch ended. INSTR misses = 0, DATA misses = 0. Winner = INSTR
[DUEL] Epoch ended. INSTR misses = 0, DATA misses = 0. Winner = INSTR
[DUEL] Epoch ended. INSTR misses = 0, DATA misses = 0. Winner = INSTR
[DUEL] Epoch ended. INSTR misses = 0, DATA misses = 0. Winner = INSTR
[DUEL] Epoch ended. INSTR misses = 0, DATA misses = 0. Winner = INSTR
Heartbeat CPU 0 instructions: 100000006 cycles: 19391972 heartbeat IPC: 4.914 cumulative IPC: 4.897 (Simulation time: 00 hr 03 min 55 sec)
[DUEL] Epoch ended. INSTR misses = 0, DATA misses = 0. Winner = INSTR
[DUEL] Epoch ended. INSTR misses = 0, DATA misses = 0. Winner = INSTR
[DUEL] Epoch ended. INSTR misses = 3, DATA misses = 0. Winner = DATA
[DUEL] Epoch ended. INSTR misses = 1, DATA misses = 0. Winner = DATA
Heartbeat CPU 0 instructions: 110000009 cycles: 21244778 heartbeat IPC: 5.397 cumulative IPC: 4.955 (Simulation time: 00 hr 04 min 19 sec)
[DUEL] Epoch ended. INSTR misses = 0, DATA misses = 6. Winner = INSTR
[DUEL] Epoch ended. INSTR misses = 1, DATA misses = 7. Winner = INSTR
[DUEL] Epoch ended. INSTR misses = 33, DATA misses = 57. Winner = INSTR
Heartbeat CPU 0 instructions: 120000008 cycles: 23364951 heartbeat IPC: 4.717 cumulative IPC: 4.927 (Simulation time: 00 hr 04 min 45 sec)
[DUEL] Epoch ended. INSTR misses = 20, DATA misses = 27. Winner = INSTR
Heartbeat CPU 0 instructions: 130000006 cycles: 25041873 heartbeat IPC: 5.963 cumulative IPC: 5.014 (Simulation time: 00 hr 05 min 08 sec)
Simulation finished CPU 0 instructions: 100000002 cycles: 19943513 cumulative IPC: 5.014 (Simulation time: 00 hr 05 min 08 sec)
Simulation complete CPU 0 instructions: 100000002 cycles: 19943513 cumulative IPC: 5.014 (Simulation time: 00 hr 05 min 08 sec)

ChampSim completed all CPUs

=== Simulation ===
CPU 0 runs ../traces/secret_traces/crypto/crypto58.champsimtrace.xz
Region of Interest Statistics

CPU 0 cumulative IPC: 5.014 instructions: 100000002 cycles: 19943513
CPU 0 Branch Prediction Accuracy: 98.92% MPKI: 0.8046 Average ROB Occupancy at Mispredict: 30.81
Branch type MPKI
BRANCH_DIRECT_JUMP: 0.0446
BRANCH_INDIRECT: 0.404
BRANCH_CONDITIONAL: 0.138
BRANCH_DIRECT_CALL: 0.13
BRANCH_INDIRECT_CALL: 0.0163
BRANCH_RETURN: 0.0711

LLC TOTAL        ACCESS:     347258 HIT:     252413 MISS:      94845
LLC LOAD         ACCESS:      36759 HIT:      18104 MISS:      18655
LLC RFO          ACCESS:     107042 HIT:      88206 MISS:      18836
LLC PREFETCH     ACCESS:      83261 HIT:      43713 MISS:      39548
LLC WRITE        ACCESS:     118167 HIT:     101893 MISS:      16274
LLC TRANSLATION  ACCESS:       2029 HIT:        497 MISS:       1532
LLC PREFETCH REQUESTED:          0 ISSUED:          0 USEFUL:          0 USELESS:          0
LLC AVERAGE MISS LATENCY: 143.5 cycles
cpu0_DTLB TOTAL        ACCESS:   10535940 HIT:   10501965 MISS:      33975
cpu0_DTLB LOAD         ACCESS:   10535940 HIT:   10501965 MISS:      33975
cpu0_DTLB RFO          ACCESS:          0 HIT:          0 MISS:          0
cpu0_DTLB PREFETCH     ACCESS:          0 HIT:          0 MISS:          0
cpu0_DTLB WRITE        ACCESS:          0 HIT:          0 MISS:          0
cpu0_DTLB TRANSLATION  ACCESS:          0 HIT:          0 MISS:          0
cpu0_DTLB PREFETCH REQUESTED:          0 ISSUED:          0 USEFUL:          0 USELESS:          0
cpu0_DTLB AVERAGE MISS LATENCY: 9.847 cycles
cpu0_ITLB TOTAL        ACCESS:     574049 HIT:     561844 MISS:      12205
cpu0_ITLB LOAD         ACCESS:     574049 HIT:     561844 MISS:      12205
cpu0_ITLB RFO          ACCESS:          0 HIT:          0 MISS:          0
cpu0_ITLB PREFETCH     ACCESS:          0 HIT:          0 MISS:          0
cpu0_ITLB WRITE        ACCESS:          0 HIT:          0 MISS:          0
cpu0_ITLB TRANSLATION  ACCESS:          0 HIT:          0 MISS:          0
cpu0_ITLB PREFETCH REQUESTED:          0 ISSUED:          0 USEFUL:          0 USELESS:          0
cpu0_ITLB AVERAGE MISS LATENCY: 18.21 cycles
cpu0_L1D TOTAL        ACCESS:   14538210 HIT:   14053781 MISS:     484429
cpu0_L1D LOAD         ACCESS:    9821254 HIT:    9692525 MISS:     128729
cpu0_L1D RFO          ACCESS:          0 HIT:          0 MISS:          0
cpu0_L1D PREFETCH     ACCESS:     413338 HIT:     341377 MISS:      71961
cpu0_L1D WRITE        ACCESS:    4299400 HIT:    4018313 MISS:     281087
cpu0_L1D TRANSLATION  ACCESS:       4218 HIT:       1566 MISS:       2652
cpu0_L1D PREFETCH REQUESTED:    2788508 ISSUED:     413338 USEFUL:       8445 USELESS:        975
cpu0_L1D AVERAGE MISS LATENCY: 25.87 cycles
cpu0_L1I TOTAL        ACCESS:     836228 HIT:     696889 MISS:     139339
cpu0_L1I LOAD         ACCESS:     274867 HIT:     242763 MISS:      32104
cpu0_L1I RFO          ACCESS:          0 HIT:          0 MISS:          0
cpu0_L1I PREFETCH     ACCESS:     561361 HIT:     454126 MISS:     107235
cpu0_L1I WRITE        ACCESS:          0 HIT:          0 MISS:          0
cpu0_L1I TRANSLATION  ACCESS:          0 HIT:          0 MISS:          0
cpu0_L1I PREFETCH REQUESTED:     863035 ISSUED:     561361 USEFUL:      59451 USELESS:      42967
cpu0_L1I AVERAGE MISS LATENCY: 30.49 cycles
cpu0_L2C TOTAL        ACCESS:     773042 HIT:     474971 MISS:     298071
cpu0_L2C LOAD         ACCESS:     105037 HIT:      59482 MISS:      45555
cpu0_L2C RFO          ACCESS:     116357 HIT:       9282 MISS:     107075
cpu0_L2C PREFETCH     ACCESS:     416180 HIT:     272768 MISS:     143412
cpu0_L2C WRITE        ACCESS:     132896 HIT:     132896 MISS:          0
cpu0_L2C TRANSLATION  ACCESS:       2572 HIT:        543 MISS:       2029
cpu0_L2C PREFETCH REQUESTED:     264809 ISSUED:     256408 USEFUL:      20667 USELESS:      20416
cpu0_L2C AVERAGE MISS LATENCY: 59.04 cycles
cpu0_STLB TOTAL        ACCESS:      20376 HIT:      16498 MISS:       3878
cpu0_STLB LOAD         ACCESS:      20376 HIT:      16498 MISS:       3878
cpu0_STLB RFO          ACCESS:          0 HIT:          0 MISS:          0
cpu0_STLB PREFETCH     ACCESS:          0 HIT:          0 MISS:          0
cpu0_STLB WRITE        ACCESS:          0 HIT:          0 MISS:          0
cpu0_STLB TRANSLATION  ACCESS:          0 HIT:          0 MISS:          0
cpu0_STLB PREFETCH REQUESTED:          0 ISSUED:          0 USEFUL:          0 USELESS:          0
cpu0_STLB AVERAGE MISS LATENCY: 121.2 cycles

DRAM Statistics

Channel 0 RQ ROW_BUFFER_HIT:      19372
  ROW_BUFFER_MISS:      20402
 AVG DBUS CONGESTED CYCLE: 3.877
WQ ROW_BUFFER_HIT: Channel 0 
  ROW_BUFFER_MISS:       1582
  FULL:       9639

Channel 1 RQ ROW_BUFFER_HIT:      18864
  ROW_BUFFER_MISS:      19880
 AVG DBUS CONGESTED CYCLE: 3.865
WQ ROW_BUFFER_HIT: Channel 1 
  ROW_BUFFER_MISS:       1578
  FULL:       9284
BERTI TO_L1: 1073516 TO_L2: 2229314 TO_L2_BC_MSHR: 1247408
BERTI AVG_LAT: 63.4795 NUM_TRACK_LATENCY: 124938 NUM_CANT_TRACK_LATENCY: 0
BERTI CROSS_PAGE 690611 NO_CROSS_PAGE: 2612219
BERTI FOUND_BERTI: 869211 NO_FOUND_BERTI: 12183678
BERTI AVERAGE_ISSUED: 4.07883
CPU 0 L1I Entangling prefetcher final stats
IP accesses: 6f71 1bdc40 1349 / 275722
IP misses: 65fa 197e80 124 / 32959
IP hits: 0 0 0 / 0
IP late: 381c e0700 40 / 15709
IP wrong: f7ec 3dfb00 90 / 42792
miss rate: 0.119538
coverage: 0
coverage_late: 0.476623
accuracy: 0
accuracy_late: 0.268526
discarded: 0
evicts entangled j table: 0
evicts entangled k table: 5230
max bb size: 53
formats: 1276 0 4561 2358 967 2043 0 
hist_lookups: 4111 4435 3287 2991 2633 2171 1590 1168 948 721 550 388 232 145 64 0 6 4753 
hist_lookups_evict: 0.0198722 %
hist_lookups_shortlat: 15.7421 %
bb_found_hist: 0 68903 29559 14204 6306 3198 1446 1305 389 72 16 95 90 72 21 0 3 0 0 0 0 6 0 0 0 0 0 0 0 0 0 3 0 0 3 0 0 0 0 0 0 0 0 0 0 0 0 0 0 0 0 0 0 3 0 0 0 0 0 0 0 0 0 0 
bb_found_summary: 237461 125694 1.8892
entangled_found_hist: 0 36994 28246 47323 10056 1475 319 0 
entangled_found_summary: 284968 124413 2.29051
bb_ent_found_hist: 0 96564 42878 28841 10980 7226 3306 1916 730 26 77 194 108 45 14 0 126 0 0 0 0 15 0 0 0 0 0 0 0 0 0 3 0 0 3 0 0 0 0 0 0 0 0 0 0 0 0 0 0 0 0 0 0 4 0 0 0 0 0 0 0 0 0 0 
bb_ent_found_summary: 395934 193056 2.05088
