WARNING: physical memory size is smaller than virtual memory size.

*** ChampSim Multicore Out-of-Order Simulator ***
Warmup Instructions: 30000000
Simulation Instructions: 100000000
Number of CPUs: 1
Page size: 4096

BTB:
Basic BTB sets: 1024 ways: 8
Indirect:
history lengths: 0 0 10 16 27 44 60 96 109 219 449 487 714 1313 2146 3881 
ITTAGE tables: 64768 bytes;Region table: 240 bytes;IUM: 384 bytes;Total Storage= 65392 bytes;
RAS:
RAS size: 64
[LLC] INSTR Demand IPV: 1 2 2 1 4 Prefetch IPV: 1 2 1 1 4
[LLC] DATA  Demand IPV: 1 1 1 2 4 Prefetch IPV: 1 1 2 2 4
Berti Prefetcher
CPU 0 Entangling prefetcher
Off-chip DRAM Size: 8 GiB Channels: 2 Width: 64-bit Data Race: 6400 MT/s
[DUEL] Epoch ended. INSTR misses = 52, DATA misses = 61. Winner = INSTR
[DUEL] Epoch ended. INSTR misses = 16, DATA misses = 16. Winner = INSTR
[DUEL] Epoch ended. INSTR misses = 0, DATA misses = 0. Winner = INSTR
[DUEL] Epoch ended. INSTR misses = 0, DATA misses = 0. Winner = INSTR
[DUEL] Epoch ended. INSTR misses = 0, DATA misses = 0. Winner = INSTR
[DUEL] Epoch ended. INSTR misses = 0, DATA misses = 0. Winner = INSTR
[DUEL] Epoch ended. INSTR misses = 16, DATA misses = 16. Winner = INSTR
[DUEL] Epoch ended. INSTR misses = 0, DATA misses = 0. Winner = INSTR
[DUEL] Epoch ended. INSTR misses = 0, DATA misses = 0. Winner = INSTR
[DUEL] Epoch ended. INSTR misses = 0, DATA misses = 3. Winner = INSTR
[DUEL] Epoch ended. INSTR misses = 1, DATA misses = 1. Winner = INSTR
[DUEL] Epoch ended. INSTR misses = 0, DATA misses = 0. Winner = INSTR
[DUEL] Epoch ended. INSTR misses = 4, DATA misses = 0. Winner = DATA
Heartbeat CPU 0 instructions: 10000000 cycles: 1721586 heartbeat IPC: 5.809 cumulative IPC: 5.809 (Simulation time: 00 hr 00 min 22 sec)
[DUEL] Epoch ended. INSTR misses = 0, DATA misses = 14. Winner = INSTR
[DUEL] Epoch ended. INSTR misses = 18, DATA misses = 20. Winner = INSTR
[DUEL] Epoch ended. INSTR misses = 90, DATA misses = 104. Winner = INSTR
Heartbeat CPU 0 instructions: 20000006 cycles: 3446504 heartbeat IPC: 5.797 cumulative IPC: 5.803 (Simulation time: 00 hr 00 min 43 sec)
[DUEL] Epoch ended. INSTR misses = 40, DATA misses = 43. Winner = INSTR
*** Reached end of trace: (0, "../traces/secret_traces/crypto/crypto89.champsimtrace.xz")
[DUEL] Epoch ended. INSTR misses = 8, DATA misses = 13. Winner = INSTR
[DUEL] Epoch ended. INSTR misses = 19, DATA misses = 24. Winner = INSTR
[DUEL] Epoch ended. INSTR misses = 1, DATA misses = 0. Winner = DATA
[DUEL] Epoch ended. INSTR misses = 0, DATA misses = 0. Winner = INSTR
[DUEL] Epoch ended. INSTR misses = 0, DATA misses = 0. Winner = INSTR
[DUEL] Epoch ended. INSTR misses = 0, DATA misses = 0. Winner = INSTR
[DUEL] Epoch ended. INSTR misses = 0, DATA misses = 0. Winner = INSTR
[DUEL] Epoch ended. INSTR misses = 1, DATA misses = 1. Winner = INSTR
[DUEL] Epoch ended. INSTR misses = 0, DATA misses = 0. Winner = INSTR
[DUEL] Epoch ended. INSTR misses = 1, DATA misses = 1. Winner = INSTR
[DUEL] Epoch ended. INSTR misses = 0, DATA misses = 1. Winner = INSTR
[DUEL] Epoch ended. INSTR misses = 2, DATA misses = 0. Winner = DATA
[DUEL] Epoch ended. INSTR misses = 0, DATA misses = 0. Winner = INSTR
Heartbeat CPU 0 instructions: 30000005 cycles: 5170633 heartbeat IPC: 5.8 cumulative IPC: 5.802 (Simulation time: 00 hr 01 min 05 sec)
Warmup finished CPU 0 instructions: 30000005 cycles: 5170634 cumulative IPC: 5.802 (Simulation time: 00 hr 01 min 05 sec)
Warmup complete CPU 0 instructions: 30000005 cycles: 5170634 cumulative IPC: 5.802 (Simulation time: 00 hr 01 min 05 sec)
[DUEL] Epoch ended. INSTR misses = 0, DATA misses = 0. Winner = INSTR
Heartbeat CPU 0 instructions: 40000003 cycles: 6915030 heartbeat IPC: 5.733 cumulative IPC: 5.733 (Simulation time: 00 hr 01 min 31 sec)
[DUEL] Epoch ended. INSTR misses = 1, DATA misses = 7. Winner = INSTR
[DUEL] Epoch ended. INSTR misses = 1, DATA misses = 5. Winner = INSTR
[DUEL] Epoch ended. INSTR misses = 19, DATA misses = 51. Winner = INSTR
Heartbeat CPU 0 instructions: 50000001 cycles: 9095356 heartbeat IPC: 4.586 cumulative IPC: 5.096 (Simulation time: 00 hr 01 min 59 sec)
[DUEL] Epoch ended. INSTR misses = 26, DATA misses = 36. Winner = INSTR
*** Reached end of trace: (0, "../traces/secret_traces/crypto/crypto89.champsimtrace.xz")
[DUEL] Epoch ended. INSTR misses = 11, DATA misses = 13. Winner = INSTR
[DUEL] Epoch ended. INSTR misses = 6, DATA misses = 18. Winner = INSTR
[DUEL] Epoch ended. INSTR misses = 0, DATA misses = 0. Winner = INSTR
[DUEL] Epoch ended. INSTR misses = 0, DATA misses = 0. Winner = INSTR
[DUEL] Epoch ended. INSTR misses = 0, DATA misses = 0. Winner = INSTR
[DUEL] Epoch ended. INSTR misses = 0, DATA misses = 0. Winner = INSTR
[DUEL] Epoch ended. INSTR misses = 0, DATA misses = 0. Winner = INSTR
[DUEL] Epoch ended. INSTR misses = 1, DATA misses = 0. Winner = DATA
[DUEL] Epoch ended. INSTR misses = 0, DATA misses = 0. Winner = INSTR
[DUEL] Epoch ended. INSTR misses = 1, DATA misses = 2. Winner = INSTR
[DUEL] Epoch ended. INSTR misses = 0, DATA misses = 1. Winner = INSTR
[DUEL] Epoch ended. INSTR misses = 2, DATA misses = 2. Winner = INSTR
[DUEL] Epoch ended. INSTR misses = 0, DATA misses = 0. Winner = INSTR
[DUEL] Epoch ended. INSTR misses = 0, DATA misses = 0. Winner = INSTR
Heartbeat CPU 0 instructions: 60000000 cycles: 11351797 heartbeat IPC: 4.432 cumulative IPC: 4.853 (Simulation time: 00 hr 02 min 28 sec)
[DUEL] Epoch ended. INSTR misses = 1, DATA misses = 9. Winner = INSTR
[DUEL] Epoch ended. INSTR misses = 0, DATA misses = 4. Winner = INSTR
[DUEL] Epoch ended. INSTR misses = 19, DATA misses = 53. Winner = INSTR
Heartbeat CPU 0 instructions: 70000000 cycles: 13456450 heartbeat IPC: 4.751 cumulative IPC: 4.828 (Simulation time: 00 hr 02 min 56 sec)
[DUEL] Epoch ended. INSTR misses = 21, DATA misses = 36. Winner = INSTR
*** Reached end of trace: (0, "../traces/secret_traces/crypto/crypto89.champsimtrace.xz")
[DUEL] Epoch ended. INSTR misses = 8, DATA misses = 12. Winner = INSTR
[DUEL] Epoch ended. INSTR misses = 6, DATA misses = 14. Winner = INSTR
[DUEL] Epoch ended. INSTR misses = 0, DATA misses = 0. Winner = INSTR
[DUEL] Epoch ended. INSTR misses = 0, DATA misses = 0. Winner = INSTR
[DUEL] Epoch ended. INSTR misses = 0, DATA misses = 0. Winner = INSTR
[DUEL] Epoch ended. INSTR misses = 0, DATA misses = 0. Winner = INSTR
[DUEL] Epoch ended. INSTR misses = 0, DATA misses = 0. Winner = INSTR
[DUEL] Epoch ended. INSTR misses = 0, DATA misses = 0. Winner = INSTR
[DUEL] Epoch ended. INSTR misses = 0, DATA misses = 0. Winner = INSTR
[DUEL] Epoch ended. INSTR misses = 2, DATA misses = 2. Winner = INSTR
Heartbeat CPU 0 instructions: 80000003 cycles: 15486296 heartbeat IPC: 4.926 cumulative IPC: 4.847 (Simulation time: 00 hr 03 min 23 sec)
[DUEL] Epoch ended. INSTR misses = 0, DATA misses = 1. Winner = INSTR
[DUEL] Epoch ended. INSTR misses = 4, DATA misses = 2. Winner = DATA
[DUEL] Epoch ended. INSTR misses = 0, DATA misses = 0. Winner = INSTR
[DUEL] Epoch ended. INSTR misses = 0, DATA misses = 0. Winner = INSTR
Heartbeat CPU 0 instructions: 90000006 cycles: 17345180 heartbeat IPC: 5.38 cumulative IPC: 4.928 (Simulation time: 00 hr 03 min 50 sec)
[DUEL] Epoch ended. INSTR misses = 1, DATA misses = 9. Winner = INSTR
[DUEL] Epoch ended. INSTR misses = 5, DATA misses = 3. Winner = DATA
[DUEL] Epoch ended. INSTR misses = 22, DATA misses = 50. Winner = INSTR
Heartbeat CPU 0 instructions: 100000011 cycles: 19564595 heartbeat IPC: 4.506 cumulative IPC: 4.863 (Simulation time: 00 hr 04 min 19 sec)
[DUEL] Epoch ended. INSTR misses = 20, DATA misses = 33. Winner = INSTR
*** Reached end of trace: (0, "../traces/secret_traces/crypto/crypto89.champsimtrace.xz")
[DUEL] Epoch ended. INSTR misses = 5, DATA misses = 9. Winner = INSTR
[DUEL] Epoch ended. INSTR misses = 13, DATA misses = 17. Winner = INSTR
[DUEL] Epoch ended. INSTR misses = 0, DATA misses = 0. Winner = INSTR
[DUEL] Epoch ended. INSTR misses = 0, DATA misses = 0. Winner = INSTR
[DUEL] Epoch ended. INSTR misses = 0, DATA misses = 0. Winner = INSTR
[DUEL] Epoch ended. INSTR misses = 0, DATA misses = 0. Winner = INSTR
[DUEL] Epoch ended. INSTR misses = 0, DATA misses = 0. Winner = INSTR
[DUEL] Epoch ended. INSTR misses = 2, DATA misses = 0. Winner = DATA
[DUEL] Epoch ended. INSTR misses = 0, DATA misses = 0. Winner = INSTR
[DUEL] Epoch ended. INSTR misses = 0, DATA misses = 2. Winner = INSTR
[DUEL] Epoch ended. INSTR misses = 0, DATA misses = 1. Winner = INSTR
[DUEL] Epoch ended. INSTR misses = 3, DATA misses = 2. Winner = DATA
[DUEL] Epoch ended. INSTR misses = 0, DATA misses = 0. Winner = INSTR
[DUEL] Epoch ended. INSTR misses = 0, DATA misses = 0. Winner = INSTR
Heartbeat CPU 0 instructions: 110000004 cycles: 21792456 heartbeat IPC: 4.489 cumulative IPC: 4.813 (Simulation time: 00 hr 04 min 48 sec)
Heartbeat CPU 0 instructions: 120000005 cycles: 23474076 heartbeat IPC: 5.947 cumulative IPC: 4.917 (Simulation time: 00 hr 05 min 13 sec)
[DUEL] Epoch ended. INSTR misses = 1, DATA misses = 8. Winner = INSTR
[DUEL] Epoch ended. INSTR misses = 6, DATA misses = 2. Winner = DATA
[DUEL] Epoch ended. INSTR misses = 21, DATA misses = 45. Winner = INSTR
[DUEL] Epoch ended. INSTR misses = 18, DATA misses = 35. Winner = INSTR
*** Reached end of trace: (0, "../traces/secret_traces/crypto/crypto89.champsimtrace.xz")
[DUEL] Epoch ended. INSTR misses = 4, DATA misses = 14. Winner = INSTR
[DUEL] Epoch ended. INSTR misses = 14, DATA misses = 12. Winner = DATA
[DUEL] Epoch ended. INSTR misses = 0, DATA misses = 0. Winner = INSTR
Heartbeat CPU 0 instructions: 130000002 cycles: 25859686 heartbeat IPC: 4.192 cumulative IPC: 4.833 (Simulation time: 00 hr 05 min 42 sec)
Simulation finished CPU 0 instructions: 100000000 cycles: 20689060 cumulative IPC: 4.833 (Simulation time: 00 hr 05 min 42 sec)
Simulation complete CPU 0 instructions: 100000000 cycles: 20689060 cumulative IPC: 4.833 (Simulation time: 00 hr 05 min 42 sec)

ChampSim completed all CPUs

=== Simulation ===
CPU 0 runs ../traces/secret_traces/crypto/crypto89.champsimtrace.xz
Region of Interest Statistics

CPU 0 cumulative IPC: 4.833 instructions: 100000000 cycles: 20689060
CPU 0 Branch Prediction Accuracy: 99.12% MPKI: 0.9258 Average ROB Occupancy at Mispredict: 32.26
Branch type MPKI
BRANCH_DIRECT_JUMP: 0.0559
BRANCH_INDIRECT: 0.483
BRANCH_CONDITIONAL: 0.118
BRANCH_DIRECT_CALL: 0.161
BRANCH_INDIRECT_CALL: 0.02
BRANCH_RETURN: 0.0876

LLC TOTAL        ACCESS:     447289 HIT:     333417 MISS:     113872
LLC LOAD         ACCESS:      46588 HIT:      24317 MISS:      22271
LLC RFO          ACCESS:     136962 HIT:     114801 MISS:      22161
LLC PREFETCH     ACCESS:     108343 HIT:      56211 MISS:      52132
LLC WRITE        ACCESS:     152886 HIT:     137543 MISS:      15343
LLC TRANSLATION  ACCESS:       2510 HIT:        545 MISS:       1965
LLC PREFETCH REQUESTED:          0 ISSUED:          0 USEFUL:          0 USELESS:          0
LLC AVERAGE MISS LATENCY: 162.6 cycles
cpu0_DTLB TOTAL        ACCESS:   13577991 HIT:   13534927 MISS:      43064
cpu0_DTLB LOAD         ACCESS:   13577991 HIT:   13534927 MISS:      43064
cpu0_DTLB RFO          ACCESS:          0 HIT:          0 MISS:          0
cpu0_DTLB PREFETCH     ACCESS:          0 HIT:          0 MISS:          0
cpu0_DTLB WRITE        ACCESS:          0 HIT:          0 MISS:          0
cpu0_DTLB TRANSLATION  ACCESS:          0 HIT:          0 MISS:          0
cpu0_DTLB PREFETCH REQUESTED:          0 ISSUED:          0 USEFUL:          0 USELESS:          0
cpu0_DTLB AVERAGE MISS LATENCY: 10.17 cycles
cpu0_ITLB TOTAL        ACCESS:    5316505 HIT:    5301274 MISS:      15231
cpu0_ITLB LOAD         ACCESS:    5316505 HIT:    5301274 MISS:      15231
cpu0_ITLB RFO          ACCESS:          0 HIT:          0 MISS:          0
cpu0_ITLB PREFETCH     ACCESS:          0 HIT:          0 MISS:          0
cpu0_ITLB WRITE        ACCESS:          0 HIT:          0 MISS:          0
cpu0_ITLB TRANSLATION  ACCESS:          0 HIT:          0 MISS:          0
cpu0_ITLB PREFETCH REQUESTED:          0 ISSUED:          0 USEFUL:          0 USELESS:          0
cpu0_ITLB AVERAGE MISS LATENCY: 17.45 cycles
cpu0_L1D TOTAL        ACCESS:   18710057 HIT:   18056742 MISS:     653315
cpu0_L1D LOAD         ACCESS:   11693435 HIT:   11528231 MISS:     165204
cpu0_L1D RFO          ACCESS:          0 HIT:          0 MISS:          0
cpu0_L1D PREFETCH     ACCESS:     783869 HIT:     665785 MISS:     118084
cpu0_L1D WRITE        ACCESS:    6227658 HIT:    5860940 MISS:     366718
cpu0_L1D TRANSLATION  ACCESS:       5095 HIT:       1786 MISS:       3309
cpu0_L1D PREFETCH REQUESTED:    3544228 ISSUED:     783869 USEFUL:      12537 USELESS:       1220
cpu0_L1D AVERAGE MISS LATENCY: 25.2 cycles
cpu0_L1I TOTAL        ACCESS:    7653733 HIT:    7477849 MISS:     175884
cpu0_L1I LOAD         ACCESS:    1636007 HIT:    1596500 MISS:      39507
cpu0_L1I RFO          ACCESS:          0 HIT:          0 MISS:          0
cpu0_L1I PREFETCH     ACCESS:    6017726 HIT:    5881349 MISS:     136377
cpu0_L1I WRITE        ACCESS:          0 HIT:          0 MISS:          0
cpu0_L1I TRANSLATION  ACCESS:          0 HIT:          0 MISS:          0
cpu0_L1I PREFETCH REQUESTED:    7182181 ISSUED:    6017725 USEFUL:      76588 USELESS:      53916
cpu0_L1I AVERAGE MISS LATENCY: 31.75 cycles
cpu0_L2C TOTAL        ACCESS:    1022802 HIT:     639943 MISS:     382859
cpu0_L2C LOAD         ACCESS:     130976 HIT:      73417 MISS:      57559
cpu0_L2C RFO          ACCESS:     150068 HIT:      13064 MISS:     137004
cpu0_L2C PREFETCH     ACCESS:     567672 HIT:     381887 MISS:     185785
cpu0_L2C WRITE        ACCESS:     170895 HIT:     170894 MISS:          1
cpu0_L2C TRANSLATION  ACCESS:       3191 HIT:        681 MISS:       2510
cpu0_L2C PREFETCH REQUESTED:     357507 ISSUED:     341141 USEFUL:      26509 USELESS:      25535
cpu0_L2C AVERAGE MISS LATENCY: 61.45 cycles
cpu0_STLB TOTAL        ACCESS:      25915 HIT:      21282 MISS:       4633
cpu0_STLB LOAD         ACCESS:      25915 HIT:      21282 MISS:       4633
cpu0_STLB RFO          ACCESS:          0 HIT:          0 MISS:          0
cpu0_STLB PREFETCH     ACCESS:          0 HIT:          0 MISS:          0
cpu0_STLB WRITE        ACCESS:          0 HIT:          0 MISS:          0
cpu0_STLB TRANSLATION  ACCESS:          0 HIT:          0 MISS:          0
cpu0_STLB PREFETCH REQUESTED:          0 ISSUED:          0 USEFUL:          0 USELESS:          0
cpu0_STLB AVERAGE MISS LATENCY: 129 cycles

DRAM Statistics

Channel 0 RQ ROW_BUFFER_HIT:      24030
  ROW_BUFFER_MISS:      26119
 AVG DBUS CONGESTED CYCLE: 3.885
WQ ROW_BUFFER_HIT: Channel 0 
  ROW_BUFFER_MISS:       1830
  FULL:      11406

Channel 1 RQ ROW_BUFFER_HIT:      22513
  ROW_BUFFER_MISS:      25835
 AVG DBUS CONGESTED CYCLE: 3.858
WQ ROW_BUFFER_HIT: Channel 1 
  ROW_BUFFER_MISS:       1675
  FULL:      10413
BERTI TO_L1: 1510243 TO_L2: 3094174 TO_L2_BC_MSHR: 1491403
BERTI AVG_LAT: 63.5368 NUM_TRACK_LATENCY: 161669 NUM_CANT_TRACK_LATENCY: 0
BERTI CROSS_PAGE 845104 NO_CROSS_PAGE: 3759313
BERTI FOUND_BERTI: 1813864 NO_FOUND_BERTI: 14009212
BERTI AVERAGE_ISSUED: 3.65055
CPU 0 L1I Entangling prefetcher final stats
IP accesses: 1f30 7cc00 149706 / 1636877
IP misses: f7cb 3df2c0 158 / 40377
IP hits: 0 0 0 / 0
IP late: 6e9e 1ba780 53 / 19792
IP wrong: f801 3e0040 116 / 53695
miss rate: 0.0246671
coverage: 0
coverage_late: 0.490181
accuracy: 0
accuracy_late: 0.269327
discarded: 0
evicts entangled j table: 0
evicts entangled k table: 6814
max bb size: 53
formats: 1727 0 5461 2789 1060 2047 0 
hist_lookups: 4442 5077 4054 3637 3211 2716 2138 1549 1175 1035 691 472 309 189 87 0 18 7415 
hist_lookups_evict: 0.047102 %
hist_lookups_shortlat: 19.4034 %
bb_found_hist: 0 483157 232288 165897 8556 4183 1806 1497 506 101 6 105 119 98 27 40 3 0 0 0 0 7 0 0 0 0 0 0 0 0 0 3 3 0 3 0 0 0 0 0 0 0 0 0 0 0 0 0 0 0 0 0 0 3 0 0 0 0 0 0 0 0 0 0 
bb_found_summary: 1532375 898408 1.70566
entangled_found_hist: 0 304259 168745 567486 18458 2041 546 0 
entangled_found_summary: 2431520 1061535 2.29057
bb_ent_found_hist: 0 803348 342578 226777 79073 20695 3576 93658 1678 58 0 170 84 78 19 199 272 0 0 0 0 23 0 0 0 0 0 0 0 0 0 3 3 0 6 0 0 0 0 0 0 0 0 0 0 0 0 0 0 0 0 0 0 4 0 0 0 0 0 0 0 0 0 0 
bb_ent_found_summary: 3292193 1572302 2.09387
