WARNING: physical memory size is smaller than virtual memory size.

*** ChampSim Multicore Out-of-Order Simulator ***
Warmup Instructions: 30000000
Simulation Instructions: 100000000
Number of CPUs: 1
Page size: 4096

BTB:
Basic BTB sets: 1024 ways: 8
Indirect:
history lengths: 0 0 10 16 27 44 60 96 109 219 449 487 714 1313 2146 3881 
ITTAGE tables: 64768 bytes;Region table: 240 bytes;IUM: 384 bytes;Total Storage= 65392 bytes;
RAS:
RAS size: 64
[LLC] INSTR Demand IPV: 1 2 2 1 4 Prefetch IPV: 1 2 1 1 4
[LLC] DATA  Demand IPV: 1 1 1 2 4 Prefetch IPV: 1 1 2 2 4
Berti Prefetcher
CPU 0 Entangling prefetcher
Off-chip DRAM Size: 8 GiB Channels: 2 Width: 64-bit Data Race: 6400 MT/s
[DUEL] Epoch ended. INSTR misses = 53, DATA misses = 61. Winner = INSTR
[DUEL] Epoch ended. INSTR misses = 16, DATA misses = 16. Winner = INSTR
[DUEL] Epoch ended. INSTR misses = 0, DATA misses = 0. Winner = INSTR
[DUEL] Epoch ended. INSTR misses = 0, DATA misses = 0. Winner = INSTR
[DUEL] Epoch ended. INSTR misses = 0, DATA misses = 0. Winner = INSTR
[DUEL] Epoch ended. INSTR misses = 0, DATA misses = 0. Winner = INSTR
[DUEL] Epoch ended. INSTR misses = 16, DATA misses = 16. Winner = INSTR
[DUEL] Epoch ended. INSTR misses = 0, DATA misses = 0. Winner = INSTR
[DUEL] Epoch ended. INSTR misses = 0, DATA misses = 0. Winner = INSTR
[DUEL] Epoch ended. INSTR misses = 1, DATA misses = 2. Winner = INSTR
[DUEL] Epoch ended. INSTR misses = 1, DATA misses = 10. Winner = INSTR
[DUEL] Epoch ended. INSTR misses = 0, DATA misses = 0. Winner = INSTR
[DUEL] Epoch ended. INSTR misses = 0, DATA misses = 0. Winner = INSTR
Heartbeat CPU 0 instructions: 10000009 cycles: 1769335 heartbeat IPC: 5.652 cumulative IPC: 5.652 (Simulation time: 00 hr 00 min 22 sec)
[DUEL] Epoch ended. INSTR misses = 5, DATA misses = 9. Winner = INSTR
[DUEL] Epoch ended. INSTR misses = 35, DATA misses = 28. Winner = DATA
[DUEL] Epoch ended. INSTR misses = 95, DATA misses = 99. Winner = INSTR
Heartbeat CPU 0 instructions: 20000000 cycles: 3559734 heartbeat IPC: 5.585 cumulative IPC: 5.618 (Simulation time: 00 hr 00 min 44 sec)
[DUEL] Epoch ended. INSTR misses = 42, DATA misses = 26. Winner = DATA
Heartbeat CPU 0 instructions: 30000006 cycles: 5306537 heartbeat IPC: 5.725 cumulative IPC: 5.653 (Simulation time: 00 hr 01 min 05 sec)
Warmup finished CPU 0 instructions: 30000006 cycles: 5306538 cumulative IPC: 5.653 (Simulation time: 00 hr 01 min 05 sec)
Warmup complete CPU 0 instructions: 30000006 cycles: 5306538 cumulative IPC: 5.653 (Simulation time: 00 hr 01 min 05 sec)
[DUEL] Epoch ended. INSTR misses = 1, DATA misses = 0. Winner = DATA
Heartbeat CPU 0 instructions: 40000004 cycles: 7059430 heartbeat IPC: 5.705 cumulative IPC: 5.705 (Simulation time: 00 hr 01 min 29 sec)
[DUEL] Epoch ended. INSTR misses = 0, DATA misses = 0. Winner = INSTR
Heartbeat CPU 0 instructions: 50000007 cycles: 8812459 heartbeat IPC: 5.704 cumulative IPC: 5.705 (Simulation time: 00 hr 01 min 53 sec)
[DUEL] Epoch ended. INSTR misses = 0, DATA misses = 0. Winner = INSTR
Heartbeat CPU 0 instructions: 60000003 cycles: 10571599 heartbeat IPC: 5.685 cumulative IPC: 5.698 (Simulation time: 00 hr 02 min 18 sec)
Heartbeat CPU 0 instructions: 70000004 cycles: 12323121 heartbeat IPC: 5.709 cumulative IPC: 5.701 (Simulation time: 00 hr 02 min 42 sec)
[DUEL] Epoch ended. INSTR misses = 6, DATA misses = 1. Winner = DATA
Heartbeat CPU 0 instructions: 80000003 cycles: 14074982 heartbeat IPC: 5.708 cumulative IPC: 5.702 (Simulation time: 00 hr 03 min 06 sec)
Heartbeat CPU 0 instructions: 90000009 cycles: 15826676 heartbeat IPC: 5.709 cumulative IPC: 5.703 (Simulation time: 00 hr 03 min 30 sec)
Heartbeat CPU 0 instructions: 100000002 cycles: 17578250 heartbeat IPC: 5.709 cumulative IPC: 5.704 (Simulation time: 00 hr 03 min 55 sec)
Heartbeat CPU 0 instructions: 110000002 cycles: 19329875 heartbeat IPC: 5.709 cumulative IPC: 5.705 (Simulation time: 00 hr 04 min 19 sec)
Heartbeat CPU 0 instructions: 120000000 cycles: 21081489 heartbeat IPC: 5.709 cumulative IPC: 5.705 (Simulation time: 00 hr 04 min 43 sec)
Heartbeat CPU 0 instructions: 130000004 cycles: 22833067 heartbeat IPC: 5.709 cumulative IPC: 5.706 (Simulation time: 00 hr 05 min 07 sec)
Simulation finished CPU 0 instructions: 100000003 cycles: 17526531 cumulative IPC: 5.706 (Simulation time: 00 hr 05 min 07 sec)
Simulation complete CPU 0 instructions: 100000003 cycles: 17526531 cumulative IPC: 5.706 (Simulation time: 00 hr 05 min 07 sec)

ChampSim completed all CPUs

=== Simulation ===
CPU 0 runs ../traces/secret_traces/crypto/crypto12.champsimtrace.xz
Region of Interest Statistics

CPU 0 cumulative IPC: 5.706 instructions: 100000003 cycles: 17526531
CPU 0 Branch Prediction Accuracy: 100% MPKI: 0.00197 Average ROB Occupancy at Mispredict: 57.53
Branch type MPKI
BRANCH_DIRECT_JUMP: 7e-05
BRANCH_INDIRECT: 0.00082
BRANCH_CONDITIONAL: 0.00046
BRANCH_DIRECT_CALL: 0.00024
BRANCH_INDIRECT_CALL: 4e-05
BRANCH_RETURN: 0.00034

LLC TOTAL        ACCESS:        512 HIT:        269 MISS:        243
LLC LOAD         ACCESS:         91 HIT:         30 MISS:         61
LLC RFO          ACCESS:          4 HIT:          3 MISS:          1
LLC PREFETCH     ACCESS:        217 HIT:         82 MISS:        135
LLC WRITE        ACCESS:        191 HIT:        151 MISS:         40
LLC TRANSLATION  ACCESS:          9 HIT:          3 MISS:          6
LLC PREFETCH REQUESTED:          0 ISSUED:          0 USEFUL:          0 USELESS:          0
LLC AVERAGE MISS LATENCY: 159.3 cycles
cpu0_DTLB TOTAL        ACCESS:   10377276 HIT:   10377060 MISS:        216
cpu0_DTLB LOAD         ACCESS:   10377276 HIT:   10377060 MISS:        216
cpu0_DTLB RFO          ACCESS:          0 HIT:          0 MISS:          0
cpu0_DTLB PREFETCH     ACCESS:          0 HIT:          0 MISS:          0
cpu0_DTLB WRITE        ACCESS:          0 HIT:          0 MISS:          0
cpu0_DTLB TRANSLATION  ACCESS:          0 HIT:          0 MISS:          0
cpu0_DTLB PREFETCH REQUESTED:          0 ISSUED:          0 USEFUL:          0 USELESS:          0
cpu0_DTLB AVERAGE MISS LATENCY: 12.44 cycles
cpu0_ITLB TOTAL        ACCESS:   10834159 HIT:   10834124 MISS:         35
cpu0_ITLB LOAD         ACCESS:   10834159 HIT:   10834124 MISS:         35
cpu0_ITLB RFO          ACCESS:          0 HIT:          0 MISS:          0
cpu0_ITLB PREFETCH     ACCESS:          0 HIT:          0 MISS:          0
cpu0_ITLB WRITE        ACCESS:          0 HIT:          0 MISS:          0
cpu0_ITLB TRANSLATION  ACCESS:          0 HIT:          0 MISS:          0
cpu0_ITLB PREFETCH REQUESTED:          0 ISSUED:          0 USEFUL:          0 USELESS:          0
cpu0_ITLB AVERAGE MISS LATENCY: 33.83 cycles
cpu0_L1D TOTAL        ACCESS:   13878478 HIT:   13878300 MISS:        178
cpu0_L1D LOAD         ACCESS:    6499000 HIT:    6498837 MISS:        163
cpu0_L1D RFO          ACCESS:          0 HIT:          0 MISS:          0
cpu0_L1D PREFETCH     ACCESS:          0 HIT:          0 MISS:          0
cpu0_L1D WRITE        ACCESS:    7379466 HIT:    7379462 MISS:          4
cpu0_L1D TRANSLATION  ACCESS:         12 HIT:          1 MISS:         11
cpu0_L1D PREFETCH REQUESTED:          0 ISSUED:          0 USEFUL:          0 USELESS:          0
cpu0_L1D AVERAGE MISS LATENCY: 56.07 cycles
cpu0_L1I TOTAL        ACCESS:   15973759 HIT:   15968203 MISS:       5556
cpu0_L1I LOAD         ACCESS:    7662363 HIT:    7658758 MISS:       3605
cpu0_L1I RFO          ACCESS:          0 HIT:          0 MISS:          0
cpu0_L1I PREFETCH     ACCESS:    8311396 HIT:    8309445 MISS:       1951
cpu0_L1I WRITE        ACCESS:          0 HIT:          0 MISS:          0
cpu0_L1I TRANSLATION  ACCESS:          0 HIT:          0 MISS:          0
cpu0_L1I PREFETCH REQUESTED:   29445064 ISSUED:    8311396 USEFUL:        996 USELESS:        772
cpu0_L1I AVERAGE MISS LATENCY: 8.578 cycles
cpu0_L2C TOTAL        ACCESS:       8307 HIT:       7945 MISS:        362
cpu0_L2C LOAD         ACCESS:       2532 HIT:       2438 MISS:         94
cpu0_L2C RFO          ACCESS:          4 HIT:          0 MISS:          4
cpu0_L2C PREFETCH     ACCESS:       5694 HIT:       5439 MISS:        255
cpu0_L2C WRITE        ACCESS:         67 HIT:         67 MISS:          0
cpu0_L2C TRANSLATION  ACCESS:         10 HIT:          1 MISS:          9
cpu0_L2C PREFETCH REQUESTED:       4270 ISSUED:       3956 USEFUL:         30 USELESS:         20
cpu0_L2C AVERAGE MISS LATENCY: 124.3 cycles
cpu0_STLB TOTAL        ACCESS:        168 HIT:        159 MISS:          9
cpu0_STLB LOAD         ACCESS:        168 HIT:        159 MISS:          9
cpu0_STLB RFO          ACCESS:          0 HIT:          0 MISS:          0
cpu0_STLB PREFETCH     ACCESS:          0 HIT:          0 MISS:          0
cpu0_STLB WRITE        ACCESS:          0 HIT:          0 MISS:          0
cpu0_STLB TRANSLATION  ACCESS:          0 HIT:          0 MISS:          0
cpu0_STLB PREFETCH REQUESTED:          0 ISSUED:          0 USEFUL:          0 USELESS:          0
cpu0_STLB AVERAGE MISS LATENCY: 306.9 cycles

DRAM Statistics

Channel 0 RQ ROW_BUFFER_HIT:          9
  ROW_BUFFER_MISS:         90
 AVG DBUS CONGESTED CYCLE: 3.961
WQ ROW_BUFFER_HIT: Channel 0 
  ROW_BUFFER_MISS:         18
  FULL:         23

Channel 1 RQ ROW_BUFFER_HIT:         10
  ROW_BUFFER_MISS:         94
 AVG DBUS CONGESTED CYCLE: 3.871
WQ ROW_BUFFER_HIT: Channel 1 
  ROW_BUFFER_MISS:         18
  FULL:         27
BERTI TO_L1: 336651 TO_L2: 115719 TO_L2_BC_MSHR: 7901
BERTI AVG_LAT: 21.3702 NUM_TRACK_LATENCY: 31459 NUM_CANT_TRACK_LATENCY: 0
BERTI CROSS_PAGE 86859 NO_CROSS_PAGE: 365511
BERTI FOUND_BERTI: 296785 NO_FOUND_BERTI: 8793559
BERTI AVERAGE_ISSUED: 4.51002
CPU 0 L1I Entangling prefetcher final stats
IP accesses: 1f31 7cc40 451940 / 7662395
IP misses: 3cb9 f2e40 36 / 3637
IP hits: 0 0 0 / 0
IP late: 30b7 c2dc0 9 / 1429
IP wrong: 386d e1b40 9 / 760
miss rate: 0.000474656
coverage: 0
coverage_late: 0.392907
accuracy: 0
accuracy_late: 0.65281
discarded: 0
evicts entangled j table: 0
evicts entangled k table: 370
max bb size: 56
formats: 44 0 325 72 55 74 0 
hist_lookups: 65 164 218 251 287 248 156 103 102 89 58 50 33 14 2 0 0 2470 
hist_lookups_evict: 0 %
hist_lookups_shortlat: 57.3086 %
bb_found_hist: 0 1452595 309823 357215 93896 47669 49 6 3967 0 34794 15 10226 0 0 0 0 0 0 0 14190 0 0 23791 0 3963 0 11633 0 0 0 0 0 0 0 0 0 0 0 0 0 0 0 0 0 0 0 0 0 0 0 0 0 0 0 0 23787 0 0 0 0 0 0 0 
bb_found_summary: 6836935 2387619 2.8635
entangled_found_hist: 0 506497 568874 1446890 190185 41739 16133 0 
entangled_found_summary: 7051148 2770318 2.54525
bb_ent_found_hist: 0 2951441 318179 621792 223765 213826 171 66 6 0 42991 28 10229 0 0 0 0 0 0 0 0 0 0 0 0 3963 0 0 0 0 0 0 0 0 0 0 0 0 0 0 0 0 0 0 0 0 0 0 0 0 0 0 0 0 0 0 133742 0 0 0 0 0 0 0 
bb_ent_found_summary: 15560494 4520199 3.44244
