WARNING: physical memory size is smaller than virtual memory size.

*** ChampSim Multicore Out-of-Order Simulator ***
Warmup Instructions: 30000000
Simulation Instructions: 100000000
Number of CPUs: 1
Page size: 4096

BTB:
Basic BTB sets: 1024 ways: 8
Indirect:
history lengths: 0 0 10 16 27 44 60 96 109 219 449 487 714 1313 2146 3881 
ITTAGE tables: 64768 bytes;Region table: 240 bytes;IUM: 384 bytes;Total Storage= 65392 bytes;
RAS:
RAS size: 64
[LLC] INSTR Demand IPV: 1 2 2 1 4 Prefetch IPV: 1 2 1 1 4
[LLC] DATA  Demand IPV: 1 1 1 2 4 Prefetch IPV: 1 1 2 2 4
Berti Prefetcher
CPU 0 Entangling prefetcher
Off-chip DRAM Size: 8 GiB Channels: 2 Width: 64-bit Data Race: 6400 MT/s
[DUEL] Epoch ended. INSTR misses = 54, DATA misses = 46. Winner = DATA
[DUEL] Epoch ended. INSTR misses = 16, DATA misses = 17. Winner = INSTR
[DUEL] Epoch ended. INSTR misses = 0, DATA misses = 0. Winner = INSTR
[DUEL] Epoch ended. INSTR misses = 0, DATA misses = 0. Winner = INSTR
[DUEL] Epoch ended. INSTR misses = 3, DATA misses = 0. Winner = DATA
[DUEL] Epoch ended. INSTR misses = 1, DATA misses = 0. Winner = DATA
[DUEL] Epoch ended. INSTR misses = 1, DATA misses = 0. Winner = DATA
[DUEL] Epoch ended. INSTR misses = 0, DATA misses = 0. Winner = INSTR
[DUEL] Epoch ended. INSTR misses = 0, DATA misses = 0. Winner = INSTR
[DUEL] Epoch ended. INSTR misses = 15, DATA misses = 11. Winner = DATA
[DUEL] Epoch ended. INSTR misses = 6, DATA misses = 2. Winner = DATA
[DUEL] Epoch ended. INSTR misses = 1, DATA misses = 8. Winner = INSTR
[DUEL] Epoch ended. INSTR misses = 0, DATA misses = 0. Winner = INSTR
[DUEL] Epoch ended. INSTR misses = 0, DATA misses = 0. Winner = INSTR
Heartbeat CPU 0 instructions: 10000010 cycles: 1715368 heartbeat IPC: 5.83 cumulative IPC: 5.83 (Simulation time: 00 hr 00 min 20 sec)
[DUEL] Epoch ended. INSTR misses = 9, DATA misses = 12. Winner = INSTR
[DUEL] Epoch ended. INSTR misses = 22, DATA misses = 26. Winner = INSTR
[DUEL] Epoch ended. INSTR misses = 94, DATA misses = 89. Winner = DATA
[DUEL] Epoch ended. INSTR misses = 26, DATA misses = 24. Winner = DATA
Heartbeat CPU 0 instructions: 20000009 cycles: 3431836 heartbeat IPC: 5.826 cumulative IPC: 5.828 (Simulation time: 00 hr 00 min 39 sec)
[DUEL] Epoch ended. INSTR misses = 0, DATA misses = 0. Winner = INSTR
Heartbeat CPU 0 instructions: 30000007 cycles: 5098562 heartbeat IPC: 6 cumulative IPC: 5.884 (Simulation time: 00 hr 00 min 57 sec)
Warmup finished CPU 0 instructions: 30000007 cycles: 5098563 cumulative IPC: 5.884 (Simulation time: 00 hr 00 min 57 sec)
Warmup complete CPU 0 instructions: 30000007 cycles: 5098563 cumulative IPC: 5.884 (Simulation time: 00 hr 00 min 57 sec)
[DUEL] Epoch ended. INSTR misses = 1, DATA misses = 0. Winner = DATA
*** Reached end of trace: (0, "../traces/secret_traces/crypto/crypto13.champsimtrace.xz")
[DUEL] Epoch ended. INSTR misses = 3, DATA misses = 25. Winner = INSTR
[DUEL] Epoch ended. INSTR misses = 12, DATA misses = 7. Winner = DATA
[DUEL] Epoch ended. INSTR misses = 3, DATA misses = 0. Winner = DATA
[DUEL] Epoch ended. INSTR misses = 0, DATA misses = 0. Winner = INSTR
[DUEL] Epoch ended. INSTR misses = 1, DATA misses = 0. Winner = DATA
[DUEL] Epoch ended. INSTR misses = 0, DATA misses = 0. Winner = INSTR
[DUEL] Epoch ended. INSTR misses = 0, DATA misses = 0. Winner = INSTR
[DUEL] Epoch ended. INSTR misses = 0, DATA misses = 0. Winner = INSTR
[DUEL] Epoch ended. INSTR misses = 0, DATA misses = 0. Winner = INSTR
[DUEL] Epoch ended. INSTR misses = 9, DATA misses = 6. Winner = DATA
[DUEL] Epoch ended. INSTR misses = 2, DATA misses = 4. Winner = INSTR
[DUEL] Epoch ended. INSTR misses = 0, DATA misses = 0. Winner = INSTR
[DUEL] Epoch ended. INSTR misses = 1, DATA misses = 5. Winner = INSTR
[DUEL] Epoch ended. INSTR misses = 0, DATA misses = 0. Winner = INSTR
Heartbeat CPU 0 instructions: 40000005 cycles: 7729588 heartbeat IPC: 3.801 cumulative IPC: 3.801 (Simulation time: 00 hr 01 min 26 sec)
[DUEL] Epoch ended. INSTR misses = 7, DATA misses = 9. Winner = INSTR
[DUEL] Epoch ended. INSTR misses = 3, DATA misses = 5. Winner = INSTR
[DUEL] Epoch ended. INSTR misses = 33, DATA misses = 31. Winner = DATA
[DUEL] Epoch ended. INSTR misses = 10, DATA misses = 11. Winner = INSTR
Heartbeat CPU 0 instructions: 50000000 cycles: 10268259 heartbeat IPC: 3.939 cumulative IPC: 3.869 (Simulation time: 00 hr 01 min 55 sec)
[DUEL] Epoch ended. INSTR misses = 1, DATA misses = 0. Winner = DATA
Heartbeat CPU 0 instructions: 60000005 cycles: 12247611 heartbeat IPC: 5.052 cumulative IPC: 4.196 (Simulation time: 00 hr 02 min 20 sec)
[DUEL] Epoch ended. INSTR misses = 0, DATA misses = 0. Winner = INSTR
*** Reached end of trace: (0, "../traces/secret_traces/crypto/crypto13.champsimtrace.xz")
[DUEL] Epoch ended. INSTR misses = 9, DATA misses = 31. Winner = INSTR
[DUEL] Epoch ended. INSTR misses = 9, DATA misses = 2. Winner = DATA
[DUEL] Epoch ended. INSTR misses = 2, DATA misses = 0. Winner = DATA
[DUEL] Epoch ended. INSTR misses = 0, DATA misses = 0. Winner = INSTR
[DUEL] Epoch ended. INSTR misses = 1, DATA misses = 0. Winner = DATA
[DUEL] Epoch ended. INSTR misses = 0, DATA misses = 0. Winner = INSTR
[DUEL] Epoch ended. INSTR misses = 1, DATA misses = 0. Winner = DATA
[DUEL] Epoch ended. INSTR misses = 0, DATA misses = 0. Winner = INSTR
[DUEL] Epoch ended. INSTR misses = 0, DATA misses = 0. Winner = INSTR
[DUEL] Epoch ended. INSTR misses = 7, DATA misses = 7. Winner = INSTR
[DUEL] Epoch ended. INSTR misses = 2, DATA misses = 4. Winner = INSTR
[DUEL] Epoch ended. INSTR misses = 4, DATA misses = 5. Winner = INSTR
[DUEL] Epoch ended. INSTR misses = 0, DATA misses = 0. Winner = INSTR
[DUEL] Epoch ended. INSTR misses = 0, DATA misses = 0. Winner = INSTR
Heartbeat CPU 0 instructions: 70000003 cycles: 14708338 heartbeat IPC: 4.064 cumulative IPC: 4.162 (Simulation time: 00 hr 02 min 48 sec)
[DUEL] Epoch ended. INSTR misses = 6, DATA misses = 8. Winner = INSTR
[DUEL] Epoch ended. INSTR misses = 2, DATA misses = 4. Winner = INSTR
[DUEL] Epoch ended. INSTR misses = 30, DATA misses = 29. Winner = DATA
[DUEL] Epoch ended. INSTR misses = 7, DATA misses = 8. Winner = INSTR
Heartbeat CPU 0 instructions: 80000010 cycles: 17130986 heartbeat IPC: 4.128 cumulative IPC: 4.155 (Simulation time: 00 hr 03 min 16 sec)
Heartbeat CPU 0 instructions: 90000006 cycles: 19096246 heartbeat IPC: 5.088 cumulative IPC: 4.286 (Simulation time: 00 hr 03 min 42 sec)
[DUEL] Epoch ended. INSTR misses = 0, DATA misses = 0. Winner = INSTR
[DUEL] Epoch ended. INSTR misses = 0, DATA misses = 0. Winner = INSTR
*** Reached end of trace: (0, "../traces/secret_traces/crypto/crypto13.champsimtrace.xz")
[DUEL] Epoch ended. INSTR misses = 8, DATA misses = 20. Winner = INSTR
[DUEL] Epoch ended. INSTR misses = 10, DATA misses = 3. Winner = DATA
[DUEL] Epoch ended. INSTR misses = 2, DATA misses = 0. Winner = DATA
[DUEL] Epoch ended. INSTR misses = 0, DATA misses = 0. Winner = INSTR
[DUEL] Epoch ended. INSTR misses = 1, DATA misses = 0. Winner = DATA
[DUEL] Epoch ended. INSTR misses = 0, DATA misses = 0. Winner = INSTR
[DUEL] Epoch ended. INSTR misses = 1, DATA misses = 0. Winner = DATA
[DUEL] Epoch ended. INSTR misses = 0, DATA misses = 0. Winner = INSTR
[DUEL] Epoch ended. INSTR misses = 0, DATA misses = 0. Winner = INSTR
[DUEL] Epoch ended. INSTR misses = 4, DATA misses = 6. Winner = INSTR
[DUEL] Epoch ended. INSTR misses = 3, DATA misses = 4. Winner = INSTR
[DUEL] Epoch ended. INSTR misses = 1, DATA misses = 5. Winner = INSTR
[DUEL] Epoch ended. INSTR misses = 0, DATA misses = 1. Winner = INSTR
[DUEL] Epoch ended. INSTR misses = 0, DATA misses = 0. Winner = INSTR
Heartbeat CPU 0 instructions: 100000005 cycles: 21518561 heartbeat IPC: 4.128 cumulative IPC: 4.263 (Simulation time: 00 hr 04 min 10 sec)
Heartbeat CPU 0 instructions: 110000000 cycles: 23483532 heartbeat IPC: 5.089 cumulative IPC: 4.351 (Simulation time: 00 hr 04 min 35 sec)
[DUEL] Epoch ended. INSTR misses = 6, DATA misses = 8. Winner = INSTR
[DUEL] Epoch ended. INSTR misses = 2, DATA misses = 3. Winner = INSTR
[DUEL] Epoch ended. INSTR misses = 27, DATA misses = 27. Winner = INSTR
[DUEL] Epoch ended. INSTR misses = 6, DATA misses = 7. Winner = INSTR
Heartbeat CPU 0 instructions: 120000005 cycles: 25859342 heartbeat IPC: 4.209 cumulative IPC: 4.335 (Simulation time: 00 hr 05 min 03 sec)
[DUEL] Epoch ended. INSTR misses = 0, DATA misses = 0. Winner = INSTR
[DUEL] Epoch ended. INSTR misses = 0, DATA misses = 0. Winner = INSTR
*** Reached end of trace: (0, "../traces/secret_traces/crypto/crypto13.champsimtrace.xz")
[DUEL] Epoch ended. INSTR misses = 5, DATA misses = 18. Winner = INSTR
[DUEL] Epoch ended. INSTR misses = 5, DATA misses = 2. Winner = DATA
[DUEL] Epoch ended. INSTR misses = 0, DATA misses = 0. Winner = INSTR
[DUEL] Epoch ended. INSTR misses = 0, DATA misses = 0. Winner = INSTR
[DUEL] Epoch ended. INSTR misses = 2, DATA misses = 0. Winner = DATA
[DUEL] Epoch ended. INSTR misses = 0, DATA misses = 0. Winner = INSTR
[DUEL] Epoch ended. INSTR misses = 2, DATA misses = 0. Winner = DATA
[DUEL] Epoch ended. INSTR misses = 0, DATA misses = 0. Winner = INSTR
[DUEL] Epoch ended. INSTR misses = 0, DATA misses = 0. Winner = INSTR
[DUEL] Epoch ended. INSTR misses = 7, DATA misses = 6. Winner = DATA
[DUEL] Epoch ended. INSTR misses = 3, DATA misses = 3. Winner = INSTR
[DUEL] Epoch ended. INSTR misses = 2, DATA misses = 5. Winner = INSTR
[DUEL] Epoch ended. INSTR misses = 0, DATA misses = 0. Winner = INSTR
[DUEL] Epoch ended. INSTR misses = 0, DATA misses = 0. Winner = INSTR
Heartbeat CPU 0 instructions: 130000001 cycles: 28264656 heartbeat IPC: 4.157 cumulative IPC: 4.317 (Simulation time: 00 hr 05 min 31 sec)
Simulation finished CPU 0 instructions: 100000003 cycles: 23166095 cumulative IPC: 4.317 (Simulation time: 00 hr 05 min 31 sec)
Simulation complete CPU 0 instructions: 100000003 cycles: 23166095 cumulative IPC: 4.317 (Simulation time: 00 hr 05 min 31 sec)

ChampSim completed all CPUs

=== Simulation ===
CPU 0 runs ../traces/secret_traces/crypto/crypto13.champsimtrace.xz
Region of Interest Statistics

CPU 0 cumulative IPC: 4.317 instructions: 100000003 cycles: 23166095
CPU 0 Branch Prediction Accuracy: 98.33% MPKI: 0.9524 Average ROB Occupancy at Mispredict: 33.1
Branch type MPKI
BRANCH_DIRECT_JUMP: 0.0529
BRANCH_INDIRECT: 0.488
BRANCH_CONDITIONAL: 0.151
BRANCH_DIRECT_CALL: 0.155
BRANCH_INDIRECT_CALL: 0.0205
BRANCH_RETURN: 0.0849

LLC TOTAL        ACCESS:     394121 HIT:     281694 MISS:     112427
LLC LOAD         ACCESS:      39273 HIT:      21480 MISS:      17793
LLC RFO          ACCESS:     117123 HIT:      88875 MISS:      28248
LLC PREFETCH     ACCESS:     101180 HIT:      56252 MISS:      44928
LLC WRITE        ACCESS:     134100 HIT:     114524 MISS:      19576
LLC TRANSLATION  ACCESS:       2445 HIT:        563 MISS:       1882
LLC PREFETCH REQUESTED:          0 ISSUED:          0 USEFUL:          0 USELESS:          0
LLC AVERAGE MISS LATENCY: 164.8 cycles
cpu0_DTLB TOTAL        ACCESS:   13130518 HIT:   13092373 MISS:      38145
cpu0_DTLB LOAD         ACCESS:   13130518 HIT:   13092373 MISS:      38145
cpu0_DTLB RFO          ACCESS:          0 HIT:          0 MISS:          0
cpu0_DTLB PREFETCH     ACCESS:          0 HIT:          0 MISS:          0
cpu0_DTLB WRITE        ACCESS:          0 HIT:          0 MISS:          0
cpu0_DTLB TRANSLATION  ACCESS:          0 HIT:          0 MISS:          0
cpu0_DTLB PREFETCH REQUESTED:          0 ISSUED:          0 USEFUL:          0 USELESS:          0
cpu0_DTLB AVERAGE MISS LATENCY: 10.72 cycles
cpu0_ITLB TOTAL        ACCESS:     677665 HIT:     663723 MISS:      13942
cpu0_ITLB LOAD         ACCESS:     677665 HIT:     663723 MISS:      13942
cpu0_ITLB RFO          ACCESS:          0 HIT:          0 MISS:          0
cpu0_ITLB PREFETCH     ACCESS:          0 HIT:          0 MISS:          0
cpu0_ITLB WRITE        ACCESS:          0 HIT:          0 MISS:          0
cpu0_ITLB TRANSLATION  ACCESS:          0 HIT:          0 MISS:          0
cpu0_ITLB PREFETCH REQUESTED:          0 ISSUED:          0 USEFUL:          0 USELESS:          0
cpu0_ITLB AVERAGE MISS LATENCY: 21.03 cycles
cpu0_L1D TOTAL        ACCESS:   27092111 HIT:   26513234 MISS:     578877
cpu0_L1D LOAD         ACCESS:    8441506 HIT:    8295818 MISS:     145688
cpu0_L1D RFO          ACCESS:          0 HIT:          0 MISS:          0
cpu0_L1D PREFETCH     ACCESS:   15539591 HIT:   15413217 MISS:     126374
cpu0_L1D WRITE        ACCESS:    3105984 HIT:    2802414 MISS:     303570
cpu0_L1D TRANSLATION  ACCESS:       5030 HIT:       1785 MISS:       3245
cpu0_L1D PREFETCH REQUESTED:   20761162 ISSUED:   15539591 USEFUL:      13806 USELESS:       1824
cpu0_L1D AVERAGE MISS LATENCY: 28.54 cycles
cpu0_L1I TOTAL        ACCESS:     987306 HIT:     826968 MISS:     160338
cpu0_L1I LOAD         ACCESS:     323687 HIT:     287618 MISS:      36069
cpu0_L1I RFO          ACCESS:          0 HIT:          0 MISS:          0
cpu0_L1I PREFETCH     ACCESS:     663619 HIT:     539350 MISS:     124269
cpu0_L1I WRITE        ACCESS:          0 HIT:          0 MISS:          0
cpu0_L1I TRANSLATION  ACCESS:          0 HIT:          0 MISS:          0
cpu0_L1I PREFETCH REQUESTED:    1007518 ISSUED:     663619 USEFUL:      69606 USELESS:      49160
cpu0_L1I AVERAGE MISS LATENCY: 31.1 cycles
cpu0_L2C TOTAL        ACCESS:     957894 HIT:     622372 MISS:     335522
cpu0_L2C LOAD         ACCESS:     116674 HIT:      69085 MISS:      47589
cpu0_L2C RFO          ACCESS:     127796 HIT:      10618 MISS:     117178
cpu0_L2C PREFETCH     ACCESS:     560459 HIT:     392149 MISS:     168310
cpu0_L2C WRITE        ACCESS:     149839 HIT:     149839 MISS:          0
cpu0_L2C TRANSLATION  ACCESS:       3126 HIT:        681 MISS:       2445
cpu0_L2C PREFETCH REQUESTED:     345797 ISSUED:     331336 USEFUL:      27390 USELESS:      22999
cpu0_L2C AVERAGE MISS LATENCY: 68.91 cycles
cpu0_STLB TOTAL        ACCESS:      23529 HIT:      18905 MISS:       4624
cpu0_STLB LOAD         ACCESS:      23529 HIT:      18905 MISS:       4624
cpu0_STLB RFO          ACCESS:          0 HIT:          0 MISS:          0
cpu0_STLB PREFETCH     ACCESS:          0 HIT:          0 MISS:          0
cpu0_STLB WRITE        ACCESS:          0 HIT:          0 MISS:          0
cpu0_STLB TRANSLATION  ACCESS:          0 HIT:          0 MISS:          0
cpu0_STLB PREFETCH REQUESTED:          0 ISSUED:          0 USEFUL:          0 USELESS:          0
cpu0_STLB AVERAGE MISS LATENCY: 131.1 cycles

DRAM Statistics

Channel 0 RQ ROW_BUFFER_HIT:      22268
  ROW_BUFFER_MISS:      25004
 AVG DBUS CONGESTED CYCLE: 3.903
WQ ROW_BUFFER_HIT: Channel 0 
  ROW_BUFFER_MISS:       2103
  FULL:      14518

Channel 1 RQ ROW_BUFFER_HIT:      20923
  ROW_BUFFER_MISS:      24638
 AVG DBUS CONGESTED CYCLE: 3.882
WQ ROW_BUFFER_HIT: Channel 1 
  ROW_BUFFER_MISS:       1908
  FULL:      13315
BERTI TO_L1: 19887145 TO_L2: 5475263 TO_L2_BC_MSHR: 1602309
BERTI AVG_LAT: 66.0122 NUM_TRACK_LATENCY: 141802 NUM_CANT_TRACK_LATENCY: 0
BERTI CROSS_PAGE 8814277 NO_CROSS_PAGE: 16548131
BERTI FOUND_BERTI: 3581091 NO_FOUND_BERTI: 7798081
BERTI AVERAGE_ISSUED: 11.5899
CPU 0 L1I Entangling prefetcher final stats
IP accesses: 6f71 1bdc40 1779 / 324131
IP misses: 25bf 96fc0 167 / 36513
IP hits: 0 0 0 / 0
IP late: 20a2 82880 47 / 18210
IP wrong: f7ed 3dfb40 111 / 48954
miss rate: 0.112649
coverage: 0
coverage_late: 0.498727
accuracy: 0
accuracy_late: 0.271128
discarded: 0
evicts entangled j table: 0
evicts entangled k table: 5912
max bb size: 53
formats: 1491 0 5280 2595 1093 2212 0 
hist_lookups: 4715 4932 3596 3220 2853 2420 1769 1317 1117 895 700 406 223 144 88 0 0 5415 
hist_lookups_evict: 0 %
hist_lookups_shortlat: 16.016 %
bb_found_hist: 0 80396 34052 16861 7659 3798 1714 1486 445 133 4 110 96 72 25 0 4 0 0 0 0 8 0 0 0 0 0 0 0 0 0 4 0 0 4 0 0 0 0 0 0 0 0 0 0 0 0 0 0 0 0 0 0 4 0 0 0 0 0 0 0 0 0 0 
bb_found_summary: 278544 146875 1.89647
entangled_found_hist: 0 44179 31974 56575 9745 1836 768 0 
entangled_found_summary: 330620 145077 2.27893
bb_ent_found_hist: 0 111374 48038 35078 13140 7416 3580 2041 1897 322 0 142 107 30 13 0 4 0 0 0 0 60 0 0 0 0 0 0 0 0 0 4 0 0 7 0 0 0 0 0 0 0 0 0 0 0 0 0 0 0 0 0 0 4 0 0 0 0 0 0 0 0 0 0 
bb_ent_found_summary: 461481 223257 2.06704
