WARNING: physical memory size is smaller than virtual memory size.

*** ChampSim Multicore Out-of-Order Simulator ***
Warmup Instructions: 30000000
Simulation Instructions: 100000000
Number of CPUs: 1
Page size: 4096

BTB:
Basic BTB sets: 1024 ways: 8
Indirect:
history lengths: 0 0 10 16 27 44 60 96 109 219 449 487 714 1313 2146 3881 
ITTAGE tables: 64768 bytes;Region table: 240 bytes;IUM: 384 bytes;Total Storage= 65392 bytes;
RAS:
RAS size: 64
[LLC] INSTR Demand IPV: 1 2 2 1 4 Prefetch IPV: 1 2 1 1 4
[LLC] DATA  Demand IPV: 1 1 1 2 4 Prefetch IPV: 1 1 2 2 4
Berti Prefetcher
CPU 0 Entangling prefetcher
Off-chip DRAM Size: 8 GiB Channels: 2 Width: 64-bit Data Race: 6400 MT/s
[DUEL] Epoch ended. INSTR misses = 33, DATA misses = 27. Winner = DATA
[DUEL] Epoch ended. INSTR misses = 26, DATA misses = 22. Winner = DATA
[DUEL] Epoch ended. INSTR misses = 0, DATA misses = 0. Winner = INSTR
[DUEL] Epoch ended. INSTR misses = 0, DATA misses = 0. Winner = INSTR
[DUEL] Epoch ended. INSTR misses = 0, DATA misses = 0. Winner = INSTR
[DUEL] Epoch ended. INSTR misses = 0, DATA misses = 0. Winner = INSTR
[DUEL] Epoch ended. INSTR misses = 16, DATA misses = 16. Winner = INSTR
[DUEL] Epoch ended. INSTR misses = 0, DATA misses = 0. Winner = INSTR
[DUEL] Epoch ended. INSTR misses = 1, DATA misses = 1. Winner = INSTR
[DUEL] Epoch ended. INSTR misses = 12, DATA misses = 7. Winner = DATA
[DUEL] Epoch ended. INSTR misses = 17, DATA misses = 21. Winner = INSTR
[DUEL] Epoch ended. INSTR misses = 0, DATA misses = 0. Winner = INSTR
[DUEL] Epoch ended. INSTR misses = 3, DATA misses = 0. Winner = DATA
[DUEL] Epoch ended. INSTR misses = 0, DATA misses = 0. Winner = INSTR
[DUEL] Epoch ended. INSTR misses = 0, DATA misses = 0. Winner = INSTR
Heartbeat CPU 0 instructions: 10000001 cycles: 1716072 heartbeat IPC: 5.827 cumulative IPC: 5.827 (Simulation time: 00 hr 00 min 20 sec)
[DUEL] Epoch ended. INSTR misses = 26, DATA misses = 28. Winner = INSTR
[DUEL] Epoch ended. INSTR misses = 27, DATA misses = 28. Winner = INSTR
[DUEL] Epoch ended. INSTR misses = 112, DATA misses = 105. Winner = DATA
[DUEL] Epoch ended. INSTR misses = 46, DATA misses = 55. Winner = INSTR
[DUEL] Epoch ended. INSTR misses = 0, DATA misses = 0. Winner = INSTR
[DUEL] Epoch ended. INSTR misses = 0, DATA misses = 0. Winner = INSTR
Heartbeat CPU 0 instructions: 20000000 cycles: 3433246 heartbeat IPC: 5.824 cumulative IPC: 5.825 (Simulation time: 00 hr 00 min 39 sec)
[DUEL] Epoch ended. INSTR misses = 0, DATA misses = 0. Winner = INSTR
Heartbeat CPU 0 instructions: 30000001 cycles: 5100976 heartbeat IPC: 5.996 cumulative IPC: 5.881 (Simulation time: 00 hr 00 min 57 sec)
Warmup finished CPU 0 instructions: 30000001 cycles: 5100977 cumulative IPC: 5.881 (Simulation time: 00 hr 00 min 57 sec)
Warmup complete CPU 0 instructions: 30000001 cycles: 5100977 cumulative IPC: 5.881 (Simulation time: 00 hr 00 min 57 sec)
[DUEL] Epoch ended. INSTR misses = 3, DATA misses = 2. Winner = DATA
Heartbeat CPU 0 instructions: 40000003 cycles: 6769931 heartbeat IPC: 5.992 cumulative IPC: 5.992 (Simulation time: 00 hr 01 min 18 sec)
[DUEL] Epoch ended. INSTR misses = 0, DATA misses = 0. Winner = INSTR
[DUEL] Epoch ended. INSTR misses = 2, DATA misses = 0. Winner = DATA
Heartbeat CPU 0 instructions: 50000009 cycles: 8439453 heartbeat IPC: 5.99 cumulative IPC: 5.991 (Simulation time: 00 hr 01 min 38 sec)
[DUEL] Epoch ended. INSTR misses = 0, DATA misses = 0. Winner = INSTR
Heartbeat CPU 0 instructions: 60000005 cycles: 10115057 heartbeat IPC: 5.968 cumulative IPC: 5.983 (Simulation time: 00 hr 01 min 58 sec)
Heartbeat CPU 0 instructions: 70000001 cycles: 11782958 heartbeat IPC: 5.996 cumulative IPC: 5.986 (Simulation time: 00 hr 02 min 19 sec)
[DUEL] Epoch ended. INSTR misses = 1, DATA misses = 0. Winner = DATA
Heartbeat CPU 0 instructions: 80000003 cycles: 13451127 heartbeat IPC: 5.995 cumulative IPC: 5.988 (Simulation time: 00 hr 02 min 39 sec)
Heartbeat CPU 0 instructions: 90000002 cycles: 15119116 heartbeat IPC: 5.995 cumulative IPC: 5.989 (Simulation time: 00 hr 03 min 00 sec)
[DUEL] Epoch ended. INSTR misses = 0, DATA misses = 0. Winner = INSTR
Heartbeat CPU 0 instructions: 100000006 cycles: 16787034 heartbeat IPC: 5.996 cumulative IPC: 5.99 (Simulation time: 00 hr 03 min 20 sec)
Heartbeat CPU 0 instructions: 110000002 cycles: 18455011 heartbeat IPC: 5.995 cumulative IPC: 5.991 (Simulation time: 00 hr 03 min 41 sec)
Heartbeat CPU 0 instructions: 120000000 cycles: 20122977 heartbeat IPC: 5.995 cumulative IPC: 5.991 (Simulation time: 00 hr 04 min 01 sec)
[DUEL] Epoch ended. INSTR misses = 0, DATA misses = 0. Winner = INSTR
*** Reached end of trace: (0, "../traces/secret_traces/crypto/crypto85.champsimtrace.xz")
[DUEL] Epoch ended. INSTR misses = 18, DATA misses = 18. Winner = INSTR
[DUEL] Epoch ended. INSTR misses = 10, DATA misses = 15. Winner = INSTR
[DUEL] Epoch ended. INSTR misses = 1, DATA misses = 1. Winner = INSTR
[DUEL] Epoch ended. INSTR misses = 0, DATA misses = 0. Winner = INSTR
[DUEL] Epoch ended. INSTR misses = 0, DATA misses = 0. Winner = INSTR
Heartbeat CPU 0 instructions: 130000002 cycles: 22233169 heartbeat IPC: 4.739 cumulative IPC: 5.837 (Simulation time: 00 hr 04 min 25 sec)
Simulation finished CPU 0 instructions: 100000001 cycles: 17132193 cumulative IPC: 5.837 (Simulation time: 00 hr 04 min 25 sec)
Simulation complete CPU 0 instructions: 100000001 cycles: 17132193 cumulative IPC: 5.837 (Simulation time: 00 hr 04 min 25 sec)

ChampSim completed all CPUs

=== Simulation ===
CPU 0 runs ../traces/secret_traces/crypto/crypto85.champsimtrace.xz
Region of Interest Statistics

CPU 0 cumulative IPC: 5.837 instructions: 100000001 cycles: 17132193
CPU 0 Branch Prediction Accuracy: 97.98% MPKI: 0.1201 Average ROB Occupancy at Mispredict: 25.46
Branch type MPKI
BRANCH_DIRECT_JUMP: 0.00573
BRANCH_INDIRECT: 0.0543
BRANCH_CONDITIONAL: 0.0342
BRANCH_DIRECT_CALL: 0.0159
BRANCH_INDIRECT_CALL: 0.00168
BRANCH_RETURN: 0.00832

LLC TOTAL        ACCESS:      26449 HIT:      16614 MISS:       9835
LLC LOAD         ACCESS:       2658 HIT:       1400 MISS:       1258
LLC RFO          ACCESS:       5835 HIT:       3772 MISS:       2063
LLC PREFETCH     ACCESS:       7678 HIT:       3994 MISS:       3684
LLC WRITE        ACCESS:      10050 HIT:       7413 MISS:       2637
LLC TRANSLATION  ACCESS:        228 HIT:         35 MISS:        193
LLC PREFETCH REQUESTED:          0 ISSUED:          0 USEFUL:          0 USELESS:          0
LLC AVERAGE MISS LATENCY: 140 cycles
cpu0_DTLB TOTAL        ACCESS:    8271462 HIT:    8268790 MISS:       2672
cpu0_DTLB LOAD         ACCESS:    8271462 HIT:    8268790 MISS:       2672
cpu0_DTLB RFO          ACCESS:          0 HIT:          0 MISS:          0
cpu0_DTLB PREFETCH     ACCESS:          0 HIT:          0 MISS:          0
cpu0_DTLB WRITE        ACCESS:          0 HIT:          0 MISS:          0
cpu0_DTLB TRANSLATION  ACCESS:          0 HIT:          0 MISS:          0
cpu0_DTLB PREFETCH REQUESTED:          0 ISSUED:          0 USEFUL:          0 USELESS:          0
cpu0_DTLB AVERAGE MISS LATENCY: 15.53 cycles
cpu0_ITLB TOTAL        ACCESS:     250314 HIT:     248629 MISS:       1685
cpu0_ITLB LOAD         ACCESS:     250314 HIT:     248629 MISS:       1685
cpu0_ITLB RFO          ACCESS:          0 HIT:          0 MISS:          0
cpu0_ITLB PREFETCH     ACCESS:          0 HIT:          0 MISS:          0
cpu0_ITLB WRITE        ACCESS:          0 HIT:          0 MISS:          0
cpu0_ITLB TRANSLATION  ACCESS:          0 HIT:          0 MISS:          0
cpu0_ITLB PREFETCH REQUESTED:          0 ISSUED:          0 USEFUL:          0 USELESS:          0
cpu0_ITLB AVERAGE MISS LATENCY: 21.18 cycles
cpu0_L1D TOTAL        ACCESS:    8774662 HIT:    8731116 MISS:      43546
cpu0_L1D LOAD         ACCESS:    5343334 HIT:    5336055 MISS:       7279
cpu0_L1D RFO          ACCESS:          0 HIT:          0 MISS:          0
cpu0_L1D PREFETCH     ACCESS:     244110 HIT:     222693 MISS:      21417
cpu0_L1D WRITE        ACCESS:    3186854 HIT:    3172283 MISS:      14571
cpu0_L1D TRANSLATION  ACCESS:        364 HIT:         85 MISS:        279
cpu0_L1D PREFETCH REQUESTED:     348438 ISSUED:     244110 USEFUL:        602 USELESS:        136
cpu0_L1D AVERAGE MISS LATENCY: 22.74 cycles
cpu0_L1I TOTAL        ACCESS:     367645 HIT:     346927 MISS:      20718
cpu0_L1I LOAD         ACCESS:     147550 HIT:     140503 MISS:       7047
cpu0_L1I RFO          ACCESS:          0 HIT:          0 MISS:          0
cpu0_L1I PREFETCH     ACCESS:     220095 HIT:     206424 MISS:      13671
cpu0_L1I WRITE        ACCESS:          0 HIT:          0 MISS:          0
cpu0_L1I TRANSLATION  ACCESS:          0 HIT:          0 MISS:          0
cpu0_L1I PREFETCH REQUESTED:     623338 ISSUED:     220095 USEFUL:       6943 USELESS:       5710
cpu0_L1I AVERAGE MISS LATENCY: 23.3 cycles
cpu0_L2C TOTAL        ACCESS:     100380 HIT:      79850 MISS:      20530
cpu0_L2C LOAD         ACCESS:      10020 HIT:       6896 MISS:       3124
cpu0_L2C RFO          ACCESS:       6449 HIT:        611 MISS:       5838
cpu0_L2C PREFETCH     ACCESS:      76409 HIT:      65069 MISS:      11340
cpu0_L2C WRITE        ACCESS:       7224 HIT:       7224 MISS:          0
cpu0_L2C TRANSLATION  ACCESS:        278 HIT:         50 MISS:        228
cpu0_L2C PREFETCH REQUESTED:      43449 ISSUED:      42980 USEFUL:       2079 USELESS:        887
cpu0_L2C AVERAGE MISS LATENCY: 80.31 cycles
cpu0_STLB TOTAL        ACCESS:       2303 HIT:       1971 MISS:        332
cpu0_STLB LOAD         ACCESS:       2303 HIT:       1971 MISS:        332
cpu0_STLB RFO          ACCESS:          0 HIT:          0 MISS:          0
cpu0_STLB PREFETCH     ACCESS:          0 HIT:          0 MISS:          0
cpu0_STLB WRITE        ACCESS:          0 HIT:          0 MISS:          0
cpu0_STLB TRANSLATION  ACCESS:          0 HIT:          0 MISS:          0
cpu0_STLB PREFETCH REQUESTED:          0 ISSUED:          0 USEFUL:          0 USELESS:          0
cpu0_STLB AVERAGE MISS LATENCY: 198.5 cycles

DRAM Statistics

Channel 0 RQ ROW_BUFFER_HIT:       1402
  ROW_BUFFER_MISS:       2228
 AVG DBUS CONGESTED CYCLE: 3.881
WQ ROW_BUFFER_HIT: Channel 0 
  ROW_BUFFER_MISS:        272
  FULL:       1227

Channel 1 RQ ROW_BUFFER_HIT:       1365
  ROW_BUFFER_MISS:       2203
 AVG DBUS CONGESTED CYCLE: 3.873
WQ ROW_BUFFER_HIT: Channel 1 
  ROW_BUFFER_MISS:        296
  FULL:       1148
BERTI TO_L1: 652585 TO_L2: 387394 TO_L2_BC_MSHR: 79033
BERTI AVG_LAT: 30.309 NUM_TRACK_LATENCY: 38057 NUM_CANT_TRACK_LATENCY: 0
BERTI CROSS_PAGE 296937 NO_CROSS_PAGE: 743042
BERTI FOUND_BERTI: 486638 NO_FOUND_BERTI: 7184848
BERTI AVERAGE_ISSUED: 5.7873
CPU 0 L1I Entangling prefetcher final stats
IP accesses: 1f31 7cc40 5826 / 147553
IP misses: f9ad 3e6b40 43 / 7050
IP hits: 0 0 0 / 0
IP late: f9b1 3e6c40 12 / 3068
IP wrong: 7cde 1f3780 17 / 5674
miss rate: 0.0477795
coverage: 0
coverage_late: 0.435178
accuracy: 0
accuracy_late: 0.35095
discarded: 0
evicts entangled j table: 0
evicts entangled k table: 1002
max bb size: 56
formats: 279 0 849 426 224 484 0 
hist_lookups: 1027 934 632 596 514 385 303 219 161 159 130 99 52 23 8 0 0 2745 
hist_lookups_evict: 0 %
hist_lookups_shortlat: 34.3684 %
bb_found_hist: 0 30828 8022 9063 2116 756 136 112 41 13 743 18 5 0 621 322 212 0 0 0 318 1 255 433 0 120 0 153 0 0 1 0 368 0 0 0 0 0 0 0 0 0 0 0 0 0 0 0 0 0 0 0 0 328 0 0 328 0 0 0 0 0 0 0 
bb_found_summary: 189593 55313 3.42764
entangled_found_hist: 0 11081 10086 24666 2945 1506 232 0 
entangled_found_summary: 125953 50516 2.49333
bb_ent_found_hist: 0 49314 8842 13051 4137 1340 386 101 150 6 632 28 7 0 0 7 192 0 0 0 8 3 8 826 0 0 0 0 0 0 0 0 0 0 0 0 0 0 0 0 0 0 0 0 0 0 0 0 0 0 0 0 0 1238 0 0 1582 0 0 0 0 0 0 0 
bb_ent_found_summary: 317168 81858 3.87462
