WARNING: physical memory size is smaller than virtual memory size.

*** ChampSim Multicore Out-of-Order Simulator ***
Warmup Instructions: 30000000
Simulation Instructions: 100000000
Number of CPUs: 1
Page size: 4096

BTB:
Basic BTB sets: 1024 ways: 8
Indirect:
history lengths: 0 0 10 16 27 44 60 96 109 219 449 487 714 1313 2146 3881 
ITTAGE tables: 64768 bytes;Region table: 240 bytes;IUM: 384 bytes;Total Storage= 65392 bytes;
RAS:
RAS size: 64
[LLC] INSTR Demand IPV: 1 2 2 1 4 Prefetch IPV: 1 2 1 1 4
[LLC] DATA  Demand IPV: 1 1 1 2 4 Prefetch IPV: 1 1 2 2 4
Berti Prefetcher
CPU 0 Entangling prefetcher
Off-chip DRAM Size: 8 GiB Channels: 2 Width: 64-bit Data Race: 6400 MT/s
[DUEL] Epoch ended. INSTR misses = 36, DATA misses = 40. Winner = INSTR
[DUEL] Epoch ended. INSTR misses = 16, DATA misses = 16. Winner = INSTR
[DUEL] Epoch ended. INSTR misses = 1, DATA misses = 0. Winner = DATA
[DUEL] Epoch ended. INSTR misses = 0, DATA misses = 0. Winner = INSTR
[DUEL] Epoch ended. INSTR misses = 0, DATA misses = 0. Winner = INSTR
[DUEL] Epoch ended. INSTR misses = 0, DATA misses = 0. Winner = INSTR
[DUEL] Epoch ended. INSTR misses = 0, DATA misses = 1. Winner = INSTR
[DUEL] Epoch ended. INSTR misses = 0, DATA misses = 0. Winner = INSTR
[DUEL] Epoch ended. INSTR misses = 0, DATA misses = 0. Winner = INSTR
[DUEL] Epoch ended. INSTR misses = 3, DATA misses = 3. Winner = INSTR
[DUEL] Epoch ended. INSTR misses = 16, DATA misses = 16. Winner = INSTR
[DUEL] Epoch ended. INSTR misses = 0, DATA misses = 0. Winner = INSTR
[DUEL] Epoch ended. INSTR misses = 16, DATA misses = 16. Winner = INSTR
Heartbeat CPU 0 instructions: 10000000 cycles: 1715391 heartbeat IPC: 5.83 cumulative IPC: 5.83 (Simulation time: 00 hr 00 min 21 sec)
[DUEL] Epoch ended. INSTR misses = 12, DATA misses = 4. Winner = DATA
*** Reached end of trace: (0, "../traces/secret_traces/crypto/crypto79.champsimtrace.xz")
[DUEL] Epoch ended. INSTR misses = 0, DATA misses = 6. Winner = INSTR
[DUEL] Epoch ended. INSTR misses = 2, DATA misses = 2. Winner = INSTR
[DUEL] Epoch ended. INSTR misses = 0, DATA misses = 0. Winner = INSTR
[DUEL] Epoch ended. INSTR misses = 1, DATA misses = 0. Winner = DATA
[DUEL] Epoch ended. INSTR misses = 0, DATA misses = 0. Winner = INSTR
[DUEL] Epoch ended. INSTR misses = 0, DATA misses = 0. Winner = INSTR
[DUEL] Epoch ended. INSTR misses = 0, DATA misses = 0. Winner = INSTR
[DUEL] Epoch ended. INSTR misses = 0, DATA misses = 0. Winner = INSTR
[DUEL] Epoch ended. INSTR misses = 0, DATA misses = 0. Winner = INSTR
[DUEL] Epoch ended. INSTR misses = 0, DATA misses = 1. Winner = INSTR
[DUEL] Epoch ended. INSTR misses = 0, DATA misses = 0. Winner = INSTR
[DUEL] Epoch ended. INSTR misses = 0, DATA misses = 0. Winner = INSTR
Heartbeat CPU 0 instructions: 20000004 cycles: 3430281 heartbeat IPC: 5.831 cumulative IPC: 5.83 (Simulation time: 00 hr 00 min 42 sec)
[DUEL] Epoch ended. INSTR misses = 0, DATA misses = 0. Winner = INSTR
Heartbeat CPU 0 instructions: 30000005 cycles: 5101281 heartbeat IPC: 5.984 cumulative IPC: 5.881 (Simulation time: 00 hr 01 min 02 sec)
Warmup finished CPU 0 instructions: 30000005 cycles: 5101282 cumulative IPC: 5.881 (Simulation time: 00 hr 01 min 02 sec)
Warmup complete CPU 0 instructions: 30000005 cycles: 5101282 cumulative IPC: 5.881 (Simulation time: 00 hr 01 min 02 sec)
[DUEL] Epoch ended. INSTR misses = 0, DATA misses = 0. Winner = INSTR
*** Reached end of trace: (0, "../traces/secret_traces/crypto/crypto79.champsimtrace.xz")
[DUEL] Epoch ended. INSTR misses = 0, DATA misses = 1. Winner = INSTR
[DUEL] Epoch ended. INSTR misses = 0, DATA misses = 0. Winner = INSTR
[DUEL] Epoch ended. INSTR misses = 0, DATA misses = 0. Winner = INSTR
[DUEL] Epoch ended. INSTR misses = 0, DATA misses = 0. Winner = INSTR
[DUEL] Epoch ended. INSTR misses = 0, DATA misses = 0. Winner = INSTR
[DUEL] Epoch ended. INSTR misses = 0, DATA misses = 0. Winner = INSTR
[DUEL] Epoch ended. INSTR misses = 0, DATA misses = 0. Winner = INSTR
[DUEL] Epoch ended. INSTR misses = 0, DATA misses = 0. Winner = INSTR
[DUEL] Epoch ended. INSTR misses = 0, DATA misses = 0. Winner = INSTR
[DUEL] Epoch ended. INSTR misses = 0, DATA misses = 0. Winner = INSTR
[DUEL] Epoch ended. INSTR misses = 0, DATA misses = 0. Winner = INSTR
[DUEL] Epoch ended. INSTR misses = 0, DATA misses = 2. Winner = INSTR
[DUEL] Epoch ended. INSTR misses = 0, DATA misses = 0. Winner = INSTR
Heartbeat CPU 0 instructions: 40000001 cycles: 7162217 heartbeat IPC: 4.852 cumulative IPC: 4.852 (Simulation time: 00 hr 01 min 27 sec)
Heartbeat CPU 0 instructions: 50000010 cycles: 8837926 heartbeat IPC: 5.968 cumulative IPC: 5.352 (Simulation time: 00 hr 01 min 48 sec)
[DUEL] Epoch ended. INSTR misses = 1, DATA misses = 3. Winner = INSTR
*** Reached end of trace: (0, "../traces/secret_traces/crypto/crypto79.champsimtrace.xz")
[DUEL] Epoch ended. INSTR misses = 2, DATA misses = 0. Winner = DATA
[DUEL] Epoch ended. INSTR misses = 0, DATA misses = 0. Winner = INSTR
[DUEL] Epoch ended. INSTR misses = 0, DATA misses = 0. Winner = INSTR
[DUEL] Epoch ended. INSTR misses = 0, DATA misses = 0. Winner = INSTR
[DUEL] Epoch ended. INSTR misses = 0, DATA misses = 0. Winner = INSTR
[DUEL] Epoch ended. INSTR misses = 0, DATA misses = 0. Winner = INSTR
[DUEL] Epoch ended. INSTR misses = 0, DATA misses = 0. Winner = INSTR
[DUEL] Epoch ended. INSTR misses = 0, DATA misses = 0. Winner = INSTR
[DUEL] Epoch ended. INSTR misses = 0, DATA misses = 0. Winner = INSTR
[DUEL] Epoch ended. INSTR misses = 0, DATA misses = 0. Winner = INSTR
[DUEL] Epoch ended. INSTR misses = 0, DATA misses = 0. Winner = INSTR
[DUEL] Epoch ended. INSTR misses = 0, DATA misses = 0. Winner = INSTR
[DUEL] Epoch ended. INSTR misses = 0, DATA misses = 0. Winner = INSTR
Heartbeat CPU 0 instructions: 60000005 cycles: 10871203 heartbeat IPC: 4.918 cumulative IPC: 5.199 (Simulation time: 00 hr 02 min 13 sec)
[DUEL] Epoch ended. INSTR misses = 0, DATA misses = 0. Winner = INSTR
*** Reached end of trace: (0, "../traces/secret_traces/crypto/crypto79.champsimtrace.xz")
[DUEL] Epoch ended. INSTR misses = 0, DATA misses = 0. Winner = INSTR
[DUEL] Epoch ended. INSTR misses = 0, DATA misses = 0. Winner = INSTR
[DUEL] Epoch ended. INSTR misses = 0, DATA misses = 0. Winner = INSTR
[DUEL] Epoch ended. INSTR misses = 0, DATA misses = 0. Winner = INSTR
[DUEL] Epoch ended. INSTR misses = 0, DATA misses = 0. Winner = INSTR
[DUEL] Epoch ended. INSTR misses = 0, DATA misses = 0. Winner = INSTR
[DUEL] Epoch ended. INSTR misses = 0, DATA misses = 0. Winner = INSTR
Heartbeat CPU 0 instructions: 70000001 cycles: 12748445 heartbeat IPC: 5.327 cumulative IPC: 5.231 (Simulation time: 00 hr 02 min 36 sec)
[DUEL] Epoch ended. INSTR misses = 0, DATA misses = 0. Winner = INSTR
[DUEL] Epoch ended. INSTR misses = 0, DATA misses = 0. Winner = INSTR
[DUEL] Epoch ended. INSTR misses = 0, DATA misses = 0. Winner = INSTR
[DUEL] Epoch ended. INSTR misses = 0, DATA misses = 0. Winner = INSTR
[DUEL] Epoch ended. INSTR misses = 0, DATA misses = 0. Winner = INSTR
[DUEL] Epoch ended. INSTR misses = 0, DATA misses = 0. Winner = INSTR
Heartbeat CPU 0 instructions: 80000006 cycles: 14555965 heartbeat IPC: 5.532 cumulative IPC: 5.288 (Simulation time: 00 hr 02 min 59 sec)
[DUEL] Epoch ended. INSTR misses = 0, DATA misses = 6. Winner = INSTR
*** Reached end of trace: (0, "../traces/secret_traces/crypto/crypto79.champsimtrace.xz")
[DUEL] Epoch ended. INSTR misses = 0, DATA misses = 0. Winner = INSTR
[DUEL] Epoch ended. INSTR misses = 0, DATA misses = 0. Winner = INSTR
[DUEL] Epoch ended. INSTR misses = 0, DATA misses = 0. Winner = INSTR
[DUEL] Epoch ended. INSTR misses = 0, DATA misses = 0. Winner = INSTR
[DUEL] Epoch ended. INSTR misses = 0, DATA misses = 0. Winner = INSTR
[DUEL] Epoch ended. INSTR misses = 0, DATA misses = 0. Winner = INSTR
[DUEL] Epoch ended. INSTR misses = 0, DATA misses = 0. Winner = INSTR
[DUEL] Epoch ended. INSTR misses = 0, DATA misses = 0. Winner = INSTR
[DUEL] Epoch ended. INSTR misses = 0, DATA misses = 0. Winner = INSTR
[DUEL] Epoch ended. INSTR misses = 0, DATA misses = 0. Winner = INSTR
[DUEL] Epoch ended. INSTR misses = 0, DATA misses = 0. Winner = INSTR
[DUEL] Epoch ended. INSTR misses = 0, DATA misses = 0. Winner = INSTR
Heartbeat CPU 0 instructions: 90000011 cycles: 16546828 heartbeat IPC: 5.023 cumulative IPC: 5.242 (Simulation time: 00 hr 03 min 24 sec)
[DUEL] Epoch ended. INSTR misses = 0, DATA misses = 0. Winner = INSTR
Heartbeat CPU 0 instructions: 100000006 cycles: 18235564 heartbeat IPC: 5.922 cumulative IPC: 5.33 (Simulation time: 00 hr 03 min 45 sec)
[DUEL] Epoch ended. INSTR misses = 0, DATA misses = 0. Winner = INSTR
*** Reached end of trace: (0, "../traces/secret_traces/crypto/crypto79.champsimtrace.xz")
[DUEL] Epoch ended. INSTR misses = 0, DATA misses = 0. Winner = INSTR
[DUEL] Epoch ended. INSTR misses = 0, DATA misses = 0. Winner = INSTR
[DUEL] Epoch ended. INSTR misses = 0, DATA misses = 0. Winner = INSTR
[DUEL] Epoch ended. INSTR misses = 0, DATA misses = 0. Winner = INSTR
[DUEL] Epoch ended. INSTR misses = 0, DATA misses = 0. Winner = INSTR
[DUEL] Epoch ended. INSTR misses = 0, DATA misses = 0. Winner = INSTR
[DUEL] Epoch ended. INSTR misses = 0, DATA misses = 0. Winner = INSTR
[DUEL] Epoch ended. INSTR misses = 0, DATA misses = 0. Winner = INSTR
[DUEL] Epoch ended. INSTR misses = 0, DATA misses = 0. Winner = INSTR
[DUEL] Epoch ended. INSTR misses = 0, DATA misses = 0. Winner = INSTR
[DUEL] Epoch ended. INSTR misses = 0, DATA misses = 0. Winner = INSTR
[DUEL] Epoch ended. INSTR misses = 0, DATA misses = 0. Winner = INSTR
[DUEL] Epoch ended. INSTR misses = 0, DATA misses = 0. Winner = INSTR
Heartbeat CPU 0 instructions: 110000000 cycles: 20246343 heartbeat IPC: 4.973 cumulative IPC: 5.282 (Simulation time: 00 hr 04 min 10 sec)
[DUEL] Epoch ended. INSTR misses = 0, DATA misses = 0. Winner = INSTR
*** Reached end of trace: (0, "../traces/secret_traces/crypto/crypto79.champsimtrace.xz")
[DUEL] Epoch ended. INSTR misses = 0, DATA misses = 0. Winner = INSTR
[DUEL] Epoch ended. INSTR misses = 0, DATA misses = 0. Winner = INSTR
[DUEL] Epoch ended. INSTR misses = 0, DATA misses = 0. Winner = INSTR
Heartbeat CPU 0 instructions: 120000007 cycles: 22070454 heartbeat IPC: 5.482 cumulative IPC: 5.304 (Simulation time: 00 hr 04 min 32 sec)
[DUEL] Epoch ended. INSTR misses = 0, DATA misses = 0. Winner = INSTR
[DUEL] Epoch ended. INSTR misses = 0, DATA misses = 0. Winner = INSTR
[DUEL] Epoch ended. INSTR misses = 0, DATA misses = 0. Winner = INSTR
[DUEL] Epoch ended. INSTR misses = 0, DATA misses = 0. Winner = INSTR
[DUEL] Epoch ended. INSTR misses = 0, DATA misses = 0. Winner = INSTR
[DUEL] Epoch ended. INSTR misses = 0, DATA misses = 0. Winner = INSTR
[DUEL] Epoch ended. INSTR misses = 0, DATA misses = 0. Winner = INSTR
[DUEL] Epoch ended. INSTR misses = 0, DATA misses = 0. Winner = INSTR
[DUEL] Epoch ended. INSTR misses = 0, DATA misses = 0. Winner = INSTR
[DUEL] Epoch ended. INSTR misses = 0, DATA misses = 0. Winner = INSTR
Heartbeat CPU 0 instructions: 130000006 cycles: 23921640 heartbeat IPC: 5.402 cumulative IPC: 5.313 (Simulation time: 00 hr 04 min 56 sec)
Simulation finished CPU 0 instructions: 100000001 cycles: 18820359 cumulative IPC: 5.313 (Simulation time: 00 hr 04 min 56 sec)
Simulation complete CPU 0 instructions: 100000001 cycles: 18820359 cumulative IPC: 5.313 (Simulation time: 00 hr 04 min 56 sec)

ChampSim completed all CPUs

=== Simulation ===
CPU 0 runs ../traces/secret_traces/crypto/crypto79.champsimtrace.xz
Region of Interest Statistics

CPU 0 cumulative IPC: 5.313 instructions: 100000001 cycles: 18820359
CPU 0 Branch Prediction Accuracy: 98.59% MPKI: 0.8689 Average ROB Occupancy at Mispredict: 28.15
Branch type MPKI
BRANCH_DIRECT_JUMP: 0.0458
BRANCH_INDIRECT: 0.492
BRANCH_CONDITIONAL: 0.089
BRANCH_DIRECT_CALL: 0.144
BRANCH_INDIRECT_CALL: 0.0202
BRANCH_RETURN: 0.0775

LLC TOTAL        ACCESS:     206738 HIT:     205012 MISS:       1726
LLC LOAD         ACCESS:      25916 HIT:      25877 MISS:         39
LLC RFO          ACCESS:      57124 HIT:      57112 MISS:         12
LLC PREFETCH     ACCESS:      58105 HIT:      56561 MISS:       1544
LLC WRITE        ACCESS:      64810 HIT:      64797 MISS:         13
LLC TRANSLATION  ACCESS:        783 HIT:        665 MISS:        118
LLC PREFETCH REQUESTED:          0 ISSUED:          0 USEFUL:          0 USELESS:          0
LLC AVERAGE MISS LATENCY: 157.5 cycles
cpu0_DTLB TOTAL        ACCESS:   14247183 HIT:   14224904 MISS:      22279
cpu0_DTLB LOAD         ACCESS:   14247183 HIT:   14224904 MISS:      22279
cpu0_DTLB RFO          ACCESS:          0 HIT:          0 MISS:          0
cpu0_DTLB PREFETCH     ACCESS:          0 HIT:          0 MISS:          0
cpu0_DTLB WRITE        ACCESS:          0 HIT:          0 MISS:          0
cpu0_DTLB TRANSLATION  ACCESS:          0 HIT:          0 MISS:          0
cpu0_DTLB PREFETCH REQUESTED:          0 ISSUED:          0 USEFUL:          0 USELESS:          0
cpu0_DTLB AVERAGE MISS LATENCY: 5.123 cycles
cpu0_ITLB TOTAL        ACCESS:     606958 HIT:     595152 MISS:      11806
cpu0_ITLB LOAD         ACCESS:     606958 HIT:     595152 MISS:      11806
cpu0_ITLB RFO          ACCESS:          0 HIT:          0 MISS:          0
cpu0_ITLB PREFETCH     ACCESS:          0 HIT:          0 MISS:          0
cpu0_ITLB WRITE        ACCESS:          0 HIT:          0 MISS:          0
cpu0_ITLB TRANSLATION  ACCESS:          0 HIT:          0 MISS:          0
cpu0_ITLB PREFETCH REQUESTED:          0 ISSUED:          0 USEFUL:          0 USELESS:          0
cpu0_ITLB AVERAGE MISS LATENCY: 7.566 cycles
cpu0_L1D TOTAL        ACCESS:   24382808 HIT:   23877625 MISS:     505183
cpu0_L1D LOAD         ACCESS:    9978592 HIT:    9879260 MISS:      99332
cpu0_L1D RFO          ACCESS:          0 HIT:          0 MISS:          0
cpu0_L1D PREFETCH     ACCESS:    9859663 HIT:    9590065 MISS:     269598
cpu0_L1D WRITE        ACCESS:    4542410 HIT:    4407291 MISS:     135119
cpu0_L1D TRANSLATION  ACCESS:       2143 HIT:       1009 MISS:       1134
cpu0_L1D PREFETCH REQUESTED:   11161749 ISSUED:    9859663 USEFUL:       6594 USELESS:       1677
cpu0_L1D AVERAGE MISS LATENCY: 6.723 cycles
cpu0_L1I TOTAL        ACCESS:     878196 HIT:     759150 MISS:     119046
cpu0_L1I LOAD         ACCESS:     289082 HIT:     266523 MISS:      22559
cpu0_L1I RFO          ACCESS:          0 HIT:          0 MISS:          0
cpu0_L1I PREFETCH     ACCESS:     589114 HIT:     492627 MISS:      96487
cpu0_L1I WRITE        ACCESS:          0 HIT:          0 MISS:          0
cpu0_L1I TRANSLATION  ACCESS:          0 HIT:          0 MISS:          0
cpu0_L1I PREFETCH REQUESTED:     853983 ISSUED:     589114 USEFUL:      60114 USELESS:      33079
cpu0_L1I AVERAGE MISS LATENCY: 15.74 cycles
cpu0_L2C TOTAL        ACCESS:    1013968 HIT:     849150 MISS:     164818
cpu0_L2C LOAD         ACCESS:      80422 HIT:      54033 MISS:      26389
cpu0_L2C RFO          ACCESS:      68747 HIT:      11599 MISS:      57148
cpu0_L2C PREFETCH     ACCESS:     777635 HIT:     697137 MISS:      80498
cpu0_L2C WRITE        ACCESS:      86110 HIT:      86110 MISS:          0
cpu0_L2C TRANSLATION  ACCESS:       1054 HIT:        271 MISS:        783
cpu0_L2C PREFETCH REQUESTED:     436438 ISSUED:     421619 USEFUL:      11628 USELESS:      17567
cpu0_L2C AVERAGE MISS LATENCY: 19.05 cycles
cpu0_STLB TOTAL        ACCESS:      19621 HIT:      17567 MISS:       2054
cpu0_STLB LOAD         ACCESS:      19621 HIT:      17567 MISS:       2054
cpu0_STLB RFO          ACCESS:          0 HIT:          0 MISS:          0
cpu0_STLB PREFETCH     ACCESS:          0 HIT:          0 MISS:          0
cpu0_STLB WRITE        ACCESS:          0 HIT:          0 MISS:          0
cpu0_STLB TRANSLATION  ACCESS:          0 HIT:          0 MISS:          0
cpu0_STLB PREFETCH REQUESTED:          0 ISSUED:          0 USEFUL:          0 USELESS:          0
cpu0_STLB AVERAGE MISS LATENCY: 38.44 cycles

DRAM Statistics

Channel 0 RQ ROW_BUFFER_HIT:        115
  ROW_BUFFER_MISS:        758
 AVG DBUS CONGESTED CYCLE: 3.724
WQ ROW_BUFFER_HIT: Channel 0 
  ROW_BUFFER_MISS:          1
  FULL:         18

Channel 1 RQ ROW_BUFFER_HIT:        125
  ROW_BUFFER_MISS:        715
 AVG DBUS CONGESTED CYCLE: 3.634
WQ ROW_BUFFER_HIT: Channel 1 
  ROW_BUFFER_MISS:          0
  FULL:          2
BERTI TO_L1: 9894369 TO_L2: 6908863 TO_L2_BC_MSHR: 175486
BERTI AVG_LAT: 19.3878 NUM_TRACK_LATENCY: 99259 NUM_CANT_TRACK_LATENCY: 0
BERTI CROSS_PAGE 3269066 NO_CROSS_PAGE: 13534166
BERTI FOUND_BERTI: 3765696 NO_FOUND_BERTI: 9418810
BERTI AVERAGE_ISSUED: 7.23156
CPU 0 L1I Entangling prefetcher final stats
IP accesses: 6f71 1bdc40 2802 / 289574
IP misses: f7cb 3df2c0 209 / 23051
IP hits: 0 0 0 / 0
IP late: 6e9e 1ba780 84 / 11074
IP wrong: 251e 94780 138 / 32924
miss rate: 0.0796032
coverage: 0
coverage_late: 0.480413
accuracy: 0
accuracy_late: 0.251694
discarded: 0
evicts entangled j table: 0
evicts entangled k table: 3994
max bb size: 53
formats: 1061 0 3117 1585 664 1130 0 
hist_lookups: 2788 3011 2325 1997 1790 1613 1136 856 684 635 397 258 185 112 34 0 27 4333 
hist_lookups_evict: 0.121726 %
hist_lookups_shortlat: 19.5348 %
bb_found_hist: 0 73274 26267 15479 6474 2944 1354 1099 363 139 0 41 24 0 24 0 6 0 0 0 0 12 0 0 0 0 0 0 0 0 0 6 0 0 6 0 0 0 0 0 0 0 0 0 0 0 0 0 0 0 0 0 0 6 0 0 0 0 0 0 0 0 0 0 
bb_found_summary: 234964 127518 1.8426
entangled_found_hist: 0 36473 30448 46087 9568 1481 1046 0 
entangled_found_summary: 287583 125103 2.29877
bb_ent_found_hist: 0 93487 38006 27538 10853 8174 1895 930 1579 64 0 57 76 0 6 0 400 0 0 0 0 27 0 0 0 0 0 0 0 0 0 12 0 0 6 0 0 0 0 0 0 0 0 0 0 0 0 0 0 0 0 0 0 11 0 0 0 0 0 0 0 0 0 0 
bb_ent_found_summary: 377232 183121 2.06002
