WARNING: physical memory size is smaller than virtual memory size.

*** ChampSim Multicore Out-of-Order Simulator ***
Warmup Instructions: 30000000
Simulation Instructions: 100000000
Number of CPUs: 1
Page size: 4096

BTB:
Basic BTB sets: 1024 ways: 8
Indirect:
history lengths: 0 0 10 16 27 44 60 96 109 219 449 487 714 1313 2146 3881 
ITTAGE tables: 64768 bytes;Region table: 240 bytes;IUM: 384 bytes;Total Storage= 65392 bytes;
RAS:
RAS size: 64
[LLC] INSTR Demand IPV: 1 2 2 1 4 Prefetch IPV: 1 2 1 1 4
[LLC] DATA  Demand IPV: 1 1 1 2 4 Prefetch IPV: 1 1 2 2 4
Berti Prefetcher
CPU 0 Entangling prefetcher
Off-chip DRAM Size: 8 GiB Channels: 2 Width: 64-bit Data Race: 6400 MT/s
[DUEL] Epoch ended. INSTR misses = 53, DATA misses = 45. Winner = DATA
[DUEL] Epoch ended. INSTR misses = 16, DATA misses = 16. Winner = INSTR
[DUEL] Epoch ended. INSTR misses = 1, DATA misses = 0. Winner = DATA
[DUEL] Epoch ended. INSTR misses = 0, DATA misses = 0. Winner = INSTR
[DUEL] Epoch ended. INSTR misses = 0, DATA misses = 0. Winner = INSTR
[DUEL] Epoch ended. INSTR misses = 0, DATA misses = 0. Winner = INSTR
[DUEL] Epoch ended. INSTR misses = 0, DATA misses = 0. Winner = INSTR
[DUEL] Epoch ended. INSTR misses = 0, DATA misses = 0. Winner = INSTR
[DUEL] Epoch ended. INSTR misses = 0, DATA misses = 0. Winner = INSTR
[DUEL] Epoch ended. INSTR misses = 5, DATA misses = 10. Winner = INSTR
[DUEL] Epoch ended. INSTR misses = 0, DATA misses = 0. Winner = INSTR
[DUEL] Epoch ended. INSTR misses = 8, DATA misses = 1. Winner = DATA
[DUEL] Epoch ended. INSTR misses = 16, DATA misses = 18. Winner = INSTR
Heartbeat CPU 0 instructions: 10000003 cycles: 1715488 heartbeat IPC: 5.829 cumulative IPC: 5.829 (Simulation time: 00 hr 00 min 20 sec)
[DUEL] Epoch ended. INSTR misses = 10, DATA misses = 12. Winner = INSTR
[DUEL] Epoch ended. INSTR misses = 22, DATA misses = 19. Winner = DATA
[DUEL] Epoch ended. INSTR misses = 85, DATA misses = 80. Winner = DATA
Heartbeat CPU 0 instructions: 20000005 cycles: 3431745 heartbeat IPC: 5.827 cumulative IPC: 5.828 (Simulation time: 00 hr 00 min 39 sec)
[DUEL] Epoch ended. INSTR misses = 26, DATA misses = 21. Winner = DATA
Heartbeat CPU 0 instructions: 30000004 cycles: 5098483 heartbeat IPC: 6 cumulative IPC: 5.884 (Simulation time: 00 hr 00 min 58 sec)
Warmup finished CPU 0 instructions: 30000004 cycles: 5098484 cumulative IPC: 5.884 (Simulation time: 00 hr 00 min 58 sec)
Warmup complete CPU 0 instructions: 30000004 cycles: 5098484 cumulative IPC: 5.884 (Simulation time: 00 hr 00 min 58 sec)
[DUEL] Epoch ended. INSTR misses = 2, DATA misses = 2. Winner = INSTR
*** Reached end of trace: (0, "../traces/secret_traces/crypto/crypto10.champsimtrace.xz")
[DUEL] Epoch ended. INSTR misses = 8, DATA misses = 38. Winner = INSTR
[DUEL] Epoch ended. INSTR misses = 25, DATA misses = 8. Winner = DATA
[DUEL] Epoch ended. INSTR misses = 0, DATA misses = 1. Winner = INSTR
[DUEL] Epoch ended. INSTR misses = 1, DATA misses = 0. Winner = DATA
[DUEL] Epoch ended. INSTR misses = 0, DATA misses = 0. Winner = INSTR
[DUEL] Epoch ended. INSTR misses = 0, DATA misses = 0. Winner = INSTR
[DUEL] Epoch ended. INSTR misses = 0, DATA misses = 0. Winner = INSTR
[DUEL] Epoch ended. INSTR misses = 0, DATA misses = 0. Winner = INSTR
[DUEL] Epoch ended. INSTR misses = 0, DATA misses = 0. Winner = INSTR
[DUEL] Epoch ended. INSTR misses = 3, DATA misses = 3. Winner = INSTR
[DUEL] Epoch ended. INSTR misses = 1, DATA misses = 0. Winner = DATA
[DUEL] Epoch ended. INSTR misses = 1, DATA misses = 0. Winner = DATA
[DUEL] Epoch ended. INSTR misses = 0, DATA misses = 0. Winner = INSTR
Heartbeat CPU 0 instructions: 40000005 cycles: 7560516 heartbeat IPC: 4.062 cumulative IPC: 4.062 (Simulation time: 00 hr 01 min 25 sec)
[DUEL] Epoch ended. INSTR misses = 1, DATA misses = 3. Winner = INSTR
Heartbeat CPU 0 instructions: 50000006 cycles: 9354609 heartbeat IPC: 5.574 cumulative IPC: 4.699 (Simulation time: 00 hr 01 min 47 sec)
[DUEL] Epoch ended. INSTR misses = 4, DATA misses = 1. Winner = DATA
[DUEL] Epoch ended. INSTR misses = 45, DATA misses = 44. Winner = DATA
Heartbeat CPU 0 instructions: 60000000 cycles: 11494341 heartbeat IPC: 4.673 cumulative IPC: 4.691 (Simulation time: 00 hr 02 min 12 sec)
[DUEL] Epoch ended. INSTR misses = 9, DATA misses = 6. Winner = DATA
[DUEL] Epoch ended. INSTR misses = 3, DATA misses = 1. Winner = DATA
*** Reached end of trace: (0, "../traces/secret_traces/crypto/crypto10.champsimtrace.xz")
[DUEL] Epoch ended. INSTR misses = 6, DATA misses = 23. Winner = INSTR
[DUEL] Epoch ended. INSTR misses = 14, DATA misses = 8. Winner = DATA
[DUEL] Epoch ended. INSTR misses = 0, DATA misses = 0. Winner = INSTR
[DUEL] Epoch ended. INSTR misses = 1, DATA misses = 0. Winner = DATA
[DUEL] Epoch ended. INSTR misses = 0, DATA misses = 0. Winner = INSTR
[DUEL] Epoch ended. INSTR misses = 0, DATA misses = 0. Winner = INSTR
[DUEL] Epoch ended. INSTR misses = 0, DATA misses = 0. Winner = INSTR
[DUEL] Epoch ended. INSTR misses = 0, DATA misses = 0. Winner = INSTR
[DUEL] Epoch ended. INSTR misses = 0, DATA misses = 0. Winner = INSTR
[DUEL] Epoch ended. INSTR misses = 1, DATA misses = 3. Winner = INSTR
[DUEL] Epoch ended. INSTR misses = 1, DATA misses = 0. Winner = DATA
[DUEL] Epoch ended. INSTR misses = 2, DATA misses = 0. Winner = DATA
Heartbeat CPU 0 instructions: 70000005 cycles: 13759027 heartbeat IPC: 4.416 cumulative IPC: 4.619 (Simulation time: 00 hr 02 min 39 sec)
[DUEL] Epoch ended. INSTR misses = 0, DATA misses = 2. Winner = INSTR
Heartbeat CPU 0 instructions: 80000002 cycles: 15478959 heartbeat IPC: 5.814 cumulative IPC: 4.817 (Simulation time: 00 hr 03 min 01 sec)
[DUEL] Epoch ended. INSTR misses = 0, DATA misses = 3. Winner = INSTR
[DUEL] Epoch ended. INSTR misses = 2, DATA misses = 2. Winner = INSTR
[DUEL] Epoch ended. INSTR misses = 42, DATA misses = 40. Winner = DATA
Heartbeat CPU 0 instructions: 90000007 cycles: 17647249 heartbeat IPC: 4.612 cumulative IPC: 4.781 (Simulation time: 00 hr 03 min 26 sec)
[DUEL] Epoch ended. INSTR misses = 7, DATA misses = 5. Winner = DATA
[DUEL] Epoch ended. INSTR misses = 0, DATA misses = 1. Winner = INSTR
*** Reached end of trace: (0, "../traces/secret_traces/crypto/crypto10.champsimtrace.xz")
[DUEL] Epoch ended. INSTR misses = 8, DATA misses = 19. Winner = INSTR
[DUEL] Epoch ended. INSTR misses = 12, DATA misses = 8. Winner = DATA
[DUEL] Epoch ended. INSTR misses = 0, DATA misses = 1. Winner = INSTR
[DUEL] Epoch ended. INSTR misses = 1, DATA misses = 0. Winner = DATA
[DUEL] Epoch ended. INSTR misses = 0, DATA misses = 0. Winner = INSTR
[DUEL] Epoch ended. INSTR misses = 0, DATA misses = 0. Winner = INSTR
[DUEL] Epoch ended. INSTR misses = 0, DATA misses = 0. Winner = INSTR
[DUEL] Epoch ended. INSTR misses = 0, DATA misses = 0. Winner = INSTR
[DUEL] Epoch ended. INSTR misses = 0, DATA misses = 0. Winner = INSTR
Heartbeat CPU 0 instructions: 100000002 cycles: 19680986 heartbeat IPC: 4.917 cumulative IPC: 4.8 (Simulation time: 00 hr 03 min 51 sec)
[DUEL] Epoch ended. INSTR misses = 0, DATA misses = 1. Winner = INSTR
[DUEL] Epoch ended. INSTR misses = 0, DATA misses = 0. Winner = INSTR
[DUEL] Epoch ended. INSTR misses = 1, DATA misses = 0. Winner = DATA
[DUEL] Epoch ended. INSTR misses = 0, DATA misses = 2. Winner = INSTR
Heartbeat CPU 0 instructions: 110000009 cycles: 21550572 heartbeat IPC: 5.349 cumulative IPC: 4.863 (Simulation time: 00 hr 04 min 15 sec)
[DUEL] Epoch ended. INSTR misses = 0, DATA misses = 2. Winner = INSTR
[DUEL] Epoch ended. INSTR misses = 0, DATA misses = 0. Winner = INSTR
[DUEL] Epoch ended. INSTR misses = 39, DATA misses = 39. Winner = INSTR
Heartbeat CPU 0 instructions: 120000001 cycles: 23652094 heartbeat IPC: 4.758 cumulative IPC: 4.851 (Simulation time: 00 hr 04 min 40 sec)
[DUEL] Epoch ended. INSTR misses = 6, DATA misses = 5. Winner = DATA
Heartbeat CPU 0 instructions: 130000005 cycles: 25330022 heartbeat IPC: 5.96 cumulative IPC: 4.943 (Simulation time: 00 hr 05 min 02 sec)
Simulation finished CPU 0 instructions: 100000001 cycles: 20231539 cumulative IPC: 4.943 (Simulation time: 00 hr 05 min 02 sec)
Simulation complete CPU 0 instructions: 100000001 cycles: 20231539 cumulative IPC: 4.943 (Simulation time: 00 hr 05 min 02 sec)

ChampSim completed all CPUs

=== Simulation ===
CPU 0 runs ../traces/secret_traces/crypto/crypto10.champsimtrace.xz
Region of Interest Statistics

CPU 0 cumulative IPC: 4.943 instructions: 100000001 cycles: 20231539
CPU 0 Branch Prediction Accuracy: 98.92% MPKI: 0.8045 Average ROB Occupancy at Mispredict: 31.98
Branch type MPKI
BRANCH_DIRECT_JUMP: 0.0445
BRANCH_INDIRECT: 0.405
BRANCH_CONDITIONAL: 0.137
BRANCH_DIRECT_CALL: 0.13
BRANCH_INDIRECT_CALL: 0.0163
BRANCH_RETURN: 0.0714

LLC TOTAL        ACCESS:     345479 HIT:     240093 MISS:     105386
LLC LOAD         ACCESS:      35898 HIT:      19386 MISS:      16512
LLC RFO          ACCESS:     105007 HIT:      76793 MISS:      28214
LLC PREFETCH     ACCESS:      85508 HIT:      44499 MISS:      41009
LLC WRITE        ACCESS:     116970 HIT:      98964 MISS:      18006
LLC TRANSLATION  ACCESS:       2096 HIT:        451 MISS:       1645
LLC PREFETCH REQUESTED:          0 ISSUED:          0 USEFUL:          0 USELESS:          0
LLC AVERAGE MISS LATENCY: 170.7 cycles
cpu0_DTLB TOTAL        ACCESS:   10252854 HIT:   10218951 MISS:      33903
cpu0_DTLB LOAD         ACCESS:   10252854 HIT:   10218951 MISS:      33903
cpu0_DTLB RFO          ACCESS:          0 HIT:          0 MISS:          0
cpu0_DTLB PREFETCH     ACCESS:          0 HIT:          0 MISS:          0
cpu0_DTLB WRITE        ACCESS:          0 HIT:          0 MISS:          0
cpu0_DTLB TRANSLATION  ACCESS:          0 HIT:          0 MISS:          0
cpu0_DTLB PREFETCH REQUESTED:          0 ISSUED:          0 USEFUL:          0 USELESS:          0
cpu0_DTLB AVERAGE MISS LATENCY: 10.68 cycles
cpu0_ITLB TOTAL        ACCESS:     574319 HIT:     562580 MISS:      11739
cpu0_ITLB LOAD         ACCESS:     574319 HIT:     562580 MISS:      11739
cpu0_ITLB RFO          ACCESS:          0 HIT:          0 MISS:          0
cpu0_ITLB PREFETCH     ACCESS:          0 HIT:          0 MISS:          0
cpu0_ITLB WRITE        ACCESS:          0 HIT:          0 MISS:          0
cpu0_ITLB TRANSLATION  ACCESS:          0 HIT:          0 MISS:          0
cpu0_ITLB PREFETCH REQUESTED:          0 ISSUED:          0 USEFUL:          0 USELESS:          0
cpu0_ITLB AVERAGE MISS LATENCY: 21.59 cycles
cpu0_L1D TOTAL        ACCESS:   14414858 HIT:   13916786 MISS:     498072
cpu0_L1D LOAD         ACCESS:    9606982 HIT:    9478061 MISS:     128921
cpu0_L1D RFO          ACCESS:          0 HIT:          0 MISS:          0
cpu0_L1D PREFETCH     ACCESS:     427357 HIT:     341218 MISS:      86139
cpu0_L1D WRITE        ACCESS:    4376210 HIT:    4095938 MISS:     280272
cpu0_L1D TRANSLATION  ACCESS:       4309 HIT:       1569 MISS:       2740
cpu0_L1D PREFETCH REQUESTED:    3253214 ISSUED:     427357 USEFUL:       9732 USELESS:        922
cpu0_L1D AVERAGE MISS LATENCY: 32.44 cycles
cpu0_L1I TOTAL        ACCESS:     835657 HIT:     696984 MISS:     138673
cpu0_L1I LOAD         ACCESS:     275079 HIT:     243073 MISS:      32006
cpu0_L1I RFO          ACCESS:          0 HIT:          0 MISS:          0
cpu0_L1I PREFETCH     ACCESS:     560578 HIT:     453911 MISS:     106667
cpu0_L1I WRITE        ACCESS:          0 HIT:          0 MISS:          0
cpu0_L1I TRANSLATION  ACCESS:          0 HIT:          0 MISS:          0
cpu0_L1I PREFETCH REQUESTED:     859937 ISSUED:     560578 USEFUL:      59413 USELESS:      42565
cpu0_L1I AVERAGE MISS LATENCY: 32.03 cycles
cpu0_L2C TOTAL        ACCESS:     796116 HIT:     498437 MISS:     297679
cpu0_L2C LOAD         ACCESS:     104051 HIT:      59686 MISS:      44365
cpu0_L2C RFO          ACCESS:     115774 HIT:      10725 MISS:     105049
cpu0_L2C PREFETCH     ACCESS:     440743 HIT:     294574 MISS:     146169
cpu0_L2C WRITE        ACCESS:     132892 HIT:     132892 MISS:          0
cpu0_L2C TRANSLATION  ACCESS:       2656 HIT:        560 MISS:       2096
cpu0_L2C PREFETCH REQUESTED:     277926 ISSUED:     266868 USEFUL:      23209 USELESS:      20368
cpu0_L2C AVERAGE MISS LATENCY: 73.73 cycles
cpu0_STLB TOTAL        ACCESS:      20159 HIT:      16226 MISS:       3933
cpu0_STLB LOAD         ACCESS:      20159 HIT:      16226 MISS:       3933
cpu0_STLB RFO          ACCESS:          0 HIT:          0 MISS:          0
cpu0_STLB PREFETCH     ACCESS:          0 HIT:          0 MISS:          0
cpu0_STLB WRITE        ACCESS:          0 HIT:          0 MISS:          0
cpu0_STLB TRANSLATION  ACCESS:          0 HIT:          0 MISS:          0
cpu0_STLB PREFETCH REQUESTED:          0 ISSUED:          0 USEFUL:          0 USELESS:          0
cpu0_STLB AVERAGE MISS LATENCY: 135.3 cycles

DRAM Statistics

Channel 0 RQ ROW_BUFFER_HIT:      21131
  ROW_BUFFER_MISS:      23292
 AVG DBUS CONGESTED CYCLE: 3.905
WQ ROW_BUFFER_HIT: Channel 0 
  ROW_BUFFER_MISS:       1776
  FULL:      14406

Channel 1 RQ ROW_BUFFER_HIT:      20272
  ROW_BUFFER_MISS:      22665
 AVG DBUS CONGESTED CYCLE: 3.895
WQ ROW_BUFFER_HIT: Channel 1 
  ROW_BUFFER_MISS:       1764
  FULL:      13729
BERTI TO_L1: 1026473 TO_L2: 2703712 TO_L2_BC_MSHR: 1664656
BERTI AVG_LAT: 67.7455 NUM_TRACK_LATENCY: 125620 NUM_CANT_TRACK_LATENCY: 0
BERTI CROSS_PAGE 768688 NO_CROSS_PAGE: 2961497
BERTI FOUND_BERTI: 1423642 NO_FOUND_BERTI: 11412195
BERTI AVERAGE_ISSUED: 4.15744
CPU 0 L1I Entangling prefetcher final stats
IP accesses: 6f71 1bdc40 1368 / 276108
IP misses: 25bf 96fc0 123 / 33035
IP hits: 0 0 0 / 0
IP late: 91b9 246e40 36 / 15870
IP wrong: f801 3e0040 98 / 42394
miss rate: 0.119646
coverage: 0
coverage_late: 0.4804
accuracy: 0
accuracy_late: 0.272381
discarded: 0
evicts entangled j table: 0
evicts entangled k table: 5191
max bb size: 53
formats: 1344 0 4546 2332 976 2010 0 
hist_lookups: 4004 4252 3215 2880 2542 2120 1617 1215 952 787 624 417 246 147 80 0 0 5014 
hist_lookups_evict: 0 %
hist_lookups_shortlat: 16.6512 %
bb_found_hist: 0 68937 29043 13748 6719 3182 1433 1278 407 84 18 95 90 72 21 0 3 0 0 0 1 6 0 0 0 0 0 0 0 0 0 3 3 0 3 0 0 0 0 0 0 0 0 0 0 0 0 0 0 0 0 0 0 2 0 0 0 0 0 0 0 0 0 0 
bb_found_summary: 236735 125148 1.89165
entangled_found_hist: 0 36212 27911 47862 10227 1470 361 0 
entangled_found_summary: 286044 124043 2.30601
bb_ent_found_hist: 0 92424 43229 28209 11002 7323 3240 1889 1339 46 34 96 80 40 12 0 3 0 0 0 1 16 0 0 0 0 0 0 0 0 0 3 3 0 5 0 0 0 0 0 0 0 0 0 0 0 0 0 0 0 0 0 0 4 0 0 0 0 0 0 0 0 0 0 
bb_ent_found_summary: 391940 188998 2.07378
