WARNING: physical memory size is smaller than virtual memory size.

*** ChampSim Multicore Out-of-Order Simulator ***
Warmup Instructions: 30000000
Simulation Instructions: 100000000
Number of CPUs: 1
Page size: 4096

BTB:
Basic BTB sets: 1024 ways: 8
Indirect:
history lengths: 0 0 10 16 27 44 60 96 109 219 449 487 714 1313 2146 3881 
ITTAGE tables: 64768 bytes;Region table: 240 bytes;IUM: 384 bytes;Total Storage= 65392 bytes;
RAS:
RAS size: 64
[LLC] INSTR Demand IPV: 1 2 2 1 4 Prefetch IPV: 1 2 1 1 4
[LLC] DATA  Demand IPV: 1 1 1 2 4 Prefetch IPV: 1 1 2 2 4
Berti Prefetcher
CPU 0 Entangling prefetcher
Off-chip DRAM Size: 8 GiB Channels: 2 Width: 64-bit Data Race: 6400 MT/s
[DUEL] Epoch ended. INSTR misses = 55, DATA misses = 63. Winner = INSTR
[DUEL] Epoch ended. INSTR misses = 16, DATA misses = 17. Winner = INSTR
[DUEL] Epoch ended. INSTR misses = 0, DATA misses = 0. Winner = INSTR
[DUEL] Epoch ended. INSTR misses = 0, DATA misses = 0. Winner = INSTR
[DUEL] Epoch ended. INSTR misses = 0, DATA misses = 0. Winner = INSTR
[DUEL] Epoch ended. INSTR misses = 0, DATA misses = 0. Winner = INSTR
[DUEL] Epoch ended. INSTR misses = 16, DATA misses = 16. Winner = INSTR
[DUEL] Epoch ended. INSTR misses = 0, DATA misses = 0. Winner = INSTR
[DUEL] Epoch ended. INSTR misses = 0, DATA misses = 0. Winner = INSTR
[DUEL] Epoch ended. INSTR misses = 0, DATA misses = 4. Winner = INSTR
[DUEL] Epoch ended. INSTR misses = 1, DATA misses = 0. Winner = DATA
[DUEL] Epoch ended. INSTR misses = 0, DATA misses = 0. Winner = INSTR
[DUEL] Epoch ended. INSTR misses = 0, DATA misses = 0. Winner = INSTR
[DUEL] Epoch ended. INSTR misses = 0, DATA misses = 9. Winner = INSTR
Heartbeat CPU 0 instructions: 10000000 cycles: 1714762 heartbeat IPC: 5.832 cumulative IPC: 5.832 (Simulation time: 00 hr 00 min 19 sec)
[DUEL] Epoch ended. INSTR misses = 1, DATA misses = 0. Winner = DATA
[DUEL] Epoch ended. INSTR misses = 4, DATA misses = 9. Winner = INSTR
[DUEL] Epoch ended. INSTR misses = 83, DATA misses = 74. Winner = DATA
[DUEL] Epoch ended. INSTR misses = 32, DATA misses = 29. Winner = DATA
[DUEL] Epoch ended. INSTR misses = 0, DATA misses = 0. Winner = INSTR
Heartbeat CPU 0 instructions: 20000008 cycles: 3430778 heartbeat IPC: 5.827 cumulative IPC: 5.83 (Simulation time: 00 hr 00 min 37 sec)
[DUEL] Epoch ended. INSTR misses = 0, DATA misses = 0. Winner = INSTR
Heartbeat CPU 0 instructions: 30000001 cycles: 5097572 heartbeat IPC: 6 cumulative IPC: 5.885 (Simulation time: 00 hr 00 min 54 sec)
Warmup finished CPU 0 instructions: 30000001 cycles: 5097573 cumulative IPC: 5.885 (Simulation time: 00 hr 00 min 54 sec)
Warmup complete CPU 0 instructions: 30000001 cycles: 5097573 cumulative IPC: 5.885 (Simulation time: 00 hr 00 min 54 sec)
[DUEL] Epoch ended. INSTR misses = 0, DATA misses = 1. Winner = INSTR
Heartbeat CPU 0 instructions: 40000002 cycles: 6765333 heartbeat IPC: 5.996 cumulative IPC: 5.996 (Simulation time: 00 hr 01 min 14 sec)
[DUEL] Epoch ended. INSTR misses = 0, DATA misses = 0. Winner = INSTR
Heartbeat CPU 0 instructions: 50000001 cycles: 8433376 heartbeat IPC: 5.995 cumulative IPC: 5.996 (Simulation time: 00 hr 01 min 34 sec)
[DUEL] Epoch ended. INSTR misses = 0, DATA misses = 0. Winner = INSTR
Heartbeat CPU 0 instructions: 60000005 cycles: 10107685 heartbeat IPC: 5.973 cumulative IPC: 5.988 (Simulation time: 00 hr 01 min 53 sec)
Heartbeat CPU 0 instructions: 70000002 cycles: 11774402 heartbeat IPC: 6 cumulative IPC: 5.991 (Simulation time: 00 hr 02 min 13 sec)
[DUEL] Epoch ended. INSTR misses = 5, DATA misses = 0. Winner = DATA
Heartbeat CPU 0 instructions: 80000005 cycles: 13441372 heartbeat IPC: 5.999 cumulative IPC: 5.992 (Simulation time: 00 hr 02 min 33 sec)
Heartbeat CPU 0 instructions: 90000002 cycles: 15108202 heartbeat IPC: 5.999 cumulative IPC: 5.994 (Simulation time: 00 hr 02 min 53 sec)
Heartbeat CPU 0 instructions: 100000003 cycles: 16774940 heartbeat IPC: 6 cumulative IPC: 5.995 (Simulation time: 00 hr 03 min 12 sec)
Heartbeat CPU 0 instructions: 110000003 cycles: 18441665 heartbeat IPC: 6 cumulative IPC: 5.995 (Simulation time: 00 hr 03 min 32 sec)
Heartbeat CPU 0 instructions: 120000002 cycles: 20108494 heartbeat IPC: 5.999 cumulative IPC: 5.996 (Simulation time: 00 hr 03 min 52 sec)
[DUEL] Epoch ended. INSTR misses = 0, DATA misses = 0. Winner = INSTR
*** Reached end of trace: (0, "../traces/secret_traces/crypto/crypto40.champsimtrace.xz")
[DUEL] Epoch ended. INSTR misses = 22, DATA misses = 25. Winner = INSTR
[DUEL] Epoch ended. INSTR misses = 14, DATA misses = 24. Winner = INSTR
[DUEL] Epoch ended. INSTR misses = 3, DATA misses = 0. Winner = DATA
[DUEL] Epoch ended. INSTR misses = 0, DATA misses = 0. Winner = INSTR
[DUEL] Epoch ended. INSTR misses = 0, DATA misses = 0. Winner = INSTR
[DUEL] Epoch ended. INSTR misses = 0, DATA misses = 0. Winner = INSTR
[DUEL] Epoch ended. INSTR misses = 0, DATA misses = 0. Winner = INSTR
[DUEL] Epoch ended. INSTR misses = 2, DATA misses = 0. Winner = DATA
Heartbeat CPU 0 instructions: 130000006 cycles: 22283901 heartbeat IPC: 4.597 cumulative IPC: 5.819 (Simulation time: 00 hr 04 min 15 sec)
Simulation finished CPU 0 instructions: 100000005 cycles: 17186329 cumulative IPC: 5.819 (Simulation time: 00 hr 04 min 15 sec)
Simulation complete CPU 0 instructions: 100000005 cycles: 17186329 cumulative IPC: 5.819 (Simulation time: 00 hr 04 min 15 sec)

ChampSim completed all CPUs

=== Simulation ===
CPU 0 runs ../traces/secret_traces/crypto/crypto40.champsimtrace.xz
Region of Interest Statistics

CPU 0 cumulative IPC: 5.819 instructions: 100000005 cycles: 17186329
CPU 0 Branch Prediction Accuracy: 97.78% MPKI: 0.1365 Average ROB Occupancy at Mispredict: 29.6
Branch type MPKI
BRANCH_DIRECT_JUMP: 0.00584
BRANCH_INDIRECT: 0.0667
BRANCH_CONDITIONAL: 0.0377
BRANCH_DIRECT_CALL: 0.0163
BRANCH_INDIRECT_CALL: 0.0015
BRANCH_RETURN: 0.00846

LLC TOTAL        ACCESS:      28749 HIT:      17622 MISS:      11127
LLC LOAD         ACCESS:       2784 HIT:       1460 MISS:       1324
LLC RFO          ACCESS:       7066 HIT:       3906 MISS:       3160
LLC PREFETCH     ACCESS:       8033 HIT:       4010 MISS:       4023
LLC WRITE        ACCESS:      10606 HIT:       8216 MISS:       2390
LLC TRANSLATION  ACCESS:        260 HIT:         30 MISS:        230
LLC PREFETCH REQUESTED:          0 ISSUED:          0 USEFUL:          0 USELESS:          0
LLC AVERAGE MISS LATENCY: 151.2 cycles
cpu0_DTLB TOTAL        ACCESS:    8332188 HIT:    8329448 MISS:       2740
cpu0_DTLB LOAD         ACCESS:    8332188 HIT:    8329448 MISS:       2740
cpu0_DTLB RFO          ACCESS:          0 HIT:          0 MISS:          0
cpu0_DTLB PREFETCH     ACCESS:          0 HIT:          0 MISS:          0
cpu0_DTLB WRITE        ACCESS:          0 HIT:          0 MISS:          0
cpu0_DTLB TRANSLATION  ACCESS:          0 HIT:          0 MISS:          0
cpu0_DTLB PREFETCH REQUESTED:          0 ISSUED:          0 USEFUL:          0 USELESS:          0
cpu0_DTLB AVERAGE MISS LATENCY: 16.12 cycles
cpu0_ITLB TOTAL        ACCESS:     147486 HIT:     145781 MISS:       1705
cpu0_ITLB LOAD         ACCESS:     147486 HIT:     145781 MISS:       1705
cpu0_ITLB RFO          ACCESS:          0 HIT:          0 MISS:          0
cpu0_ITLB PREFETCH     ACCESS:          0 HIT:          0 MISS:          0
cpu0_ITLB WRITE        ACCESS:          0 HIT:          0 MISS:          0
cpu0_ITLB TRANSLATION  ACCESS:          0 HIT:          0 MISS:          0
cpu0_ITLB PREFETCH REQUESTED:          0 ISSUED:          0 USEFUL:          0 USELESS:          0
cpu0_ITLB AVERAGE MISS LATENCY: 25.95 cycles
cpu0_L1D TOTAL        ACCESS:    9370391 HIT:    9331846 MISS:      38545
cpu0_L1D LOAD         ACCESS:    5430017 HIT:    5420242 MISS:       9775
cpu0_L1D RFO          ACCESS:          0 HIT:          0 MISS:          0
cpu0_L1D PREFETCH     ACCESS:     729707 HIT:     717978 MISS:      11729
cpu0_L1D WRITE        ACCESS:    3210264 HIT:    3193536 MISS:      16728
cpu0_L1D TRANSLATION  ACCESS:        403 HIT:         90 MISS:        313
cpu0_L1D PREFETCH REQUESTED:     868479 ISSUED:     729710 USEFUL:        788 USELESS:        216
cpu0_L1D AVERAGE MISS LATENCY: 34 cycles
cpu0_L1I TOTAL        ACCESS:     219442 HIT:     199094 MISS:      20348
cpu0_L1I LOAD         ACCESS:      73665 HIT:      67345 MISS:       6320
cpu0_L1I RFO          ACCESS:          0 HIT:          0 MISS:          0
cpu0_L1I PREFETCH     ACCESS:     145777 HIT:     131749 MISS:      14028
cpu0_L1I WRITE        ACCESS:          0 HIT:          0 MISS:          0
cpu0_L1I TRANSLATION  ACCESS:          0 HIT:          0 MISS:          0
cpu0_L1I PREFETCH REQUESTED:     225882 ISSUED:     145777 USEFUL:       6748 USELESS:       6322
cpu0_L1I AVERAGE MISS LATENCY: 25.57 cycles
cpu0_L2C TOTAL        ACCESS:      88670 HIT:      66157 MISS:      22513
cpu0_L2C LOAD         ACCESS:      11257 HIT:       8065 MISS:       3192
cpu0_L2C RFO          ACCESS:       7981 HIT:        910 MISS:       7071
cpu0_L2C PREFETCH     ACCESS:      59508 HIT:      47518 MISS:      11990
cpu0_L2C WRITE        ACCESS:       9613 HIT:       9613 MISS:          0
cpu0_L2C TRANSLATION  ACCESS:        311 HIT:         51 MISS:        260
cpu0_L2C PREFETCH REQUESTED:      35607 ISSUED:      35163 USEFUL:       2449 USELESS:       1060
cpu0_L2C AVERAGE MISS LATENCY: 89.68 cycles
cpu0_STLB TOTAL        ACCESS:       2317 HIT:       1957 MISS:        360
cpu0_STLB LOAD         ACCESS:       2317 HIT:       1957 MISS:        360
cpu0_STLB RFO          ACCESS:          0 HIT:          0 MISS:          0
cpu0_STLB PREFETCH     ACCESS:          0 HIT:          0 MISS:          0
cpu0_STLB WRITE        ACCESS:          0 HIT:          0 MISS:          0
cpu0_STLB TRANSLATION  ACCESS:          0 HIT:          0 MISS:          0
cpu0_STLB PREFETCH REQUESTED:          0 ISSUED:          0 USEFUL:          0 USELESS:          0
cpu0_STLB AVERAGE MISS LATENCY: 214.9 cycles

DRAM Statistics

Channel 0 RQ ROW_BUFFER_HIT:       1864
  ROW_BUFFER_MISS:       2591
 AVG DBUS CONGESTED CYCLE: 3.886
WQ ROW_BUFFER_HIT: Channel 0 
  ROW_BUFFER_MISS:        289
  FULL:       1565

Channel 1 RQ ROW_BUFFER_HIT:       1721
  ROW_BUFFER_MISS:       2561
 AVG DBUS CONGESTED CYCLE: 3.884
WQ ROW_BUFFER_HIT: Channel 1 
  ROW_BUFFER_MISS:        260
  FULL:       1451
BERTI TO_L1: 1340536 TO_L2: 299134 TO_L2_BC_MSHR: 114375
BERTI AVG_LAT: 29.0186 NUM_TRACK_LATENCY: 39772 NUM_CANT_TRACK_LATENCY: 0
BERTI CROSS_PAGE 379098 NO_CROSS_PAGE: 1260572
BERTI FOUND_BERTI: 470544 NO_FOUND_BERTI: 7281184
BERTI AVERAGE_ISSUED: 10.1102
CPU 0 L1I Entangling prefetcher final stats
IP accesses: 1f31 7cc40 4565 / 73672
IP misses: 6e9e 1ba780 51 / 6327
IP hits: 0 0 0 / 0
IP late: 7cdc 1f3700 11 / 2647
IP wrong: 251e 94780 55 / 6292
miss rate: 0.0858807
coverage: 0
coverage_late: 0.418366
accuracy: 0
accuracy_late: 0.296119
discarded: 0
evicts entangled j table: 0
evicts entangled k table: 917
max bb size: 53
formats: 229 0 808 428 224 467 0 
hist_lookups: 1016 915 604 585 452 435 318 217 113 97 87 65 34 17 13 0 3 2374 
hist_lookups_evict: 0.0408442 %
hist_lookups_shortlat: 32.3214 %
bb_found_hist: 0 12742 5178 3508 1301 533 222 118 43 629 0 18 5 615 3 0 5 0 0 0 0 1 258 14 0 0 9 0 27 0 0 0 0 280 0 0 0 0 0 0 0 0 0 0 0 0 11 0 0 0 0 14 0 114 0 0 0 0 0 0 0 0 0 0 
bb_found_summary: 81540 25648 3.1792
entangled_found_hist: 0 8785 4780 8353 1155 277 51 0 
entangled_found_summary: 49715 23401 2.12449
bb_ent_found_hist: 0 18308 6876 5293 1416 1042 400 222 87 4 0 40 9 0 4 0 65 0 0 0 0 3 0 96 0 0 15 0 53 0 0 0 0 572 0 0 0 0 0 0 0 0 0 0 0 0 1 0 0 0 0 286 0 0 0 0 0 0 0 0 0 0 0 0 
bb_ent_found_summary: 102796 34792 2.95459
