WARNING: physical memory size is smaller than virtual memory size.

*** ChampSim Multicore Out-of-Order Simulator ***
Warmup Instructions: 30000000
Simulation Instructions: 100000000
Number of CPUs: 1
Page size: 4096

BTB:
Basic BTB sets: 1024 ways: 8
Indirect:
history lengths: 0 0 10 16 27 44 60 96 109 219 449 487 714 1313 2146 3881 
ITTAGE tables: 64768 bytes;Region table: 240 bytes;IUM: 384 bytes;Total Storage= 65392 bytes;
RAS:
RAS size: 64
[LLC] INSTR Demand IPV: 1 2 2 1 4 Prefetch IPV: 1 2 1 1 4
[LLC] DATA  Demand IPV: 1 1 1 2 4 Prefetch IPV: 1 1 2 2 4
Berti Prefetcher
CPU 0 Entangling prefetcher
Off-chip DRAM Size: 8 GiB Channels: 2 Width: 64-bit Data Race: 6400 MT/s
[DUEL] Epoch ended. INSTR misses = 50, DATA misses = 50. Winner = INSTR
[DUEL] Epoch ended. INSTR misses = 24, DATA misses = 17. Winner = DATA
[DUEL] Epoch ended. INSTR misses = 0, DATA misses = 0. Winner = INSTR
[DUEL] Epoch ended. INSTR misses = 0, DATA misses = 0. Winner = INSTR
[DUEL] Epoch ended. INSTR misses = 0, DATA misses = 0. Winner = INSTR
[DUEL] Epoch ended. INSTR misses = 0, DATA misses = 0. Winner = INSTR
[DUEL] Epoch ended. INSTR misses = 16, DATA misses = 16. Winner = INSTR
[DUEL] Epoch ended. INSTR misses = 0, DATA misses = 0. Winner = INSTR
[DUEL] Epoch ended. INSTR misses = 4, DATA misses = 0. Winner = DATA
[DUEL] Epoch ended. INSTR misses = 4, DATA misses = 10. Winner = INSTR
[DUEL] Epoch ended. INSTR misses = 0, DATA misses = 0. Winner = INSTR
[DUEL] Epoch ended. INSTR misses = 0, DATA misses = 10. Winner = INSTR
[DUEL] Epoch ended. INSTR misses = 0, DATA misses = 0. Winner = INSTR
[DUEL] Epoch ended. INSTR misses = 0, DATA misses = 0. Winner = INSTR
[DUEL] Epoch ended. INSTR misses = 0, DATA misses = 0. Winner = INSTR
[DUEL] Epoch ended. INSTR misses = 15, DATA misses = 14. Winner = DATA
[DUEL] Epoch ended. INSTR misses = 0, DATA misses = 0. Winner = INSTR
[DUEL] Epoch ended. INSTR misses = 0, DATA misses = 0. Winner = INSTR
Heartbeat CPU 0 instructions: 10000001 cycles: 1722591 heartbeat IPC: 5.805 cumulative IPC: 5.805 (Simulation time: 00 hr 00 min 22 sec)
[DUEL] Epoch ended. INSTR misses = 0, DATA misses = 0. Winner = INSTR
[DUEL] Epoch ended. INSTR misses = 0, DATA misses = 0. Winner = INSTR
[DUEL] Epoch ended. INSTR misses = 0, DATA misses = 0. Winner = INSTR
[DUEL] Epoch ended. INSTR misses = 1, DATA misses = 0. Winner = DATA
[DUEL] Epoch ended. INSTR misses = 18, DATA misses = 19. Winner = INSTR
[DUEL] Epoch ended. INSTR misses = 105, DATA misses = 91. Winner = DATA
[DUEL] Epoch ended. INSTR misses = 34, DATA misses = 30. Winner = DATA
[DUEL] Epoch ended. INSTR misses = 0, DATA misses = 0. Winner = INSTR
Heartbeat CPU 0 instructions: 20000005 cycles: 3442362 heartbeat IPC: 5.815 cumulative IPC: 5.81 (Simulation time: 00 hr 00 min 43 sec)
[DUEL] Epoch ended. INSTR misses = 0, DATA misses = 0. Winner = INSTR
[DUEL] Epoch ended. INSTR misses = 0, DATA misses = 0. Winner = INSTR
[DUEL] Epoch ended. INSTR misses = 2, DATA misses = 0. Winner = DATA
[DUEL] Epoch ended. INSTR misses = 1, DATA misses = 0. Winner = DATA
[DUEL] Epoch ended. INSTR misses = 0, DATA misses = 0. Winner = INSTR
Heartbeat CPU 0 instructions: 30000002 cycles: 5111043 heartbeat IPC: 5.993 cumulative IPC: 5.87 (Simulation time: 00 hr 01 min 03 sec)
Warmup finished CPU 0 instructions: 30000002 cycles: 5111044 cumulative IPC: 5.87 (Simulation time: 00 hr 01 min 03 sec)
Warmup complete CPU 0 instructions: 30000002 cycles: 5111044 cumulative IPC: 5.87 (Simulation time: 00 hr 01 min 03 sec)
[DUEL] Epoch ended. INSTR misses = 0, DATA misses = 0. Winner = INSTR
[DUEL] Epoch ended. INSTR misses = 0, DATA misses = 0. Winner = INSTR
[DUEL] Epoch ended. INSTR misses = 0, DATA misses = 0. Winner = INSTR
Heartbeat CPU 0 instructions: 40000000 cycles: 6788540 heartbeat IPC: 5.961 cumulative IPC: 5.961 (Simulation time: 00 hr 01 min 25 sec)
[DUEL] Epoch ended. INSTR misses = 0, DATA misses = 0. Winner = INSTR
[DUEL] Epoch ended. INSTR misses = 1, DATA misses = 0. Winner = DATA
Heartbeat CPU 0 instructions: 50000001 cycles: 8520830 heartbeat IPC: 5.773 cumulative IPC: 5.865 (Simulation time: 00 hr 01 min 46 sec)
[DUEL] Epoch ended. INSTR misses = 0, DATA misses = 0. Winner = INSTR
*** Reached end of trace: (0, "../traces/secret_traces/crypto/crypto60.champsimtrace.xz")
[DUEL] Epoch ended. INSTR misses = 10, DATA misses = 9. Winner = DATA
[DUEL] Epoch ended. INSTR misses = 4, DATA misses = 5. Winner = INSTR
[DUEL] Epoch ended. INSTR misses = 0, DATA misses = 0. Winner = INSTR
[DUEL] Epoch ended. INSTR misses = 0, DATA misses = 14. Winner = INSTR
Heartbeat CPU 0 instructions: 60000003 cycles: 10620367 heartbeat IPC: 4.763 cumulative IPC: 5.445 (Simulation time: 00 hr 02 min 10 sec)
[DUEL] Epoch ended. INSTR misses = 0, DATA misses = 0. Winner = INSTR
[DUEL] Epoch ended. INSTR misses = 0, DATA misses = 0. Winner = INSTR
[DUEL] Epoch ended. INSTR misses = 0, DATA misses = 0. Winner = INSTR
[DUEL] Epoch ended. INSTR misses = 0, DATA misses = 0. Winner = INSTR
[DUEL] Epoch ended. INSTR misses = 0, DATA misses = 0. Winner = INSTR
[DUEL] Epoch ended. INSTR misses = 2, DATA misses = 5. Winner = INSTR
[DUEL] Epoch ended. INSTR misses = 2, DATA misses = 1. Winner = DATA
[DUEL] Epoch ended. INSTR misses = 0, DATA misses = 7. Winner = INSTR
[DUEL] Epoch ended. INSTR misses = 10, DATA misses = 6. Winner = DATA
[DUEL] Epoch ended. INSTR misses = 0, DATA misses = 0. Winner = INSTR
[DUEL] Epoch ended. INSTR misses = 0, DATA misses = 0. Winner = INSTR
[DUEL] Epoch ended. INSTR misses = 0, DATA misses = 0. Winner = INSTR
Heartbeat CPU 0 instructions: 70000000 cycles: 12659156 heartbeat IPC: 4.905 cumulative IPC: 5.299 (Simulation time: 00 hr 02 min 36 sec)
[DUEL] Epoch ended. INSTR misses = 0, DATA misses = 0. Winner = INSTR
[DUEL] Epoch ended. INSTR misses = 0, DATA misses = 0. Winner = INSTR
[DUEL] Epoch ended. INSTR misses = 0, DATA misses = 0. Winner = INSTR
[DUEL] Epoch ended. INSTR misses = 2, DATA misses = 4. Winner = INSTR
[DUEL] Epoch ended. INSTR misses = 66, DATA misses = 58. Winner = DATA
[DUEL] Epoch ended. INSTR misses = 19, DATA misses = 13. Winner = DATA
[DUEL] Epoch ended. INSTR misses = 0, DATA misses = 0. Winner = INSTR
[DUEL] Epoch ended. INSTR misses = 0, DATA misses = 0. Winner = INSTR
Heartbeat CPU 0 instructions: 80000002 cycles: 14957122 heartbeat IPC: 4.352 cumulative IPC: 5.078 (Simulation time: 00 hr 03 min 02 sec)
[DUEL] Epoch ended. INSTR misses = 2, DATA misses = 0. Winner = DATA
[DUEL] Epoch ended. INSTR misses = 0, DATA misses = 2. Winner = INSTR
[DUEL] Epoch ended. INSTR misses = 1, DATA misses = 0. Winner = DATA
Heartbeat CPU 0 instructions: 90000000 cycles: 16656815 heartbeat IPC: 5.883 cumulative IPC: 5.197 (Simulation time: 00 hr 03 min 24 sec)
[DUEL] Epoch ended. INSTR misses = 0, DATA misses = 0. Winner = INSTR
[DUEL] Epoch ended. INSTR misses = 0, DATA misses = 0. Winner = INSTR
Heartbeat CPU 0 instructions: 100000000 cycles: 18331619 heartbeat IPC: 5.971 cumulative IPC: 5.295 (Simulation time: 00 hr 03 min 46 sec)
[DUEL] Epoch ended. INSTR misses = 0, DATA misses = 0. Winner = INSTR
[DUEL] Epoch ended. INSTR misses = 0, DATA misses = 0. Winner = INSTR
Heartbeat CPU 0 instructions: 110000005 cycles: 20049438 heartbeat IPC: 5.821 cumulative IPC: 5.355 (Simulation time: 00 hr 04 min 07 sec)
[DUEL] Epoch ended. INSTR misses = 0, DATA misses = 0. Winner = INSTR
*** Reached end of trace: (0, "../traces/secret_traces/crypto/crypto60.champsimtrace.xz")
[DUEL] Epoch ended. INSTR misses = 8, DATA misses = 6. Winner = DATA
[DUEL] Epoch ended. INSTR misses = 2, DATA misses = 1. Winner = DATA
[DUEL] Epoch ended. INSTR misses = 0, DATA misses = 0. Winner = INSTR
[DUEL] Epoch ended. INSTR misses = 0, DATA misses = 11. Winner = INSTR
[DUEL] Epoch ended. INSTR misses = 0, DATA misses = 0. Winner = INSTR
[DUEL] Epoch ended. INSTR misses = 0, DATA misses = 0. Winner = INSTR
[DUEL] Epoch ended. INSTR misses = 0, DATA misses = 0. Winner = INSTR
[DUEL] Epoch ended. INSTR misses = 0, DATA misses = 1. Winner = INSTR
Heartbeat CPU 0 instructions: 120000001 cycles: 22121899 heartbeat IPC: 4.825 cumulative IPC: 5.291 (Simulation time: 00 hr 04 min 31 sec)
[DUEL] Epoch ended. INSTR misses = 0, DATA misses = 0. Winner = INSTR
[DUEL] Epoch ended. INSTR misses = 2, DATA misses = 3. Winner = INSTR
[DUEL] Epoch ended. INSTR misses = 1, DATA misses = 0. Winner = DATA
[DUEL] Epoch ended. INSTR misses = 0, DATA misses = 6. Winner = INSTR
[DUEL] Epoch ended. INSTR misses = 9, DATA misses = 6. Winner = DATA
[DUEL] Epoch ended. INSTR misses = 0, DATA misses = 0. Winner = INSTR
[DUEL] Epoch ended. INSTR misses = 0, DATA misses = 0. Winner = INSTR
Heartbeat CPU 0 instructions: 130000006 cycles: 24053658 heartbeat IPC: 5.177 cumulative IPC: 5.279 (Simulation time: 00 hr 04 min 57 sec)
Simulation finished CPU 0 instructions: 100000004 cycles: 18942615 cumulative IPC: 5.279 (Simulation time: 00 hr 04 min 57 sec)
Simulation complete CPU 0 instructions: 100000004 cycles: 18942615 cumulative IPC: 5.279 (Simulation time: 00 hr 04 min 57 sec)

ChampSim completed all CPUs

=== Simulation ===
CPU 0 runs ../traces/secret_traces/crypto/crypto60.champsimtrace.xz
Region of Interest Statistics

CPU 0 cumulative IPC: 5.279 instructions: 100000004 cycles: 18942615
CPU 0 Branch Prediction Accuracy: 99.07% MPKI: 0.572 Average ROB Occupancy at Mispredict: 29.71
Branch type MPKI
BRANCH_DIRECT_JUMP: 0.0263
BRANCH_INDIRECT: 0.271
BRANCH_CONDITIONAL: 0.151
BRANCH_DIRECT_CALL: 0.076
BRANCH_INDIRECT_CALL: 0.00873
BRANCH_RETURN: 0.0389

LLC TOTAL        ACCESS:     156511 HIT:     105607 MISS:      50904
LLC LOAD         ACCESS:      16341 HIT:       8336 MISS:       8005
LLC RFO          ACCESS:      45113 HIT:      31566 MISS:      13547
LLC PREFETCH     ACCESS:      41390 HIT:      20981 MISS:      20409
LLC WRITE        ACCESS:      52629 HIT:      44495 MISS:       8134
LLC TRANSLATION  ACCESS:       1038 HIT:        229 MISS:        809
LLC PREFETCH REQUESTED:          0 ISSUED:          0 USEFUL:          0 USELESS:          0
LLC AVERAGE MISS LATENCY: 172.8 cycles
cpu0_DTLB TOTAL        ACCESS:    9618899 HIT:    9603355 MISS:      15544
cpu0_DTLB LOAD         ACCESS:    9618899 HIT:    9603355 MISS:      15544
cpu0_DTLB RFO          ACCESS:          0 HIT:          0 MISS:          0
cpu0_DTLB PREFETCH     ACCESS:          0 HIT:          0 MISS:          0
cpu0_DTLB WRITE        ACCESS:          0 HIT:          0 MISS:          0
cpu0_DTLB TRANSLATION  ACCESS:          0 HIT:          0 MISS:          0
cpu0_DTLB PREFETCH REQUESTED:          0 ISSUED:          0 USEFUL:          0 USELESS:          0
cpu0_DTLB AVERAGE MISS LATENCY: 12.66 cycles
cpu0_ITLB TOTAL        ACCESS:    2889572 HIT:    2882451 MISS:       7121
cpu0_ITLB LOAD         ACCESS:    2889572 HIT:    2882451 MISS:       7121
cpu0_ITLB RFO          ACCESS:          0 HIT:          0 MISS:          0
cpu0_ITLB PREFETCH     ACCESS:          0 HIT:          0 MISS:          0
cpu0_ITLB WRITE        ACCESS:          0 HIT:          0 MISS:          0
cpu0_ITLB TRANSLATION  ACCESS:          0 HIT:          0 MISS:          0
cpu0_ITLB PREFETCH REQUESTED:          0 ISSUED:          0 USEFUL:          0 USELESS:          0
cpu0_ITLB AVERAGE MISS LATENCY: 18.94 cycles
cpu0_L1D TOTAL        ACCESS:   14568115 HIT:   14347297 MISS:     220818
cpu0_L1D LOAD         ACCESS:    8464230 HIT:    8405283 MISS:      58947
cpu0_L1D RFO          ACCESS:          0 HIT:          0 MISS:          0
cpu0_L1D PREFETCH     ACCESS:     729843 HIT:     685359 MISS:      44484
cpu0_L1D WRITE        ACCESS:    5371897 HIT:    5255897 MISS:     116000
cpu0_L1D TRANSLATION  ACCESS:       2145 HIT:        758 MISS:       1387
cpu0_L1D PREFETCH REQUESTED:    4997386 ISSUED:     729843 USEFUL:       4257 USELESS:        607
cpu0_L1D AVERAGE MISS LATENCY: 33.12 cycles
cpu0_L1I TOTAL        ACCESS:    4431831 HIT:    4334545 MISS:      97286
cpu0_L1I LOAD         ACCESS:    1441858 HIT:    1417062 MISS:      24796
cpu0_L1I RFO          ACCESS:          0 HIT:          0 MISS:          0
cpu0_L1I PREFETCH     ACCESS:    2989973 HIT:    2917483 MISS:      72490
cpu0_L1I WRITE        ACCESS:          0 HIT:          0 MISS:          0
cpu0_L1I TRANSLATION  ACCESS:          0 HIT:          0 MISS:          0
cpu0_L1I PREFETCH REQUESTED:    7031338 ISSUED:    2989973 USEFUL:      39012 USELESS:      29629
cpu0_L1I AVERAGE MISS LATENCY: 26.43 cycles
cpu0_L2C TOTAL        ACCESS:     429880 HIT:     294668 MISS:     135212
cpu0_L2C LOAD         ACCESS:      55340 HIT:      35512 MISS:      19828
cpu0_L2C RFO          ACCESS:      49801 HIT:       4652 MISS:      45149
cpu0_L2C PREFETCH     ACCESS:     264888 HIT:     195691 MISS:      69197
cpu0_L2C WRITE        ACCESS:      58523 HIT:      58523 MISS:          0
cpu0_L2C TRANSLATION  ACCESS:       1328 HIT:        290 MISS:       1038
cpu0_L2C PREFETCH REQUESTED:     163146 ISSUED:     157082 USEFUL:      11214 USELESS:       9218
cpu0_L2C AVERAGE MISS LATENCY: 78.17 cycles
cpu0_STLB TOTAL        ACCESS:      10890 HIT:       8916 MISS:       1974
cpu0_STLB LOAD         ACCESS:      10890 HIT:       8916 MISS:       1974
cpu0_STLB RFO          ACCESS:          0 HIT:          0 MISS:          0
cpu0_STLB PREFETCH     ACCESS:          0 HIT:          0 MISS:          0
cpu0_STLB WRITE        ACCESS:          0 HIT:          0 MISS:          0
cpu0_STLB TRANSLATION  ACCESS:          0 HIT:          0 MISS:          0
cpu0_STLB PREFETCH REQUESTED:          0 ISSUED:          0 USEFUL:          0 USELESS:          0
cpu0_STLB AVERAGE MISS LATENCY: 142.5 cycles

DRAM Statistics

Channel 0 RQ ROW_BUFFER_HIT:       9821
  ROW_BUFFER_MISS:      11884
 AVG DBUS CONGESTED CYCLE: 3.902
WQ ROW_BUFFER_HIT: Channel 0 
  ROW_BUFFER_MISS:        979
  FULL:       7217

Channel 1 RQ ROW_BUFFER_HIT:       9420
  ROW_BUFFER_MISS:      11632
 AVG DBUS CONGESTED CYCLE: 3.89
WQ ROW_BUFFER_HIT: Channel 1 
  ROW_BUFFER_MISS:       1039
  FULL:       6723
BERTI TO_L1: 3008453 TO_L2: 5073391 TO_L2_BC_MSHR: 756773
BERTI AVG_LAT: 57.1555 NUM_TRACK_LATENCY: 75950 NUM_CANT_TRACK_LATENCY: 0
BERTI CROSS_PAGE 2173725 NO_CROSS_PAGE: 5908119
BERTI FOUND_BERTI: 1239414 NO_FOUND_BERTI: 10385666
BERTI AVERAGE_ISSUED: 3.32696
CPU 0 L1I Entangling prefetcher final stats
IP accesses: 289b a26c0 57853 / 1442208
IP misses: 5f85 17e140 336 / 25146
IP hits: 0 0 0 / 0
IP late: 5f41 17d040 81 / 11613
IP wrong: 5f9e 17e780 225 / 29513
miss rate: 0.0174358
coverage: 0
coverage_late: 0.461823
accuracy: 0
accuracy_late: 0.282377
discarded: 0
evicts entangled j table: 0
evicts entangled k table: 3461
max bb size: 53
formats: 795 0 3428 1406 724 1543 0 
hist_lookups: 3231 3098 2380 2004 1830 1484 1189 839 606 523 356 233 142 75 43 0 3 4373 
hist_lookups_evict: 0.0133875 %
hist_lookups_shortlat: 19.5145 %
bb_found_hist: 0 155369 144295 54682 55914 76121 68820 11185 190 173 4453 5082 459 20 7402 15 2 4 0 0 0 2 7818 2400 2574 17763 1913 0 493 0 0 2 0 8 2 0 1909 0 0 888 0 0 5436 0 5214 0 0 0 0 0 0 0 0 2 0 0 0 0 0 0 0 0 0 0 
bb_found_summary: 3274926 630610 5.19327
entangled_found_hist: 0 152650 84595 217841 15499 7166 1130 0 
entangled_found_summary: 1079969 478881 2.2552
bb_ent_found_hist: 0 371962 189143 103657 50920 26363 23508 25731 549 35 0 3554 1676 13 11 37 136 2 0 0 0 6 12 6 15330 0 0 0 759 0 0 2 0 5381 3 0 6686 0 0 11 0 0 0 0 2921 0 0 0 0 0 0 0 0 3 0 0 0 0 0 0 0 0 0 0 
bb_ent_found_summary: 2722125 828417 3.28594
