WARNING: physical memory size is smaller than virtual memory size.

*** ChampSim Multicore Out-of-Order Simulator ***
Warmup Instructions: 30000000
Simulation Instructions: 100000000
Number of CPUs: 1
Page size: 4096

BTB:
Basic BTB sets: 1024 ways: 8
Indirect:
history lengths: 0 0 10 16 27 44 60 96 109 219 449 487 714 1313 2146 3881 
ITTAGE tables: 64768 bytes;Region table: 240 bytes;IUM: 384 bytes;Total Storage= 65392 bytes;
RAS:
RAS size: 64
[LLC] INSTR Demand IPV: 1 2 2 1 4 Prefetch IPV: 1 2 1 1 4
[LLC] DATA  Demand IPV: 1 1 1 2 4 Prefetch IPV: 1 1 2 2 4
Berti Prefetcher
CPU 0 Entangling prefetcher
Off-chip DRAM Size: 8 GiB Channels: 2 Width: 64-bit Data Race: 6400 MT/s
[DUEL] Epoch ended. INSTR misses = 50, DATA misses = 46. Winner = DATA
[DUEL] Epoch ended. INSTR misses = 16, DATA misses = 16. Winner = INSTR
[DUEL] Epoch ended. INSTR misses = 0, DATA misses = 0. Winner = INSTR
[DUEL] Epoch ended. INSTR misses = 0, DATA misses = 0. Winner = INSTR
[DUEL] Epoch ended. INSTR misses = 0, DATA misses = 0. Winner = INSTR
[DUEL] Epoch ended. INSTR misses = 0, DATA misses = 0. Winner = INSTR
[DUEL] Epoch ended. INSTR misses = 16, DATA misses = 16. Winner = INSTR
[DUEL] Epoch ended. INSTR misses = 0, DATA misses = 0. Winner = INSTR
[DUEL] Epoch ended. INSTR misses = 0, DATA misses = 0. Winner = INSTR
[DUEL] Epoch ended. INSTR misses = 0, DATA misses = 1. Winner = INSTR
[DUEL] Epoch ended. INSTR misses = 1, DATA misses = 0. Winner = DATA
[DUEL] Epoch ended. INSTR misses = 3, DATA misses = 3. Winner = INSTR
Heartbeat CPU 0 instructions: 10000002 cycles: 1714782 heartbeat IPC: 5.832 cumulative IPC: 5.832 (Simulation time: 00 hr 00 min 21 sec)
[DUEL] Epoch ended. INSTR misses = 15, DATA misses = 14. Winner = DATA
[DUEL] Epoch ended. INSTR misses = 17, DATA misses = 20. Winner = INSTR
[DUEL] Epoch ended. INSTR misses = 89, DATA misses = 83. Winner = DATA
Heartbeat CPU 0 instructions: 20000000 cycles: 3431024 heartbeat IPC: 5.827 cumulative IPC: 5.829 (Simulation time: 00 hr 00 min 43 sec)
[DUEL] Epoch ended. INSTR misses = 26, DATA misses = 19. Winner = DATA
Heartbeat CPU 0 instructions: 30000000 cycles: 5097763 heartbeat IPC: 6 cumulative IPC: 5.885 (Simulation time: 00 hr 01 min 04 sec)
Warmup finished CPU 0 instructions: 30000000 cycles: 5097764 cumulative IPC: 5.885 (Simulation time: 00 hr 01 min 04 sec)
Warmup complete CPU 0 instructions: 30000000 cycles: 5097764 cumulative IPC: 5.885 (Simulation time: 00 hr 01 min 04 sec)
[DUEL] Epoch ended. INSTR misses = 0, DATA misses = 0. Winner = INSTR
Heartbeat CPU 0 instructions: 40000002 cycles: 6765310 heartbeat IPC: 5.997 cumulative IPC: 5.997 (Simulation time: 00 hr 01 min 27 sec)
[DUEL] Epoch ended. INSTR misses = 0, DATA misses = 0. Winner = INSTR
*** Reached end of trace: (0, "../traces/secret_traces/crypto/crypto68.champsimtrace.xz")
[DUEL] Epoch ended. INSTR misses = 30, DATA misses = 19. Winner = DATA
[DUEL] Epoch ended. INSTR misses = 11, DATA misses = 9. Winner = DATA
[DUEL] Epoch ended. INSTR misses = 0, DATA misses = 0. Winner = INSTR
[DUEL] Epoch ended. INSTR misses = 0, DATA misses = 0. Winner = INSTR
[DUEL] Epoch ended. INSTR misses = 0, DATA misses = 0. Winner = INSTR
[DUEL] Epoch ended. INSTR misses = 7, DATA misses = 2. Winner = DATA
[DUEL] Epoch ended. INSTR misses = 0, DATA misses = 3. Winner = INSTR
[DUEL] Epoch ended. INSTR misses = 9, DATA misses = 5. Winner = DATA
[DUEL] Epoch ended. INSTR misses = 0, DATA misses = 0. Winner = INSTR
[DUEL] Epoch ended. INSTR misses = 4, DATA misses = 8. Winner = INSTR
[DUEL] Epoch ended. INSTR misses = 0, DATA misses = 4. Winner = INSTR
[DUEL] Epoch ended. INSTR misses = 0, DATA misses = 0. Winner = INSTR
Heartbeat CPU 0 instructions: 50000001 cycles: 9108428 heartbeat IPC: 4.268 cumulative IPC: 4.987 (Simulation time: 00 hr 01 min 55 sec)
[DUEL] Epoch ended. INSTR misses = 3, DATA misses = 0. Winner = DATA
Heartbeat CPU 0 instructions: 60000005 cycles: 10828988 heartbeat IPC: 5.812 cumulative IPC: 5.234 (Simulation time: 00 hr 02 min 18 sec)
[DUEL] Epoch ended. INSTR misses = 13, DATA misses = 12. Winner = DATA
[DUEL] Epoch ended. INSTR misses = 6, DATA misses = 2. Winner = DATA
[DUEL] Epoch ended. INSTR misses = 48, DATA misses = 30. Winner = DATA
Heartbeat CPU 0 instructions: 70000001 cycles: 13062467 heartbeat IPC: 4.477 cumulative IPC: 5.022 (Simulation time: 00 hr 02 min 45 sec)
[DUEL] Epoch ended. INSTR misses = 11, DATA misses = 6. Winner = DATA
Heartbeat CPU 0 instructions: 80000002 cycles: 14742386 heartbeat IPC: 5.953 cumulative IPC: 5.184 (Simulation time: 00 hr 03 min 09 sec)
[DUEL] Epoch ended. INSTR misses = 1, DATA misses = 0. Winner = DATA
[DUEL] Epoch ended. INSTR misses = 0, DATA misses = 0. Winner = INSTR
*** Reached end of trace: (0, "../traces/secret_traces/crypto/crypto68.champsimtrace.xz")
[DUEL] Epoch ended. INSTR misses = 17, DATA misses = 12. Winner = DATA
[DUEL] Epoch ended. INSTR misses = 10, DATA misses = 3. Winner = DATA
[DUEL] Epoch ended. INSTR misses = 0, DATA misses = 0. Winner = INSTR
Heartbeat CPU 0 instructions: 90000005 cycles: 16705663 heartbeat IPC: 5.094 cumulative IPC: 5.169 (Simulation time: 00 hr 03 min 34 sec)
[DUEL] Epoch ended. INSTR misses = 0, DATA misses = 0. Winner = INSTR
[DUEL] Epoch ended. INSTR misses = 0, DATA misses = 0. Winner = INSTR
[DUEL] Epoch ended. INSTR misses = 3, DATA misses = 2. Winner = DATA
[DUEL] Epoch ended. INSTR misses = 0, DATA misses = 0. Winner = INSTR
[DUEL] Epoch ended. INSTR misses = 2, DATA misses = 2. Winner = INSTR
[DUEL] Epoch ended. INSTR misses = 0, DATA misses = 0. Winner = INSTR
[DUEL] Epoch ended. INSTR misses = 3, DATA misses = 7. Winner = INSTR
[DUEL] Epoch ended. INSTR misses = 0, DATA misses = 0. Winner = INSTR
[DUEL] Epoch ended. INSTR misses = 0, DATA misses = 0. Winner = INSTR
[DUEL] Epoch ended. INSTR misses = 3, DATA misses = 3. Winner = INSTR
Heartbeat CPU 0 instructions: 100000000 cycles: 18636763 heartbeat IPC: 5.178 cumulative IPC: 5.17 (Simulation time: 00 hr 04 min 00 sec)
[DUEL] Epoch ended. INSTR misses = 11, DATA misses = 9. Winner = DATA
[DUEL] Epoch ended. INSTR misses = 4, DATA misses = 3. Winner = DATA
[DUEL] Epoch ended. INSTR misses = 44, DATA misses = 29. Winner = DATA
Heartbeat CPU 0 instructions: 110000008 cycles: 20771104 heartbeat IPC: 4.685 cumulative IPC: 5.104 (Simulation time: 00 hr 04 min 26 sec)
[DUEL] Epoch ended. INSTR misses = 13, DATA misses = 10. Winner = DATA
Heartbeat CPU 0 instructions: 120000000 cycles: 22449547 heartbeat IPC: 5.958 cumulative IPC: 5.187 (Simulation time: 00 hr 04 min 50 sec)
[DUEL] Epoch ended. INSTR misses = 0, DATA misses = 0. Winner = INSTR
Heartbeat CPU 0 instructions: 130000005 cycles: 24117006 heartbeat IPC: 5.997 cumulative IPC: 5.258 (Simulation time: 00 hr 05 min 14 sec)
Simulation finished CPU 0 instructions: 100000005 cycles: 19019243 cumulative IPC: 5.258 (Simulation time: 00 hr 05 min 14 sec)
Simulation complete CPU 0 instructions: 100000005 cycles: 19019243 cumulative IPC: 5.258 (Simulation time: 00 hr 05 min 14 sec)

ChampSim completed all CPUs

=== Simulation ===
CPU 0 runs ../traces/secret_traces/crypto/crypto68.champsimtrace.xz
Region of Interest Statistics

CPU 0 cumulative IPC: 5.258 instructions: 100000005 cycles: 19019243
CPU 0 Branch Prediction Accuracy: 99.68% MPKI: 0.5255 Average ROB Occupancy at Mispredict: 30.05
Branch type MPKI
BRANCH_DIRECT_JUMP: 0.0287
BRANCH_INDIRECT: 0.26
BRANCH_CONDITIONAL: 0.105
BRANCH_DIRECT_CALL: 0.0791
BRANCH_INDIRECT_CALL: 0.0095
BRANCH_RETURN: 0.0437

LLC TOTAL        ACCESS:     228677 HIT:     158558 MISS:      70119
LLC LOAD         ACCESS:      24021 HIT:      12828 MISS:      11193
LLC RFO          ACCESS:      70320 HIT:      51468 MISS:      18852
LLC PREFETCH     ACCESS:      55091 HIT:      29043 MISS:      26048
LLC WRITE        ACCESS:      77969 HIT:      64969 MISS:      13000
LLC TRANSLATION  ACCESS:       1276 HIT:        250 MISS:       1026
LLC PREFETCH REQUESTED:          0 ISSUED:          0 USEFUL:          0 USELESS:          0
LLC AVERAGE MISS LATENCY: 163.9 cycles
cpu0_DTLB TOTAL        ACCESS:   12164231 HIT:   12142238 MISS:      21993
cpu0_DTLB LOAD         ACCESS:   12164231 HIT:   12142238 MISS:      21993
cpu0_DTLB RFO          ACCESS:          0 HIT:          0 MISS:          0
cpu0_DTLB PREFETCH     ACCESS:          0 HIT:          0 MISS:          0
cpu0_DTLB WRITE        ACCESS:          0 HIT:          0 MISS:          0
cpu0_DTLB TRANSLATION  ACCESS:          0 HIT:          0 MISS:          0
cpu0_DTLB PREFETCH REQUESTED:          0 ISSUED:          0 USEFUL:          0 USELESS:          0
cpu0_DTLB AVERAGE MISS LATENCY: 10.95 cycles
cpu0_ITLB TOTAL        ACCESS:     383175 HIT:     375394 MISS:       7781
cpu0_ITLB LOAD         ACCESS:     383175 HIT:     375394 MISS:       7781
cpu0_ITLB RFO          ACCESS:          0 HIT:          0 MISS:          0
cpu0_ITLB PREFETCH     ACCESS:          0 HIT:          0 MISS:          0
cpu0_ITLB WRITE        ACCESS:          0 HIT:          0 MISS:          0
cpu0_ITLB TRANSLATION  ACCESS:          0 HIT:          0 MISS:          0
cpu0_ITLB PREFETCH REQUESTED:          0 ISSUED:          0 USEFUL:          0 USELESS:          0
cpu0_ITLB AVERAGE MISS LATENCY: 20.91 cycles
cpu0_L1D TOTAL        ACCESS:   20102750 HIT:   19776004 MISS:     326746
cpu0_L1D LOAD         ACCESS:    7132812 HIT:    7048264 MISS:      84548
cpu0_L1D RFO          ACCESS:          0 HIT:          0 MISS:          0
cpu0_L1D PREFETCH     ACCESS:     284236 HIT:     228919 MISS:      55317
cpu0_L1D WRITE        ACCESS:   12683097 HIT:   12497848 MISS:     185249
cpu0_L1D TRANSLATION  ACCESS:       2605 HIT:        973 MISS:       1632
cpu0_L1D PREFETCH REQUESTED:    2113788 ISSUED:     284236 USEFUL:       6185 USELESS:        589
cpu0_L1D AVERAGE MISS LATENCY: 31.98 cycles
cpu0_L1I TOTAL        ACCESS:     558031 HIT:     463156 MISS:      94875
cpu0_L1I LOAD         ACCESS:     184678 HIT:     160764 MISS:      23914
cpu0_L1I RFO          ACCESS:          0 HIT:          0 MISS:          0
cpu0_L1I PREFETCH     ACCESS:     373353 HIT:     302392 MISS:      70961
cpu0_L1I WRITE        ACCESS:          0 HIT:          0 MISS:          0
cpu0_L1I TRANSLATION  ACCESS:          0 HIT:          0 MISS:          0
cpu0_L1I PREFETCH REQUESTED:     572197 ISSUED:     373353 USEFUL:      39033 USELESS:      28449
cpu0_L1I AVERAGE MISS LATENCY: 30.82 cycles
cpu0_L2C TOTAL        ACCESS:     528198 HIT:     332613 MISS:     195585
cpu0_L2C LOAD         ACCESS:      71239 HIT:      41224 MISS:      30015
cpu0_L2C RFO          ACCESS:      76703 HIT:       6338 MISS:      70365
cpu0_L2C PREFETCH     ACCESS:     290713 HIT:     196784 MISS:      93929
cpu0_L2C WRITE        ACCESS:      87973 HIT:      87973 MISS:          0
cpu0_L2C TRANSLATION  ACCESS:       1570 HIT:        294 MISS:       1276
cpu0_L2C PREFETCH REQUESTED:     184340 ISSUED:     177612 USEFUL:      15029 USELESS:      13097
cpu0_L2C AVERAGE MISS LATENCY: 71.94 cycles
cpu0_STLB TOTAL        ACCESS:      13279 HIT:      10886 MISS:       2393
cpu0_STLB LOAD         ACCESS:      13279 HIT:      10886 MISS:       2393
cpu0_STLB RFO          ACCESS:          0 HIT:          0 MISS:          0
cpu0_STLB PREFETCH     ACCESS:          0 HIT:          0 MISS:          0
cpu0_STLB WRITE        ACCESS:          0 HIT:          0 MISS:          0
cpu0_STLB TRANSLATION  ACCESS:          0 HIT:          0 MISS:          0
cpu0_STLB PREFETCH REQUESTED:          0 ISSUED:          0 USEFUL:          0 USELESS:          0
cpu0_STLB AVERAGE MISS LATENCY: 145.9 cycles

DRAM Statistics

Channel 0 RQ ROW_BUFFER_HIT:      13963
  ROW_BUFFER_MISS:      15164
 AVG DBUS CONGESTED CYCLE: 3.901
WQ ROW_BUFFER_HIT: Channel 0 
  ROW_BUFFER_MISS:       1182
  FULL:       8967

Channel 1 RQ ROW_BUFFER_HIT:      13586
  ROW_BUFFER_MISS:      14391
 AVG DBUS CONGESTED CYCLE: 3.899
WQ ROW_BUFFER_HIT: Channel 1 
  ROW_BUFFER_MISS:       1224
  FULL:       8649
BERTI TO_L1: 813026 TO_L2: 1785992 TO_L2_BC_MSHR: 1058180
BERTI AVG_LAT: 63.0214 NUM_TRACK_LATENCY: 93371 NUM_CANT_TRACK_LATENCY: 0
BERTI CROSS_PAGE 550565 NO_CROSS_PAGE: 2048453
BERTI FOUND_BERTI: 489815 NO_FOUND_BERTI: 9388394
BERTI AVERAGE_ISSUED: 4.2293
CPU 0 L1I Entangling prefetcher final stats
IP accesses: 77e1 1df840 805 / 185283
IP misses: 4e4d 139340 126 / 24519
IP hits: 0 0 0 / 0
IP late: 6e9e 1ba780 50 / 11631
IP wrong: 251e 94780 67 / 28354
miss rate: 0.132333
coverage: 0
coverage_late: 0.474367
accuracy: 0
accuracy_late: 0.290885
discarded: 0
evicts entangled j table: 0
evicts entangled k table: 3827
max bb size: 53
formats: 912 0 3457 1663 710 1594 0 
hist_lookups: 3031 3187 2385 2217 2012 1682 1201 973 721 564 383 266 151 84 39 0 3 4052 
hist_lookups_evict: 0.0130714 %
hist_lookups_shortlat: 17.6551 %
bb_found_hist: 0 45913 19337 9735 4179 2248 941 724 262 51 2 69 57 46 15 21 2 4 0 0 1 2 0 0 0 0 0 0 0 0 0 2 2 0 2 0 0 0 0 0 0 0 0 0 0 0 0 0 0 0 0 0 0 1 0 0 0 0 0 0 0 0 0 0 
bb_found_summary: 158012 83616 1.88974
entangled_found_hist: 0 24851 17141 32242 6137 1133 187 0 
entangled_found_summary: 187194 81691 2.29149
bb_ent_found_hist: 0 64014 27897 19741 7157 4975 1731 1037 983 18 0 67 58 45 8 98 142 2 0 0 1 17 0 0 0 0 0 0 0 0 0 2 2 0 3 0 0 0 0 0 0 0 0 0 0 0 0 0 0 0 0 0 0 1 0 0 0 0 0 0 0 0 0 0 
bb_ent_found_summary: 264769 127999 2.06853
