WARNING: physical memory size is smaller than virtual memory size.

*** ChampSim Multicore Out-of-Order Simulator ***
Warmup Instructions: 30000000
Simulation Instructions: 100000000
Number of CPUs: 1
Page size: 4096

BTB:
Basic BTB sets: 1024 ways: 8
Indirect:
history lengths: 0 0 10 16 27 44 60 96 109 219 449 487 714 1313 2146 3881 
ITTAGE tables: 64768 bytes;Region table: 240 bytes;IUM: 384 bytes;Total Storage= 65392 bytes;
RAS:
RAS size: 64
[LLC] INSTR Demand IPV: 1 2 2 1 4 Prefetch IPV: 1 2 1 1 4
[LLC] DATA  Demand IPV: 1 1 1 2 4 Prefetch IPV: 1 1 2 2 4
Berti Prefetcher
CPU 0 Entangling prefetcher
Off-chip DRAM Size: 8 GiB Channels: 2 Width: 64-bit Data Race: 6400 MT/s
[DUEL] Epoch ended. INSTR misses = 53, DATA misses = 45. Winner = DATA
[DUEL] Epoch ended. INSTR misses = 16, DATA misses = 16. Winner = INSTR
[DUEL] Epoch ended. INSTR misses = 1, DATA misses = 0. Winner = DATA
[DUEL] Epoch ended. INSTR misses = 0, DATA misses = 0. Winner = INSTR
[DUEL] Epoch ended. INSTR misses = 0, DATA misses = 0. Winner = INSTR
[DUEL] Epoch ended. INSTR misses = 0, DATA misses = 0. Winner = INSTR
[DUEL] Epoch ended. INSTR misses = 0, DATA misses = 0. Winner = INSTR
[DUEL] Epoch ended. INSTR misses = 0, DATA misses = 0. Winner = INSTR
[DUEL] Epoch ended. INSTR misses = 0, DATA misses = 0. Winner = INSTR
[DUEL] Epoch ended. INSTR misses = 5, DATA misses = 10. Winner = INSTR
[DUEL] Epoch ended. INSTR misses = 0, DATA misses = 0. Winner = INSTR
[DUEL] Epoch ended. INSTR misses = 8, DATA misses = 1. Winner = DATA
[DUEL] Epoch ended. INSTR misses = 16, DATA misses = 18. Winner = INSTR
Heartbeat CPU 0 instructions: 10000004 cycles: 1715474 heartbeat IPC: 5.829 cumulative IPC: 5.829 (Simulation time: 00 hr 00 min 19 sec)
[DUEL] Epoch ended. INSTR misses = 10, DATA misses = 11. Winner = INSTR
[DUEL] Epoch ended. INSTR misses = 20, DATA misses = 21. Winner = INSTR
[DUEL] Epoch ended. INSTR misses = 87, DATA misses = 83. Winner = DATA
Heartbeat CPU 0 instructions: 20000001 cycles: 3431529 heartbeat IPC: 5.827 cumulative IPC: 5.828 (Simulation time: 00 hr 00 min 38 sec)
[DUEL] Epoch ended. INSTR misses = 22, DATA misses = 19. Winner = DATA
*** Reached end of trace: (0, "../traces/secret_traces/crypto/crypto104.champsimtrace.xz")
[DUEL] Epoch ended. INSTR misses = 15, DATA misses = 20. Winner = INSTR
[DUEL] Epoch ended. INSTR misses = 22, DATA misses = 13. Winner = DATA
[DUEL] Epoch ended. INSTR misses = 0, DATA misses = 1. Winner = INSTR
[DUEL] Epoch ended. INSTR misses = 1, DATA misses = 0. Winner = DATA
[DUEL] Epoch ended. INSTR misses = 0, DATA misses = 0. Winner = INSTR
[DUEL] Epoch ended. INSTR misses = 0, DATA misses = 0. Winner = INSTR
[DUEL] Epoch ended. INSTR misses = 0, DATA misses = 0. Winner = INSTR
[DUEL] Epoch ended. INSTR misses = 0, DATA misses = 0. Winner = INSTR
[DUEL] Epoch ended. INSTR misses = 0, DATA misses = 0. Winner = INSTR
[DUEL] Epoch ended. INSTR misses = 4, DATA misses = 4. Winner = INSTR
Heartbeat CPU 0 instructions: 30000005 cycles: 5127368 heartbeat IPC: 5.897 cumulative IPC: 5.851 (Simulation time: 00 hr 00 min 57 sec)
Warmup finished CPU 0 instructions: 30000005 cycles: 5127369 cumulative IPC: 5.851 (Simulation time: 00 hr 00 min 57 sec)
Warmup complete CPU 0 instructions: 30000005 cycles: 5127369 cumulative IPC: 5.851 (Simulation time: 00 hr 00 min 57 sec)
[DUEL] Epoch ended. INSTR misses = 1, DATA misses = 0. Winner = DATA
[DUEL] Epoch ended. INSTR misses = 2, DATA misses = 0. Winner = DATA
[DUEL] Epoch ended. INSTR misses = 1, DATA misses = 0. Winner = DATA
Heartbeat CPU 0 instructions: 40000009 cycles: 7206505 heartbeat IPC: 4.81 cumulative IPC: 4.81 (Simulation time: 00 hr 01 min 22 sec)
[DUEL] Epoch ended. INSTR misses = 5, DATA misses = 4. Winner = DATA
[DUEL] Epoch ended. INSTR misses = 2, DATA misses = 1. Winner = DATA
[DUEL] Epoch ended. INSTR misses = 30, DATA misses = 18. Winner = DATA
Heartbeat CPU 0 instructions: 50000005 cycles: 9636882 heartbeat IPC: 4.115 cumulative IPC: 4.435 (Simulation time: 00 hr 01 min 48 sec)
[DUEL] Epoch ended. INSTR misses = 16, DATA misses = 15. Winner = DATA
*** Reached end of trace: (0, "../traces/secret_traces/crypto/crypto104.champsimtrace.xz")
[DUEL] Epoch ended. INSTR misses = 16, DATA misses = 10. Winner = DATA
[DUEL] Epoch ended. INSTR misses = 11, DATA misses = 10. Winner = DATA
[DUEL] Epoch ended. INSTR misses = 0, DATA misses = 0. Winner = INSTR
[DUEL] Epoch ended. INSTR misses = 1, DATA misses = 0. Winner = DATA
[DUEL] Epoch ended. INSTR misses = 0, DATA misses = 0. Winner = INSTR
[DUEL] Epoch ended. INSTR misses = 0, DATA misses = 0. Winner = INSTR
[DUEL] Epoch ended. INSTR misses = 0, DATA misses = 0. Winner = INSTR
[DUEL] Epoch ended. INSTR misses = 0, DATA misses = 0. Winner = INSTR
[DUEL] Epoch ended. INSTR misses = 0, DATA misses = 0. Winner = INSTR
[DUEL] Epoch ended. INSTR misses = 0, DATA misses = 4. Winner = INSTR
[DUEL] Epoch ended. INSTR misses = 1, DATA misses = 0. Winner = DATA
[DUEL] Epoch ended. INSTR misses = 3, DATA misses = 0. Winner = DATA
Heartbeat CPU 0 instructions: 60000001 cycles: 11990085 heartbeat IPC: 4.25 cumulative IPC: 4.371 (Simulation time: 00 hr 02 min 15 sec)
[DUEL] Epoch ended. INSTR misses = 2, DATA misses = 4. Winner = INSTR
Heartbeat CPU 0 instructions: 70000005 cycles: 13929225 heartbeat IPC: 5.157 cumulative IPC: 4.544 (Simulation time: 00 hr 02 min 39 sec)
[DUEL] Epoch ended. INSTR misses = 4, DATA misses = 4. Winner = INSTR
[DUEL] Epoch ended. INSTR misses = 0, DATA misses = 0. Winner = INSTR
[DUEL] Epoch ended. INSTR misses = 23, DATA misses = 16. Winner = DATA
Heartbeat CPU 0 instructions: 80000000 cycles: 16295949 heartbeat IPC: 4.225 cumulative IPC: 4.477 (Simulation time: 00 hr 03 min 05 sec)
[DUEL] Epoch ended. INSTR misses = 16, DATA misses = 15. Winner = DATA
*** Reached end of trace: (0, "../traces/secret_traces/crypto/crypto104.champsimtrace.xz")
[DUEL] Epoch ended. INSTR misses = 15, DATA misses = 6. Winner = DATA
[DUEL] Epoch ended. INSTR misses = 10, DATA misses = 10. Winner = INSTR
[DUEL] Epoch ended. INSTR misses = 0, DATA misses = 0. Winner = INSTR
[DUEL] Epoch ended. INSTR misses = 1, DATA misses = 0. Winner = DATA
[DUEL] Epoch ended. INSTR misses = 0, DATA misses = 0. Winner = INSTR
[DUEL] Epoch ended. INSTR misses = 0, DATA misses = 0. Winner = INSTR
[DUEL] Epoch ended. INSTR misses = 0, DATA misses = 0. Winner = INSTR
[DUEL] Epoch ended. INSTR misses = 0, DATA misses = 0. Winner = INSTR
[DUEL] Epoch ended. INSTR misses = 0, DATA misses = 0. Winner = INSTR
[DUEL] Epoch ended. INSTR misses = 1, DATA misses = 4. Winner = INSTR
[DUEL] Epoch ended. INSTR misses = 0, DATA misses = 0. Winner = INSTR
[DUEL] Epoch ended. INSTR misses = 3, DATA misses = 0. Winner = DATA
[DUEL] Epoch ended. INSTR misses = 2, DATA misses = 0. Winner = DATA
Heartbeat CPU 0 instructions: 90000000 cycles: 18655458 heartbeat IPC: 4.238 cumulative IPC: 4.435 (Simulation time: 00 hr 03 min 32 sec)
[DUEL] Epoch ended. INSTR misses = 4, DATA misses = 3. Winner = DATA
Heartbeat CPU 0 instructions: 100000002 cycles: 20586303 heartbeat IPC: 5.179 cumulative IPC: 4.528 (Simulation time: 00 hr 03 min 56 sec)
[DUEL] Epoch ended. INSTR misses = 0, DATA misses = 0. Winner = INSTR
[DUEL] Epoch ended. INSTR misses = 21, DATA misses = 14. Winner = DATA
[DUEL] Epoch ended. INSTR misses = 16, DATA misses = 13. Winner = DATA
Heartbeat CPU 0 instructions: 110000011 cycles: 22870721 heartbeat IPC: 4.377 cumulative IPC: 4.509 (Simulation time: 00 hr 04 min 22 sec)
*** Reached end of trace: (0, "../traces/secret_traces/crypto/crypto104.champsimtrace.xz")
[DUEL] Epoch ended. INSTR misses = 14, DATA misses = 9. Winner = DATA
[DUEL] Epoch ended. INSTR misses = 7, DATA misses = 10. Winner = INSTR
[DUEL] Epoch ended. INSTR misses = 0, DATA misses = 1. Winner = INSTR
[DUEL] Epoch ended. INSTR misses = 1, DATA misses = 0. Winner = DATA
[DUEL] Epoch ended. INSTR misses = 0, DATA misses = 0. Winner = INSTR
[DUEL] Epoch ended. INSTR misses = 0, DATA misses = 0. Winner = INSTR
[DUEL] Epoch ended. INSTR misses = 0, DATA misses = 0. Winner = INSTR
[DUEL] Epoch ended. INSTR misses = 0, DATA misses = 0. Winner = INSTR
[DUEL] Epoch ended. INSTR misses = 0, DATA misses = 0. Winner = INSTR
[DUEL] Epoch ended. INSTR misses = 2, DATA misses = 3. Winner = INSTR
[DUEL] Epoch ended. INSTR misses = 0, DATA misses = 0. Winner = INSTR
[DUEL] Epoch ended. INSTR misses = 2, DATA misses = 0. Winner = DATA
[DUEL] Epoch ended. INSTR misses = 1, DATA misses = 1. Winner = INSTR
Heartbeat CPU 0 instructions: 120000006 cycles: 25173444 heartbeat IPC: 4.343 cumulative IPC: 4.49 (Simulation time: 00 hr 04 min 49 sec)
[DUEL] Epoch ended. INSTR misses = 3, DATA misses = 3. Winner = INSTR
[DUEL] Epoch ended. INSTR misses = 0, DATA misses = 0. Winner = INSTR
[DUEL] Epoch ended. INSTR misses = 17, DATA misses = 13. Winner = DATA
Heartbeat CPU 0 instructions: 130000001 cycles: 27447144 heartbeat IPC: 4.398 cumulative IPC: 4.48 (Simulation time: 00 hr 05 min 15 sec)
Simulation finished CPU 0 instructions: 100000008 cycles: 22319777 cumulative IPC: 4.48 (Simulation time: 00 hr 05 min 15 sec)
Simulation complete CPU 0 instructions: 100000008 cycles: 22319777 cumulative IPC: 4.48 (Simulation time: 00 hr 05 min 15 sec)

ChampSim completed all CPUs

=== Simulation ===
CPU 0 runs ../traces/secret_traces/crypto/crypto104.champsimtrace.xz
Region of Interest Statistics

CPU 0 cumulative IPC: 4.48 instructions: 100000008 cycles: 22319777
CPU 0 Branch Prediction Accuracy: 98.48% MPKI: 0.8673 Average ROB Occupancy at Mispredict: 33.46
Branch type MPKI
BRANCH_DIRECT_JUMP: 0.0511
BRANCH_INDIRECT: 0.45
BRANCH_CONDITIONAL: 0.115
BRANCH_DIRECT_CALL: 0.15
BRANCH_INDIRECT_CALL: 0.0194
BRANCH_RETURN: 0.0823

LLC TOTAL        ACCESS:     428493 HIT:     310738 MISS:     117755
LLC LOAD         ACCESS:      44375 HIT:      22651 MISS:      21724
LLC RFO          ACCESS:     134224 HIT:     106985 MISS:      27239
LLC PREFETCH     ACCESS:     102576 HIT:      52007 MISS:      50569
LLC WRITE        ACCESS:     144805 HIT:     128558 MISS:      16247
LLC TRANSLATION  ACCESS:       2513 HIT:        537 MISS:       1976
LLC PREFETCH REQUESTED:          0 ISSUED:          0 USEFUL:          0 USELESS:          0
LLC AVERAGE MISS LATENCY: 166 cycles
cpu0_DTLB TOTAL        ACCESS:    9651526 HIT:    9609730 MISS:      41796
cpu0_DTLB LOAD         ACCESS:    9651526 HIT:    9609730 MISS:      41796
cpu0_DTLB RFO          ACCESS:          0 HIT:          0 MISS:          0
cpu0_DTLB PREFETCH     ACCESS:          0 HIT:          0 MISS:          0
cpu0_DTLB WRITE        ACCESS:          0 HIT:          0 MISS:          0
cpu0_DTLB TRANSLATION  ACCESS:          0 HIT:          0 MISS:          0
cpu0_DTLB PREFETCH REQUESTED:          0 ISSUED:          0 USEFUL:          0 USELESS:          0
cpu0_DTLB AVERAGE MISS LATENCY: 10.21 cycles
cpu0_ITLB TOTAL        ACCESS:     686246 HIT:     672459 MISS:      13787
cpu0_ITLB LOAD         ACCESS:     686246 HIT:     672459 MISS:      13787
cpu0_ITLB RFO          ACCESS:          0 HIT:          0 MISS:          0
cpu0_ITLB PREFETCH     ACCESS:          0 HIT:          0 MISS:          0
cpu0_ITLB WRITE        ACCESS:          0 HIT:          0 MISS:          0
cpu0_ITLB TRANSLATION  ACCESS:          0 HIT:          0 MISS:          0
cpu0_ITLB PREFETCH REQUESTED:          0 ISSUED:          0 USEFUL:          0 USELESS:          0
cpu0_ITLB AVERAGE MISS LATENCY: 20.29 cycles
cpu0_L1D TOTAL        ACCESS:   12816597 HIT:   12204968 MISS:     611629
cpu0_L1D LOAD         ACCESS:    8691139 HIT:    8529855 MISS:     161284
cpu0_L1D RFO          ACCESS:          0 HIT:          0 MISS:          0
cpu0_L1D PREFETCH     ACCESS:     511817 HIT:     421556 MISS:      90261
cpu0_L1D WRITE        ACCESS:    3608434 HIT:    3251644 MISS:     356790
cpu0_L1D TRANSLATION  ACCESS:       5207 HIT:       1913 MISS:       3294
cpu0_L1D PREFETCH REQUESTED:    3780632 ISSUED:     511817 USEFUL:      11305 USELESS:        970
cpu0_L1D AVERAGE MISS LATENCY: 28.47 cycles
cpu0_L1I TOTAL        ACCESS:     998895 HIT:     836635 MISS:     162260
cpu0_L1I LOAD         ACCESS:     325740 HIT:     288867 MISS:      36873
cpu0_L1I RFO          ACCESS:          0 HIT:          0 MISS:          0
cpu0_L1I PREFETCH     ACCESS:     673155 HIT:     547768 MISS:     125387
cpu0_L1I WRITE        ACCESS:          0 HIT:          0 MISS:          0
cpu0_L1I TRANSLATION  ACCESS:          0 HIT:          0 MISS:          0
cpu0_L1I PREFETCH REQUESTED:    1080862 ISSUED:     673155 USEFUL:      70560 USELESS:      49699
cpu0_L1I AVERAGE MISS LATENCY: 33.42 cycles
cpu0_L2C TOTAL        ACCESS:     938415 HIT:     567473 MISS:     370942
cpu0_L2C LOAD         ACCESS:     126360 HIT:      70682 MISS:      55678
cpu0_L2C RFO          ACCESS:     146710 HIT:      12441 MISS:     134269
cpu0_L2C PREFETCH     ACCESS:     495710 HIT:     317228 MISS:     178482
cpu0_L2C WRITE        ACCESS:     166442 HIT:     166442 MISS:          0
cpu0_L2C TRANSLATION  ACCESS:       3193 HIT:        680 MISS:       2513
cpu0_L2C PREFETCH REQUESTED:     318181 ISSUED:     303889 USEFUL:      26071 USELESS:      25208
cpu0_L2C AVERAGE MISS LATENCY: 65.67 cycles
cpu0_STLB TOTAL        ACCESS:      24168 HIT:      19407 MISS:       4761
cpu0_STLB LOAD         ACCESS:      24168 HIT:      19407 MISS:       4761
cpu0_STLB RFO          ACCESS:          0 HIT:          0 MISS:          0
cpu0_STLB PREFETCH     ACCESS:          0 HIT:          0 MISS:          0
cpu0_STLB WRITE        ACCESS:          0 HIT:          0 MISS:          0
cpu0_STLB TRANSLATION  ACCESS:          0 HIT:          0 MISS:          0
cpu0_STLB PREFETCH REQUESTED:          0 ISSUED:          0 USEFUL:          0 USELESS:          0
cpu0_STLB AVERAGE MISS LATENCY: 128.6 cycles

DRAM Statistics

Channel 0 RQ ROW_BUFFER_HIT:      24894
  ROW_BUFFER_MISS:      26737
 AVG DBUS CONGESTED CYCLE: 3.892
WQ ROW_BUFFER_HIT: Channel 0 
  ROW_BUFFER_MISS:       1711
  FULL:      12820

Channel 1 RQ ROW_BUFFER_HIT:      24129
  ROW_BUFFER_MISS:      25705
 AVG DBUS CONGESTED CYCLE: 3.872
WQ ROW_BUFFER_HIT: Channel 1 
  ROW_BUFFER_MISS:       1723
  FULL:      12150
BERTI TO_L1: 1301571 TO_L2: 3061233 TO_L2_BC_MSHR: 1770918
BERTI AVG_LAT: 67.0642 NUM_TRACK_LATENCY: 155771 NUM_CANT_TRACK_LATENCY: 0
BERTI CROSS_PAGE 915581 NO_CROSS_PAGE: 3447223
BERTI FOUND_BERTI: 2428103 NO_FOUND_BERTI: 9411059
BERTI AVERAGE_ISSUED: 4.12698
CPU 0 L1I Entangling prefetcher final stats
IP accesses: 77e1 1df840 1424 / 327966
IP misses: c453 3114c0 236 / 39099
IP hits: 0 0 0 / 0
IP late: 59b2 166c80 41 / 18462
IP wrong: b2 2c80 111 / 49497
miss rate: 0.119217
coverage: 0
coverage_late: 0.472186
accuracy: 0
accuracy_late: 0.271664
discarded: 0
evicts entangled j table: 0
evicts entangled k table: 6131
max bb size: 53
formats: 1456 0 5167 2555 985 1932 0 
hist_lookups: 4051 4733 3617 3428 3025 2468 1945 1433 1074 933 668 461 326 158 70 0 12 6596 
hist_lookups_evict: 0.0342877 %
hist_lookups_shortlat: 18.8468 %
bb_found_hist: 0 82861 35722 16938 8337 3755 1915 1595 474 77 18 114 114 98 25 0 4 0 0 0 1 7 0 0 0 0 0 0 0 0 0 4 4 0 4 0 0 0 0 0 0 0 0 0 0 0 0 0 0 0 0 0 0 3 0 0 0 0 0 0 0 0 0 0 
bb_found_summary: 289586 152070 1.9043
entangled_found_hist: 0 45002 33980 60585 12673 1723 535 0 
entangled_found_summary: 357234 154498 2.31223
bb_ent_found_hist: 0 119903 53163 37057 15150 9135 3744 2520 1498 37 64 198 135 117 16 0 4 0 0 0 1 16 0 0 0 0 0 0 0 0 0 4 4 0 7 0 0 0 0 0 0 0 0 0 0 0 0 0 0 0 0 0 0 3 0 0 0 0 0 0 0 0 0 0 
bb_ent_found_summary: 503348 242776 2.07331
