WARNING: physical memory size is smaller than virtual memory size.

*** ChampSim Multicore Out-of-Order Simulator ***
Warmup Instructions: 30000000
Simulation Instructions: 100000000
Number of CPUs: 1
Page size: 4096

BTB:
Basic BTB sets: 1024 ways: 8
Indirect:
history lengths: 0 0 10 16 27 44 60 96 109 219 449 487 714 1313 2146 3881 
ITTAGE tables: 64768 bytes;Region table: 240 bytes;IUM: 384 bytes;Total Storage= 65392 bytes;
RAS:
RAS size: 64
[LLC] INSTR Demand IPV: 1 2 2 1 4 Prefetch IPV: 1 2 1 1 4
[LLC] DATA  Demand IPV: 1 1 1 2 4 Prefetch IPV: 1 1 2 2 4
Berti Prefetcher
CPU 0 Entangling prefetcher
Off-chip DRAM Size: 8 GiB Channels: 2 Width: 64-bit Data Race: 6400 MT/s
[DUEL] Epoch ended. INSTR misses = 53, DATA misses = 61. Winner = INSTR
[DUEL] Epoch ended. INSTR misses = 16, DATA misses = 16. Winner = INSTR
[DUEL] Epoch ended. INSTR misses = 0, DATA misses = 0. Winner = INSTR
[DUEL] Epoch ended. INSTR misses = 0, DATA misses = 0. Winner = INSTR
[DUEL] Epoch ended. INSTR misses = 0, DATA misses = 0. Winner = INSTR
[DUEL] Epoch ended. INSTR misses = 0, DATA misses = 0. Winner = INSTR
[DUEL] Epoch ended. INSTR misses = 16, DATA misses = 16. Winner = INSTR
[DUEL] Epoch ended. INSTR misses = 0, DATA misses = 0. Winner = INSTR
[DUEL] Epoch ended. INSTR misses = 0, DATA misses = 0. Winner = INSTR
[DUEL] Epoch ended. INSTR misses = 1, DATA misses = 2. Winner = INSTR
[DUEL] Epoch ended. INSTR misses = 1, DATA misses = 10. Winner = INSTR
[DUEL] Epoch ended. INSTR misses = 0, DATA misses = 0. Winner = INSTR
[DUEL] Epoch ended. INSTR misses = 0, DATA misses = 0. Winner = INSTR
Heartbeat CPU 0 instructions: 10000007 cycles: 1917452 heartbeat IPC: 5.215 cumulative IPC: 5.215 (Simulation time: 00 hr 00 min 24 sec)
[DUEL] Epoch ended. INSTR misses = 4, DATA misses = 9. Winner = INSTR
[DUEL] Epoch ended. INSTR misses = 21, DATA misses = 22. Winner = INSTR
[DUEL] Epoch ended. INSTR misses = 105, DATA misses = 104. Winner = DATA
Heartbeat CPU 0 instructions: 20000007 cycles: 3911359 heartbeat IPC: 5.015 cumulative IPC: 5.113 (Simulation time: 00 hr 00 min 49 sec)
[DUEL] Epoch ended. INSTR misses = 74, DATA misses = 80. Winner = INSTR
Heartbeat CPU 0 instructions: 30000009 cycles: 5878529 heartbeat IPC: 5.083 cumulative IPC: 5.103 (Simulation time: 00 hr 01 min 14 sec)
Warmup finished CPU 0 instructions: 30000009 cycles: 5878530 cumulative IPC: 5.103 (Simulation time: 00 hr 01 min 14 sec)
Warmup complete CPU 0 instructions: 30000009 cycles: 5878530 cumulative IPC: 5.103 (Simulation time: 00 hr 01 min 14 sec)
[DUEL] Epoch ended. INSTR misses = 0, DATA misses = 0. Winner = INSTR
Heartbeat CPU 0 instructions: 40000002 cycles: 7846977 heartbeat IPC: 5.08 cumulative IPC: 5.08 (Simulation time: 00 hr 01 min 42 sec)
[DUEL] Epoch ended. INSTR misses = 0, DATA misses = 1. Winner = INSTR
Heartbeat CPU 0 instructions: 50000000 cycles: 9815506 heartbeat IPC: 5.08 cumulative IPC: 5.08 (Simulation time: 00 hr 02 min 11 sec)
[DUEL] Epoch ended. INSTR misses = 2, DATA misses = 2. Winner = INSTR
*** Reached end of trace: (0, "../traces/secret_traces/crypto/crypto62.champsimtrace.xz")
[DUEL] Epoch ended. INSTR misses = 27, DATA misses = 20. Winner = DATA
[DUEL] Epoch ended. INSTR misses = 10, DATA misses = 11. Winner = INSTR
[DUEL] Epoch ended. INSTR misses = 0, DATA misses = 0. Winner = INSTR
[DUEL] Epoch ended. INSTR misses = 0, DATA misses = 0. Winner = INSTR
[DUEL] Epoch ended. INSTR misses = 0, DATA misses = 0. Winner = INSTR
[DUEL] Epoch ended. INSTR misses = 0, DATA misses = 0. Winner = INSTR
[DUEL] Epoch ended. INSTR misses = 0, DATA misses = 0. Winner = INSTR
Heartbeat CPU 0 instructions: 60000004 cycles: 12220304 heartbeat IPC: 4.158 cumulative IPC: 4.731 (Simulation time: 00 hr 02 min 41 sec)
[DUEL] Epoch ended. INSTR misses = 1, DATA misses = 0. Winner = DATA
[DUEL] Epoch ended. INSTR misses = 0, DATA misses = 0. Winner = INSTR
[DUEL] Epoch ended. INSTR misses = 2, DATA misses = 3. Winner = INSTR
[DUEL] Epoch ended. INSTR misses = 1, DATA misses = 0. Winner = DATA
[DUEL] Epoch ended. INSTR misses = 1, DATA misses = 12. Winner = INSTR
[DUEL] Epoch ended. INSTR misses = 0, DATA misses = 0. Winner = INSTR
[DUEL] Epoch ended. INSTR misses = 0, DATA misses = 0. Winner = INSTR
Heartbeat CPU 0 instructions: 70000003 cycles: 14407425 heartbeat IPC: 4.572 cumulative IPC: 4.69 (Simulation time: 00 hr 03 min 10 sec)
[DUEL] Epoch ended. INSTR misses = 1, DATA misses = 8. Winner = INSTR
[DUEL] Epoch ended. INSTR misses = 2, DATA misses = 6. Winner = INSTR
[DUEL] Epoch ended. INSTR misses = 56, DATA misses = 76. Winner = INSTR
Heartbeat CPU 0 instructions: 80000005 cycles: 16911137 heartbeat IPC: 3.994 cumulative IPC: 4.532 (Simulation time: 00 hr 03 min 41 sec)
[DUEL] Epoch ended. INSTR misses = 55, DATA misses = 55. Winner = INSTR
Heartbeat CPU 0 instructions: 90000002 cycles: 18891853 heartbeat IPC: 5.049 cumulative IPC: 4.611 (Simulation time: 00 hr 04 min 10 sec)
[DUEL] Epoch ended. INSTR misses = 0, DATA misses = 2. Winner = INSTR
Heartbeat CPU 0 instructions: 100000006 cycles: 20859846 heartbeat IPC: 5.081 cumulative IPC: 4.672 (Simulation time: 00 hr 04 min 38 sec)
[DUEL] Epoch ended. INSTR misses = 0, DATA misses = 0. Winner = INSTR
Heartbeat CPU 0 instructions: 110000004 cycles: 22828286 heartbeat IPC: 5.08 cumulative IPC: 4.72 (Simulation time: 00 hr 05 min 06 sec)
[DUEL] Epoch ended. INSTR misses = 0, DATA misses = 0. Winner = INSTR
*** Reached end of trace: (0, "../traces/secret_traces/crypto/crypto62.champsimtrace.xz")
[DUEL] Epoch ended. INSTR misses = 14, DATA misses = 15. Winner = INSTR
[DUEL] Epoch ended. INSTR misses = 2, DATA misses = 6. Winner = INSTR
[DUEL] Epoch ended. INSTR misses = 0, DATA misses = 0. Winner = INSTR
[DUEL] Epoch ended. INSTR misses = 0, DATA misses = 0. Winner = INSTR
[DUEL] Epoch ended. INSTR misses = 0, DATA misses = 0. Winner = INSTR
[DUEL] Epoch ended. INSTR misses = 0, DATA misses = 0. Winner = INSTR
[DUEL] Epoch ended. INSTR misses = 0, DATA misses = 0. Winner = INSTR
[DUEL] Epoch ended. INSTR misses = 0, DATA misses = 0. Winner = INSTR
[DUEL] Epoch ended. INSTR misses = 0, DATA misses = 0. Winner = INSTR
[DUEL] Epoch ended. INSTR misses = 0, DATA misses = 0. Winner = INSTR
[DUEL] Epoch ended. INSTR misses = 1, DATA misses = 0. Winner = DATA
[DUEL] Epoch ended. INSTR misses = 2, DATA misses = 16. Winner = INSTR
[DUEL] Epoch ended. INSTR misses = 0, DATA misses = 1. Winner = INSTR
Heartbeat CPU 0 instructions: 120000000 cycles: 25223012 heartbeat IPC: 4.176 cumulative IPC: 4.652 (Simulation time: 00 hr 05 min 37 sec)
[DUEL] Epoch ended. INSTR misses = 0, DATA misses = 0. Winner = INSTR
Heartbeat CPU 0 instructions: 130000003 cycles: 27236006 heartbeat IPC: 4.968 cumulative IPC: 4.682 (Simulation time: 00 hr 06 min 05 sec)
Simulation finished CPU 0 instructions: 100000001 cycles: 21357478 cumulative IPC: 4.682 (Simulation time: 00 hr 06 min 05 sec)
Simulation complete CPU 0 instructions: 100000001 cycles: 21357478 cumulative IPC: 4.682 (Simulation time: 00 hr 06 min 05 sec)

ChampSim completed all CPUs

=== Simulation ===
CPU 0 runs ../traces/secret_traces/crypto/crypto62.champsimtrace.xz
Region of Interest Statistics

CPU 0 cumulative IPC: 4.682 instructions: 100000001 cycles: 21357478
CPU 0 Branch Prediction Accuracy: 99.79% MPKI: 0.4716 Average ROB Occupancy at Mispredict: 32.26
Branch type MPKI
BRANCH_DIRECT_JUMP: 0.0234
BRANCH_INDIRECT: 0.231
BRANCH_CONDITIONAL: 0.1
BRANCH_DIRECT_CALL: 0.0696
BRANCH_INDIRECT_CALL: 0.00936
BRANCH_RETURN: 0.0376

LLC TOTAL        ACCESS:     157489 HIT:     108515 MISS:      48974
LLC LOAD         ACCESS:      16264 HIT:       8505 MISS:       7759
LLC RFO          ACCESS:      45982 HIT:      33950 MISS:      12032
LLC PREFETCH     ACCESS:      40559 HIT:      20934 MISS:      19625
LLC WRITE        ACCESS:      53630 HIT:      44899 MISS:       8731
LLC TRANSLATION  ACCESS:       1054 HIT:        227 MISS:        827
LLC PREFETCH REQUESTED:          0 ISSUED:          0 USEFUL:          0 USELESS:          0
LLC AVERAGE MISS LATENCY: 156.9 cycles
cpu0_DTLB TOTAL        ACCESS:   15268477 HIT:   15252755 MISS:      15722
cpu0_DTLB LOAD         ACCESS:   15268477 HIT:   15252755 MISS:      15722
cpu0_DTLB RFO          ACCESS:          0 HIT:          0 MISS:          0
cpu0_DTLB PREFETCH     ACCESS:          0 HIT:          0 MISS:          0
cpu0_DTLB WRITE        ACCESS:          0 HIT:          0 MISS:          0
cpu0_DTLB TRANSLATION  ACCESS:          0 HIT:          0 MISS:          0
cpu0_DTLB PREFETCH REQUESTED:          0 ISSUED:          0 USEFUL:          0 USELESS:          0
cpu0_DTLB AVERAGE MISS LATENCY: 11.87 cycles
cpu0_ITLB TOTAL        ACCESS:   11457822 HIT:   11451228 MISS:       6594
cpu0_ITLB LOAD         ACCESS:   11457822 HIT:   11451228 MISS:       6594
cpu0_ITLB RFO          ACCESS:          0 HIT:          0 MISS:          0
cpu0_ITLB PREFETCH     ACCESS:          0 HIT:          0 MISS:          0
cpu0_ITLB WRITE        ACCESS:          0 HIT:          0 MISS:          0
cpu0_ITLB TRANSLATION  ACCESS:          0 HIT:          0 MISS:          0
cpu0_ITLB PREFETCH REQUESTED:          0 ISSUED:          0 USEFUL:          0 USELESS:          0
cpu0_ITLB AVERAGE MISS LATENCY: 20.5 cycles
cpu0_L1D TOTAL        ACCESS:   23490407 HIT:   23270748 MISS:     219659
cpu0_L1D LOAD         ACCESS:    9968727 HIT:    9909196 MISS:      59531
cpu0_L1D RFO          ACCESS:          0 HIT:          0 MISS:          0
cpu0_L1D PREFETCH     ACCESS:     267904 HIT:     225355 MISS:      42549
cpu0_L1D WRITE        ACCESS:   13251572 HIT:   13135402 MISS:     116170
cpu0_L1D TRANSLATION  ACCESS:       2204 HIT:        795 MISS:       1409
cpu0_L1D PREFETCH REQUESTED:    1497345 ISSUED:     267904 USEFUL:       4497 USELESS:        626
cpu0_L1D AVERAGE MISS LATENCY: 30.01 cycles
cpu0_L1I TOTAL        ACCESS:   16762633 HIT:   16687386 MISS:      75247
cpu0_L1I LOAD         ACCESS:    3237083 HIT:    3217447 MISS:      19636
cpu0_L1I RFO          ACCESS:          0 HIT:          0 MISS:          0
cpu0_L1I PREFETCH     ACCESS:   13525550 HIT:   13469939 MISS:      55611
cpu0_L1I WRITE        ACCESS:          0 HIT:          0 MISS:          0
cpu0_L1I TRANSLATION  ACCESS:          0 HIT:          0 MISS:          0
cpu0_L1I PREFETCH REQUESTED:   13677551 ISSUED:   13525549 USEFUL:      29424 USELESS:      23303
cpu0_L1I AVERAGE MISS LATENCY: 29.2 cycles
cpu0_L2C TOTAL        ACCESS:     389796 HIT:     255463 MISS:     134333
cpu0_L2C LOAD         ACCESS:      51644 HIT:      31981 MISS:      19663
cpu0_L2C RFO          ACCESS:      50407 HIT:       4404 MISS:      46003
cpu0_L2C PREFETCH     ACCESS:     227722 HIT:     160109 MISS:      67613
cpu0_L2C WRITE        ACCESS:      58655 HIT:      58655 MISS:          0
cpu0_L2C TRANSLATION  ACCESS:       1368 HIT:        314 MISS:       1054
cpu0_L2C PREFETCH REQUESTED:     141628 ISSUED:     137738 USEFUL:      10660 USELESS:       9314
cpu0_L2C AVERAGE MISS LATENCY: 70.79 cycles
cpu0_STLB TOTAL        ACCESS:      10500 HIT:       8468 MISS:       2032
cpu0_STLB LOAD         ACCESS:      10500 HIT:       8468 MISS:       2032
cpu0_STLB RFO          ACCESS:          0 HIT:          0 MISS:          0
cpu0_STLB PREFETCH     ACCESS:          0 HIT:          0 MISS:          0
cpu0_STLB WRITE        ACCESS:          0 HIT:          0 MISS:          0
cpu0_STLB TRANSLATION  ACCESS:          0 HIT:          0 MISS:          0
cpu0_STLB PREFETCH REQUESTED:          0 ISSUED:          0 USEFUL:          0 USELESS:          0
cpu0_STLB AVERAGE MISS LATENCY: 134.5 cycles

DRAM Statistics

Channel 0 RQ ROW_BUFFER_HIT:       9309
  ROW_BUFFER_MISS:      11136
 AVG DBUS CONGESTED CYCLE: 3.894
WQ ROW_BUFFER_HIT: Channel 0 
  ROW_BUFFER_MISS:       1033
  FULL:       5760

Channel 1 RQ ROW_BUFFER_HIT:       8909
  ROW_BUFFER_MISS:      10870
 AVG DBUS CONGESTED CYCLE: 3.869
WQ ROW_BUFFER_HIT: Channel 1 
  ROW_BUFFER_MISS:        920
  FULL:       5212
BERTI TO_L1: 819444 TO_L2: 1156063 TO_L2_BC_MSHR: 637647
BERTI AVG_LAT: 53.4174 NUM_TRACK_LATENCY: 75326 NUM_CANT_TRACK_LATENCY: 0
BERTI CROSS_PAGE 368816 NO_CROSS_PAGE: 1606691
BERTI FOUND_BERTI: 416481 NO_FOUND_BERTI: 12974254
BERTI AVERAGE_ISSUED: 4.27316
CPU 0 L1I Entangling prefetcher final stats
IP accesses: 7be0 1ef800 137663 / 3237425
IP misses: 25bf 96fc0 100 / 19978
IP hits: 0 0 0 / 0
IP late: 20a3 828c0 25 / 9324
IP wrong: f801 3e0040 46 / 23212
miss rate: 0.00617096
coverage: 0
coverage_late: 0.466714
accuracy: 0
accuracy_late: 0.286575
discarded: 0
evicts entangled j table: 0
evicts entangled k table: 3062
max bb size: 53
formats: 737 0 2858 1431 597 1358 0 
hist_lookups: 2706 2721 2003 1786 1537 1307 981 676 541 451 323 232 153 84 34 0 6 3718 
hist_lookups_evict: 0.0311543 %
hist_lookups_shortlat: 19.3053 %
bb_found_hist: 0 893979 494330 119722 3369 138741 703 525 190 47 0 54 36 20 12 15 2 0 0 0 1 4 0 0 0 0 0 0 0 0 0 2 2 0 2 0 0 0 0 0 0 0 0 0 0 0 0 0 0 0 0 0 0 1 0 0 0 0 0 0 0 0 0 0 
bb_found_summary: 2960884 1651757 1.79257
entangled_found_hist: 0 464212 308546 1233268 27524 678 237 0 
entangled_found_summary: 4896016 2034465 2.40654
bb_ent_found_hist: 0 1725901 531363 213406 67349 295750 1619 93372 790 23 0 118 37 7 10 44 80 0 0 0 1 28 0 0 0 0 0 0 0 0 0 2 2 0 3 0 0 0 0 0 0 0 0 0 0 0 0 0 0 0 0 0 0 1 0 0 0 0 0 0 0 0 0 0 
bb_ent_found_summary: 5851638 2929906 1.99722
