WARNING: physical memory size is smaller than virtual memory size.

*** ChampSim Multicore Out-of-Order Simulator ***
Warmup Instructions: 30000000
Simulation Instructions: 100000000
Number of CPUs: 1
Page size: 4096

BTB:
Basic BTB sets: 1024 ways: 8
Indirect:
history lengths: 0 0 10 16 27 44 60 96 109 219 449 487 714 1313 2146 3881 
ITTAGE tables: 64768 bytes;Region table: 240 bytes;IUM: 384 bytes;Total Storage= 65392 bytes;
RAS:
RAS size: 64
[LLC] INSTR Demand IPV: 1 2 2 1 4 Prefetch IPV: 1 2 1 1 4
[LLC] DATA  Demand IPV: 1 1 1 2 4 Prefetch IPV: 1 1 2 2 4
Berti Prefetcher
CPU 0 Entangling prefetcher
Off-chip DRAM Size: 8 GiB Channels: 2 Width: 64-bit Data Race: 6400 MT/s
[DUEL] Epoch ended. INSTR misses = 55, DATA misses = 63. Winner = INSTR
[DUEL] Epoch ended. INSTR misses = 16, DATA misses = 18. Winner = INSTR
[DUEL] Epoch ended. INSTR misses = 0, DATA misses = 0. Winner = INSTR
[DUEL] Epoch ended. INSTR misses = 0, DATA misses = 0. Winner = INSTR
[DUEL] Epoch ended. INSTR misses = 0, DATA misses = 0. Winner = INSTR
[DUEL] Epoch ended. INSTR misses = 0, DATA misses = 0. Winner = INSTR
[DUEL] Epoch ended. INSTR misses = 16, DATA misses = 16. Winner = INSTR
[DUEL] Epoch ended. INSTR misses = 0, DATA misses = 0. Winner = INSTR
[DUEL] Epoch ended. INSTR misses = 0, DATA misses = 0. Winner = INSTR
[DUEL] Epoch ended. INSTR misses = 6, DATA misses = 5. Winner = DATA
[DUEL] Epoch ended. INSTR misses = 11, DATA misses = 9. Winner = DATA
[DUEL] Epoch ended. INSTR misses = 0, DATA misses = 0. Winner = INSTR
[DUEL] Epoch ended. INSTR misses = 4, DATA misses = 2. Winner = DATA
Heartbeat CPU 0 instructions: 10000005 cycles: 1942435 heartbeat IPC: 5.148 cumulative IPC: 5.148 (Simulation time: 00 hr 00 min 24 sec)
[DUEL] Epoch ended. INSTR misses = 25, DATA misses = 38. Winner = INSTR
[DUEL] Epoch ended. INSTR misses = 18, DATA misses = 22. Winner = INSTR
[DUEL] Epoch ended. INSTR misses = 103, DATA misses = 96. Winner = DATA
Heartbeat CPU 0 instructions: 20000005 cycles: 3970891 heartbeat IPC: 4.93 cumulative IPC: 5.037 (Simulation time: 00 hr 00 min 49 sec)
[DUEL] Epoch ended. INSTR misses = 34, DATA misses = 35. Winner = INSTR
Heartbeat CPU 0 instructions: 30000001 cycles: 5975166 heartbeat IPC: 4.989 cumulative IPC: 5.021 (Simulation time: 00 hr 01 min 13 sec)
Warmup finished CPU 0 instructions: 30000001 cycles: 5975167 cumulative IPC: 5.021 (Simulation time: 00 hr 01 min 13 sec)
Warmup complete CPU 0 instructions: 30000001 cycles: 5975167 cumulative IPC: 5.021 (Simulation time: 00 hr 01 min 13 sec)
[DUEL] Epoch ended. INSTR misses = 9, DATA misses = 8. Winner = DATA
Heartbeat CPU 0 instructions: 40000005 cycles: 7980627 heartbeat IPC: 4.986 cumulative IPC: 4.986 (Simulation time: 00 hr 01 min 41 sec)
[DUEL] Epoch ended. INSTR misses = 0, DATA misses = 2. Winner = INSTR
Heartbeat CPU 0 instructions: 50000001 cycles: 9986596 heartbeat IPC: 4.985 cumulative IPC: 4.986 (Simulation time: 00 hr 02 min 09 sec)
[DUEL] Epoch ended. INSTR misses = 0, DATA misses = 0. Winner = INSTR
*** Reached end of trace: (0, "../traces/secret_traces/crypto/crypto20.champsimtrace.xz")
[DUEL] Epoch ended. INSTR misses = 22, DATA misses = 11. Winner = DATA
[DUEL] Epoch ended. INSTR misses = 18, DATA misses = 22. Winner = INSTR
[DUEL] Epoch ended. INSTR misses = 2, DATA misses = 0. Winner = DATA
[DUEL] Epoch ended. INSTR misses = 0, DATA misses = 0. Winner = INSTR
[DUEL] Epoch ended. INSTR misses = 0, DATA misses = 0. Winner = INSTR
[DUEL] Epoch ended. INSTR misses = 0, DATA misses = 0. Winner = INSTR
[DUEL] Epoch ended. INSTR misses = 0, DATA misses = 0. Winner = INSTR
[DUEL] Epoch ended. INSTR misses = 0, DATA misses = 0. Winner = INSTR
[DUEL] Epoch ended. INSTR misses = 0, DATA misses = 0. Winner = INSTR
[DUEL] Epoch ended. INSTR misses = 0, DATA misses = 2. Winner = INSTR
[DUEL] Epoch ended. INSTR misses = 1, DATA misses = 1. Winner = INSTR
Heartbeat CPU 0 instructions: 60000001 cycles: 12497525 heartbeat IPC: 3.983 cumulative IPC: 4.6 (Simulation time: 00 hr 02 min 39 sec)
[DUEL] Epoch ended. INSTR misses = 7, DATA misses = 7. Winner = INSTR
[DUEL] Epoch ended. INSTR misses = 3, DATA misses = 0. Winner = DATA
[DUEL] Epoch ended. INSTR misses = 0, DATA misses = 0. Winner = INSTR
Heartbeat CPU 0 instructions: 70000004 cycles: 14652716 heartbeat IPC: 4.64 cumulative IPC: 4.61 (Simulation time: 00 hr 03 min 08 sec)
[DUEL] Epoch ended. INSTR misses = 14, DATA misses = 17. Winner = INSTR
[DUEL] Epoch ended. INSTR misses = 4, DATA misses = 12. Winner = INSTR
[DUEL] Epoch ended. INSTR misses = 62, DATA misses = 55. Winner = DATA
Heartbeat CPU 0 instructions: 80000002 cycles: 17219847 heartbeat IPC: 3.895 cumulative IPC: 4.447 (Simulation time: 00 hr 03 min 39 sec)
[DUEL] Epoch ended. INSTR misses = 23, DATA misses = 25. Winner = INSTR
Heartbeat CPU 0 instructions: 90000003 cycles: 19239186 heartbeat IPC: 4.952 cumulative IPC: 4.524 (Simulation time: 00 hr 04 min 07 sec)
[DUEL] Epoch ended. INSTR misses = 3, DATA misses = 3. Winner = INSTR
Heartbeat CPU 0 instructions: 100000001 cycles: 21244194 heartbeat IPC: 4.988 cumulative IPC: 4.584 (Simulation time: 00 hr 04 min 35 sec)
[DUEL] Epoch ended. INSTR misses = 0, DATA misses = 0. Winner = INSTR
Heartbeat CPU 0 instructions: 110000001 cycles: 23250068 heartbeat IPC: 4.985 cumulative IPC: 4.631 (Simulation time: 00 hr 05 min 03 sec)
[DUEL] Epoch ended. INSTR misses = 0, DATA misses = 0. Winner = INSTR
*** Reached end of trace: (0, "../traces/secret_traces/crypto/crypto20.champsimtrace.xz")
[DUEL] Epoch ended. INSTR misses = 10, DATA misses = 12. Winner = INSTR
[DUEL] Epoch ended. INSTR misses = 18, DATA misses = 20. Winner = INSTR
[DUEL] Epoch ended. INSTR misses = 0, DATA misses = 0. Winner = INSTR
[DUEL] Epoch ended. INSTR misses = 0, DATA misses = 0. Winner = INSTR
[DUEL] Epoch ended. INSTR misses = 0, DATA misses = 0. Winner = INSTR
[DUEL] Epoch ended. INSTR misses = 0, DATA misses = 0. Winner = INSTR
[DUEL] Epoch ended. INSTR misses = 0, DATA misses = 0. Winner = INSTR
[DUEL] Epoch ended. INSTR misses = 0, DATA misses = 0. Winner = INSTR
[DUEL] Epoch ended. INSTR misses = 0, DATA misses = 0. Winner = INSTR
[DUEL] Epoch ended. INSTR misses = 0, DATA misses = 2. Winner = INSTR
[DUEL] Epoch ended. INSTR misses = 5, DATA misses = 1. Winner = DATA
[DUEL] Epoch ended. INSTR misses = 6, DATA misses = 11. Winner = INSTR
[DUEL] Epoch ended. INSTR misses = 2, DATA misses = 0. Winner = DATA
Heartbeat CPU 0 instructions: 120000001 cycles: 25689225 heartbeat IPC: 4.1 cumulative IPC: 4.565 (Simulation time: 00 hr 05 min 32 sec)
[DUEL] Epoch ended. INSTR misses = 0, DATA misses = 0. Winner = INSTR
Heartbeat CPU 0 instructions: 130000000 cycles: 27742921 heartbeat IPC: 4.869 cumulative IPC: 4.594 (Simulation time: 00 hr 06 min 01 sec)
Simulation finished CPU 0 instructions: 100000002 cycles: 21767756 cumulative IPC: 4.594 (Simulation time: 00 hr 06 min 01 sec)
Simulation complete CPU 0 instructions: 100000002 cycles: 21767756 cumulative IPC: 4.594 (Simulation time: 00 hr 06 min 01 sec)

ChampSim completed all CPUs

=== Simulation ===
CPU 0 runs ../traces/secret_traces/crypto/crypto20.champsimtrace.xz
Region of Interest Statistics

CPU 0 cumulative IPC: 4.594 instructions: 100000002 cycles: 21767756
CPU 0 Branch Prediction Accuracy: 99.8% MPKI: 0.4698 Average ROB Occupancy at Mispredict: 32.11
Branch type MPKI
BRANCH_DIRECT_JUMP: 0.0233
BRANCH_INDIRECT: 0.232
BRANCH_CONDITIONAL: 0.0982
BRANCH_DIRECT_CALL: 0.0694
BRANCH_INDIRECT_CALL: 0.00936
BRANCH_RETURN: 0.0376

LLC TOTAL        ACCESS:     157560 HIT:     107186 MISS:      50374
LLC LOAD         ACCESS:      15824 HIT:       7932 MISS:       7892
LLC RFO          ACCESS:      45881 HIT:      32651 MISS:      13230
LLC PREFETCH     ACCESS:      41113 HIT:      20849 MISS:      20264
LLC WRITE        ACCESS:      53677 HIT:      45510 MISS:       8167
LLC TRANSLATION  ACCESS:       1065 HIT:        244 MISS:        821
LLC PREFETCH REQUESTED:          0 ISSUED:          0 USEFUL:          0 USELESS:          0
LLC AVERAGE MISS LATENCY: 169.6 cycles
cpu0_DTLB TOTAL        ACCESS:   14586033 HIT:   14570528 MISS:      15505
cpu0_DTLB LOAD         ACCESS:   14586033 HIT:   14570528 MISS:      15505
cpu0_DTLB RFO          ACCESS:          0 HIT:          0 MISS:          0
cpu0_DTLB PREFETCH     ACCESS:          0 HIT:          0 MISS:          0
cpu0_DTLB WRITE        ACCESS:          0 HIT:          0 MISS:          0
cpu0_DTLB TRANSLATION  ACCESS:          0 HIT:          0 MISS:          0
cpu0_DTLB PREFETCH REQUESTED:          0 ISSUED:          0 USEFUL:          0 USELESS:          0
cpu0_DTLB AVERAGE MISS LATENCY: 12.18 cycles
cpu0_ITLB TOTAL        ACCESS:   14645254 HIT:   14638771 MISS:       6483
cpu0_ITLB LOAD         ACCESS:   14645254 HIT:   14638771 MISS:       6483
cpu0_ITLB RFO          ACCESS:          0 HIT:          0 MISS:          0
cpu0_ITLB PREFETCH     ACCESS:          0 HIT:          0 MISS:          0
cpu0_ITLB WRITE        ACCESS:          0 HIT:          0 MISS:          0
cpu0_ITLB TRANSLATION  ACCESS:          0 HIT:          0 MISS:          0
cpu0_ITLB PREFETCH REQUESTED:          0 ISSUED:          0 USEFUL:          0 USELESS:          0
cpu0_ITLB AVERAGE MISS LATENCY: 19.67 cycles
cpu0_L1D TOTAL        ACCESS:   22660916 HIT:   22433360 MISS:     227556
cpu0_L1D LOAD         ACCESS:    8948933 HIT:    8889045 MISS:      59888
cpu0_L1D RFO          ACCESS:          0 HIT:          0 MISS:          0
cpu0_L1D PREFETCH     ACCESS:     271208 HIT:     221460 MISS:      49748
cpu0_L1D WRITE        ACCESS:   13438644 HIT:   13322107 MISS:     116537
cpu0_L1D TRANSLATION  ACCESS:       2131 HIT:        748 MISS:       1383
cpu0_L1D PREFETCH REQUESTED:    1529990 ISSUED:     271208 USEFUL:       4410 USELESS:        551
cpu0_L1D AVERAGE MISS LATENCY: 31.86 cycles
cpu0_L1I TOTAL        ACCESS:   21933171 HIT:   21859343 MISS:      73828
cpu0_L1I LOAD         ACCESS:    4666850 HIT:    4648107 MISS:      18743
cpu0_L1I RFO          ACCESS:          0 HIT:          0 MISS:          0
cpu0_L1I PREFETCH     ACCESS:   17266321 HIT:   17211236 MISS:      55085
cpu0_L1I WRITE        ACCESS:          0 HIT:          0 MISS:          0
cpu0_L1I TRANSLATION  ACCESS:          0 HIT:          0 MISS:          0
cpu0_L1I PREFETCH REQUESTED:   20299764 ISSUED:   17266349 USEFUL:      29802 USELESS:      22476
cpu0_L1I AVERAGE MISS LATENCY: 30.24 cycles
cpu0_L2C TOTAL        ACCESS:     399100 HIT:     263839 MISS:     135261
cpu0_L2C LOAD         ACCESS:      51190 HIT:      32049 MISS:      19141
cpu0_L2C RFO          ACCESS:      50390 HIT:       4494 MISS:      45896
cpu0_L2C PREFETCH     ACCESS:     237515 HIT:     168356 MISS:      69159
cpu0_L2C WRITE        ACCESS:      58663 HIT:      58663 MISS:          0
cpu0_L2C TRANSLATION  ACCESS:       1342 HIT:        277 MISS:       1065
cpu0_L2C PREFETCH REQUESTED:     147013 ISSUED:     141692 USEFUL:      11230 USELESS:       9155
cpu0_L2C AVERAGE MISS LATENCY: 76.52 cycles
cpu0_STLB TOTAL        ACCESS:      10461 HIT:       8507 MISS:       1954
cpu0_STLB LOAD         ACCESS:      10461 HIT:       8507 MISS:       1954
cpu0_STLB RFO          ACCESS:          0 HIT:          0 MISS:          0
cpu0_STLB PREFETCH     ACCESS:          0 HIT:          0 MISS:          0
cpu0_STLB WRITE        ACCESS:          0 HIT:          0 MISS:          0
cpu0_STLB TRANSLATION  ACCESS:          0 HIT:          0 MISS:          0
cpu0_STLB PREFETCH REQUESTED:          0 ISSUED:          0 USEFUL:          0 USELESS:          0
cpu0_STLB AVERAGE MISS LATENCY: 138.8 cycles

DRAM Statistics

Channel 0 RQ ROW_BUFFER_HIT:       9847
  ROW_BUFFER_MISS:      11510
 AVG DBUS CONGESTED CYCLE: 3.898
WQ ROW_BUFFER_HIT: Channel 0 
  ROW_BUFFER_MISS:       1044
  FULL:       6790

Channel 1 RQ ROW_BUFFER_HIT:       9377
  ROW_BUFFER_MISS:      11465
 AVG DBUS CONGESTED CYCLE: 3.891
WQ ROW_BUFFER_HIT: Channel 1 
  ROW_BUFFER_MISS:        978
  FULL:       6500
BERTI TO_L1: 824644 TO_L2: 1183593 TO_L2_BC_MSHR: 638871
BERTI AVG_LAT: 55.8186 NUM_TRACK_LATENCY: 75247 NUM_CANT_TRACK_LATENCY: 0
BERTI CROSS_PAGE 384393 NO_CROSS_PAGE: 1623844
BERTI FOUND_BERTI: 427501 NO_FOUND_BERTI: 11672278
BERTI AVERAGE_ISSUED: 4.18551
CPU 0 L1I Entangling prefetcher final stats
IP accesses: 3e6e f9b80 209145 / 4667250
IP misses: 25bf 96fc0 80 / 19143
IP hits: 0 0 0 / 0
IP late: 6e9e 1ba780 47 / 9135
IP wrong: 7cde 1f3780 75 / 22385
miss rate: 0.00410156
coverage: 0
coverage_late: 0.477198
accuracy: 0
accuracy_late: 0.289816
discarded: 0
evicts entangled j table: 0
evicts entangled k table: 2933
max bb size: 53
formats: 701 0 2797 1323 611 1375 0 
hist_lookups: 2666 2668 1816 1690 1595 1328 932 683 546 463 317 202 131 53 31 0 0 3883 
hist_lookups_evict: 0 %
hist_lookups_shortlat: 20.4326 %
bb_found_hist: 0 1643947 602102 415087 52591 22210 49850 523 190 55 2 53 36 20 12 15 2 0 0 0 1 4 0 0 0 0 0 0 0 0 0 2 2 0 2 0 0 0 0 0 0 0 0 0 0 0 0 0 0 0 0 0 0 1 0 0 0 0 0 0 0 0 0 0 
bb_found_summary: 4721673 2786707 1.69436
entangled_found_hist: 0 714086 608143 1474954 36599 687 258 0 
entangled_found_summary: 6506613 2834727 2.29533
bb_ent_found_hist: 0 2777277 562332 626816 81150 300981 2016 209597 527 38 0 85 58 26 21 112 78 0 0 0 1 28 0 0 0 0 0 0 0 0 0 2 2 0 3 0 0 0 0 0 0 0 0 0 0 0 0 0 0 0 0 0 0 2 0 0 0 0 0 0 0 0 0 0 
bb_ent_found_summary: 9101860 4561152 1.99552
