WARNING: physical memory size is smaller than virtual memory size.

*** ChampSim Multicore Out-of-Order Simulator ***
Warmup Instructions: 25000000
Simulation Instructions: 100000000
Number of CPUs: 1
Page size: 4096

Off-chip DRAM Size: 4 GiB Channels: 1 Width: 64-bit Data Race: 3200 MT/s
Heartbeat CPU 0 instructions: 10000000 cycles: 2543018 heartbeat IPC: 3.932 cumulative IPC: 3.932 (Simulation time: 00 hr 00 min 17 sec)
Heartbeat CPU 0 instructions: 20000003 cycles: 5049189 heartbeat IPC: 3.99 cumulative IPC: 3.961 (Simulation time: 00 hr 00 min 34 sec)
Warmup finished CPU 0 instructions: 25000002 cycles: 6321222 cumulative IPC: 3.955 (Simulation time: 00 hr 00 min 43 sec)
Warmup complete CPU 0 instructions: 25000002 cycles: 6321222 cumulative IPC: 3.955 (Simulation time: 00 hr 00 min 43 sec)
Heartbeat CPU 0 instructions: 30000001 cycles: 13956272 heartbeat IPC: 1.123 cumulative IPC: 0.6549 (Simulation time: 00 hr 01 min 21 sec)
*** Reached end of trace: (0, "../traces/public_traces/compute_int/compute_int_14.champsimtrace.xz")
Heartbeat CPU 0 instructions: 40000000 cycles: 28287081 heartbeat IPC: 0.6978 cumulative IPC: 0.6829 (Simulation time: 00 hr 02 min 32 sec)
Heartbeat CPU 0 instructions: 50000002 cycles: 33594697 heartbeat IPC: 1.884 cumulative IPC: 0.9166 (Simulation time: 00 hr 02 min 59 sec)
Heartbeat CPU 0 instructions: 60000000 cycles: 48635564 heartbeat IPC: 0.6649 cumulative IPC: 0.8271 (Simulation time: 00 hr 04 min 13 sec)
*** Reached end of trace: (0, "../traces/public_traces/compute_int/compute_int_14.champsimtrace.xz")
Heartbeat CPU 0 instructions: 70000004 cycles: 63558394 heartbeat IPC: 0.6701 cumulative IPC: 0.7862 (Simulation time: 00 hr 05 min 27 sec)
Heartbeat CPU 0 instructions: 80000000 cycles: 68470819 heartbeat IPC: 2.036 cumulative IPC: 0.885 (Simulation time: 00 hr 05 min 52 sec)
Heartbeat CPU 0 instructions: 90000000 cycles: 82853523 heartbeat IPC: 0.6953 cumulative IPC: 0.8493 (Simulation time: 00 hr 07 min 04 sec)
*** Reached end of trace: (0, "../traces/public_traces/compute_int/compute_int_14.champsimtrace.xz")
Heartbeat CPU 0 instructions: 100000002 cycles: 97967952 heartbeat IPC: 0.6616 cumulative IPC: 0.8184 (Simulation time: 00 hr 08 min 19 sec)
Heartbeat CPU 0 instructions: 110000001 cycles: 103742524 heartbeat IPC: 1.732 cumulative IPC: 0.8725 (Simulation time: 00 hr 08 min 48 sec)
Heartbeat CPU 0 instructions: 120000002 cycles: 118027466 heartbeat IPC: 0.7 cumulative IPC: 0.8504 (Simulation time: 00 hr 09 min 59 sec)
*** Reached end of trace: (0, "../traces/public_traces/compute_int/compute_int_14.champsimtrace.xz")
Simulation finished CPU 0 instructions: 100000000 cycles: 118760989 cumulative IPC: 0.842 (Simulation time: 00 hr 10 min 34 sec)
Simulation complete CPU 0 instructions: 100000000 cycles: 118760989 cumulative IPC: 0.842 (Simulation time: 00 hr 10 min 34 sec)

ChampSim completed all CPUs

=== Simulation ===
CPU 0 runs ../traces/public_traces/compute_int/compute_int_14.champsimtrace.xz
Region of Interest Statistics

CPU 0 cumulative IPC: 0.842 instructions: 100000000 cycles: 118760989
CPU 0 Branch Prediction Accuracy: 96.02% MPKI: 11.34 Average ROB Occupancy at Mispredict: 24.88
Branch type MPKI
BRANCH_DIRECT_JUMP: 0
BRANCH_INDIRECT: 3.71
BRANCH_CONDITIONAL: 7.59
BRANCH_DIRECT_CALL: 0
BRANCH_INDIRECT_CALL: 0.0463
BRANCH_RETURN: 0.00012

LLC TOTAL        ACCESS:    2091642 HIT:     551020 MISS:    1540622
LLC LOAD         ACCESS:    1968178 HIT:     487981 MISS:    1480197
LLC RFO          ACCESS:      20514 HIT:      10207 MISS:      10307
LLC PREFETCH     ACCESS:          0 HIT:          0 MISS:          0
LLC WRITE        ACCESS:      29483 HIT:      29483 MISS:          0
LLC TRANSLATION  ACCESS:      73467 HIT:      23349 MISS:      50118
LLC PREFETCH REQUESTED:          0 ISSUED:          0 USEFUL:          0 USELESS:          0
LLC AVERAGE MISS LATENCY: 751.2 cycles
cpu0_DTLB TOTAL        ACCESS:   11655329 HIT:   10736851 MISS:     918478
cpu0_DTLB LOAD         ACCESS:   11655329 HIT:   10736851 MISS:     918478
cpu0_DTLB RFO          ACCESS:          0 HIT:          0 MISS:          0
cpu0_DTLB PREFETCH     ACCESS:          0 HIT:          0 MISS:          0
cpu0_DTLB WRITE        ACCESS:          0 HIT:          0 MISS:          0
cpu0_DTLB TRANSLATION  ACCESS:          0 HIT:          0 MISS:          0
cpu0_DTLB PREFETCH REQUESTED:          0 ISSUED:          0 USEFUL:          0 USELESS:          0
cpu0_DTLB AVERAGE MISS LATENCY: 87.07 cycles
cpu0_ITLB TOTAL        ACCESS:     714740 HIT:     711475 MISS:       3265
cpu0_ITLB LOAD         ACCESS:     714740 HIT:     711475 MISS:       3265
cpu0_ITLB RFO          ACCESS:          0 HIT:          0 MISS:          0
cpu0_ITLB PREFETCH     ACCESS:          0 HIT:          0 MISS:          0
cpu0_ITLB WRITE        ACCESS:          0 HIT:          0 MISS:          0
cpu0_ITLB TRANSLATION  ACCESS:          0 HIT:          0 MISS:          0
cpu0_ITLB PREFETCH REQUESTED:          0 ISSUED:          0 USEFUL:          0 USELESS:          0
cpu0_ITLB AVERAGE MISS LATENCY: 38.83 cycles
cpu0_L1D TOTAL        ACCESS:   12884544 HIT:   10324125 MISS:    2560419
cpu0_L1D LOAD         ACCESS:    9456408 HIT:    7047624 MISS:    2408784
cpu0_L1D RFO          ACCESS:          0 HIT:          0 MISS:          0
cpu0_L1D PREFETCH     ACCESS:          0 HIT:          0 MISS:          0
cpu0_L1D WRITE        ACCESS:    2876268 HIT:    2828766 MISS:      47502
cpu0_L1D TRANSLATION  ACCESS:     551868 HIT:     447735 MISS:     104133
cpu0_L1D PREFETCH REQUESTED:          0 ISSUED:          0 USEFUL:          0 USELESS:          0
cpu0_L1D AVERAGE MISS LATENCY: 467.6 cycles
cpu0_L1I TOTAL        ACCESS:     789397 HIT:     775784 MISS:      13613
cpu0_L1I LOAD         ACCESS:     789397 HIT:     775784 MISS:      13613
cpu0_L1I RFO          ACCESS:          0 HIT:          0 MISS:          0
cpu0_L1I PREFETCH     ACCESS:          0 HIT:          0 MISS:          0
cpu0_L1I WRITE        ACCESS:          0 HIT:          0 MISS:          0
cpu0_L1I TRANSLATION  ACCESS:          0 HIT:          0 MISS:          0
cpu0_L1I PREFETCH REQUESTED:          0 ISSUED:          0 USEFUL:          0 USELESS:          0
cpu0_L1I AVERAGE MISS LATENCY: 62.57 cycles
cpu0_L2C TOTAL        ACCESS:    2194091 HIT:     131932 MISS:    2062159
cpu0_L2C LOAD         ACCESS:    2041371 HIT:      73193 MISS:    1968178
cpu0_L2C RFO          ACCESS:      22912 HIT:       2398 MISS:      20514
cpu0_L2C PREFETCH     ACCESS:          0 HIT:          0 MISS:          0
cpu0_L2C WRITE        ACCESS:      33867 HIT:      33867 MISS:          0
cpu0_L2C TRANSLATION  ACCESS:      95941 HIT:      22474 MISS:      73467
cpu0_L2C PREFETCH REQUESTED:          0 ISSUED:          0 USEFUL:          0 USELESS:          0
cpu0_L2C AVERAGE MISS LATENCY: 581.9 cycles
cpu0_STLB TOTAL        ACCESS:     569742 HIT:      21981 MISS:     547761
cpu0_STLB LOAD         ACCESS:     569742 HIT:      21981 MISS:     547761
cpu0_STLB RFO          ACCESS:          0 HIT:          0 MISS:          0
cpu0_STLB PREFETCH     ACCESS:          0 HIT:          0 MISS:          0
cpu0_STLB WRITE        ACCESS:          0 HIT:          0 MISS:          0
cpu0_STLB TRANSLATION  ACCESS:          0 HIT:          0 MISS:          0
cpu0_STLB PREFETCH REQUESTED:          0 ISSUED:          0 USEFUL:          0 USELESS:          0
cpu0_STLB AVERAGE MISS LATENCY: 226.2 cycles

DRAM Statistics

Channel 0 RQ ROW_BUFFER_HIT:     979165
  ROW_BUFFER_MISS:     560945
 AVG DBUS CONGESTED CYCLE: 3.946
WQ ROW_BUFFER_HIT: Channel 0 
  ROW_BUFFER_MISS:       2723
  FULL:      11429
