WARNING: physical memory size is smaller than virtual memory size.

*** ChampSim Multicore Out-of-Order Simulator ***
Warmup Instructions: 25000000
Simulation Instructions: 100000000
Number of CPUs: 1
Page size: 4096

Off-chip DRAM Size: 4 GiB Channels: 1 Width: 64-bit Data Race: 3200 MT/s
Heartbeat CPU 0 instructions: 10000002 cycles: 2500217 heartbeat IPC: 4 cumulative IPC: 4 (Simulation time: 00 hr 00 min 18 sec)
Heartbeat CPU 0 instructions: 20000001 cycles: 5003212 heartbeat IPC: 3.995 cumulative IPC: 3.997 (Simulation time: 00 hr 00 min 36 sec)
Warmup finished CPU 0 instructions: 25000003 cycles: 6253387 cumulative IPC: 3.998 (Simulation time: 00 hr 00 min 45 sec)
Warmup complete CPU 0 instructions: 25000003 cycles: 6253387 cumulative IPC: 3.998 (Simulation time: 00 hr 00 min 45 sec)
Heartbeat CPU 0 instructions: 30000000 cycles: 9610753 heartbeat IPC: 2.17 cumulative IPC: 1.489 (Simulation time: 00 hr 01 min 01 sec)
*** Reached end of trace: (0, "../traces/public_traces/compute_int/compute_int_44.champsimtrace.xz")
Heartbeat CPU 0 instructions: 40000002 cycles: 18412070 heartbeat IPC: 1.136 cumulative IPC: 1.234 (Simulation time: 00 hr 01 min 39 sec)
Heartbeat CPU 0 instructions: 50000000 cycles: 25944835 heartbeat IPC: 1.328 cumulative IPC: 1.27 (Simulation time: 00 hr 02 min 14 sec)
Heartbeat CPU 0 instructions: 60000004 cycles: 32952415 heartbeat IPC: 1.427 cumulative IPC: 1.311 (Simulation time: 00 hr 02 min 46 sec)
*** Reached end of trace: (0, "../traces/public_traces/compute_int/compute_int_44.champsimtrace.xz")
Heartbeat CPU 0 instructions: 70000001 cycles: 41717949 heartbeat IPC: 1.141 cumulative IPC: 1.269 (Simulation time: 00 hr 03 min 24 sec)
Heartbeat CPU 0 instructions: 80000004 cycles: 49300992 heartbeat IPC: 1.319 cumulative IPC: 1.278 (Simulation time: 00 hr 03 min 59 sec)
Heartbeat CPU 0 instructions: 90000004 cycles: 56262819 heartbeat IPC: 1.436 cumulative IPC: 1.3 (Simulation time: 00 hr 04 min 32 sec)
*** Reached end of trace: (0, "../traces/public_traces/compute_int/compute_int_44.champsimtrace.xz")
Heartbeat CPU 0 instructions: 100000002 cycles: 65037580 heartbeat IPC: 1.14 cumulative IPC: 1.276 (Simulation time: 00 hr 05 min 10 sec)
Heartbeat CPU 0 instructions: 110000001 cycles: 72674645 heartbeat IPC: 1.309 cumulative IPC: 1.28 (Simulation time: 00 hr 05 min 44 sec)
Heartbeat CPU 0 instructions: 120000001 cycles: 79541667 heartbeat IPC: 1.456 cumulative IPC: 1.296 (Simulation time: 00 hr 06 min 17 sec)
*** Reached end of trace: (0, "../traces/public_traces/compute_int/compute_int_44.champsimtrace.xz")
Simulation finished CPU 0 instructions: 100000004 cycles: 77834768 cumulative IPC: 1.285 (Simulation time: 00 hr 06 min 36 sec)
Simulation complete CPU 0 instructions: 100000004 cycles: 77834768 cumulative IPC: 1.285 (Simulation time: 00 hr 06 min 36 sec)

ChampSim completed all CPUs

=== Simulation ===
CPU 0 runs ../traces/public_traces/compute_int/compute_int_44.champsimtrace.xz
Region of Interest Statistics

CPU 0 cumulative IPC: 1.285 instructions: 100000004 cycles: 77834768
CPU 0 Branch Prediction Accuracy: 88.76% MPKI: 18.86 Average ROB Occupancy at Mispredict: 23.66
Branch type MPKI
BRANCH_DIRECT_JUMP: 0.00065
BRANCH_INDIRECT: 2.01
BRANCH_CONDITIONAL: 16.8
BRANCH_DIRECT_CALL: 0.00196
BRANCH_INDIRECT_CALL: 0.0187
BRANCH_RETURN: 0.00175

LLC TOTAL        ACCESS:     493950 HIT:     318023 MISS:     175927
LLC LOAD         ACCESS:     236159 HIT:      98289 MISS:     137870
LLC RFO          ACCESS:      44057 HIT:      11745 MISS:      32312
LLC PREFETCH     ACCESS:          0 HIT:          0 MISS:          0
LLC WRITE        ACCESS:     194660 HIT:     193718 MISS:        942
LLC TRANSLATION  ACCESS:      19074 HIT:      14271 MISS:       4803
LLC PREFETCH REQUESTED:          0 ISSUED:          0 USEFUL:          0 USELESS:          0
LLC AVERAGE MISS LATENCY: 208.3 cycles
cpu0_DTLB TOTAL        ACCESS:   19066959 HIT:   18372816 MISS:     694143
cpu0_DTLB LOAD         ACCESS:   19066959 HIT:   18372816 MISS:     694143
cpu0_DTLB RFO          ACCESS:          0 HIT:          0 MISS:          0
cpu0_DTLB PREFETCH     ACCESS:          0 HIT:          0 MISS:          0
cpu0_DTLB WRITE        ACCESS:          0 HIT:          0 MISS:          0
cpu0_DTLB TRANSLATION  ACCESS:          0 HIT:          0 MISS:          0
cpu0_DTLB PREFETCH REQUESTED:          0 ISSUED:          0 USEFUL:          0 USELESS:          0
cpu0_DTLB AVERAGE MISS LATENCY: 9.561 cycles
cpu0_ITLB TOTAL        ACCESS:     563000 HIT:     562118 MISS:        882
cpu0_ITLB LOAD         ACCESS:     563000 HIT:     562118 MISS:        882
cpu0_ITLB RFO          ACCESS:          0 HIT:          0 MISS:          0
cpu0_ITLB PREFETCH     ACCESS:          0 HIT:          0 MISS:          0
cpu0_ITLB WRITE        ACCESS:          0 HIT:          0 MISS:          0
cpu0_ITLB TRANSLATION  ACCESS:          0 HIT:          0 MISS:          0
cpu0_ITLB PREFETCH REQUESTED:          0 ISSUED:          0 USEFUL:          0 USELESS:          0
cpu0_ITLB AVERAGE MISS LATENCY: 106.1 cycles
cpu0_L1D TOTAL        ACCESS:   24097475 HIT:   23058839 MISS:    1038636
cpu0_L1D LOAD         ACCESS:   19573611 HIT:   18804295 MISS:     769316
cpu0_L1D RFO          ACCESS:          0 HIT:          0 MISS:          0
cpu0_L1D PREFETCH     ACCESS:          0 HIT:          0 MISS:          0
cpu0_L1D WRITE        ACCESS:    4441082 HIT:    4245763 MISS:     195319
cpu0_L1D TRANSLATION  ACCESS:      82782 HIT:       8781 MISS:      74001
cpu0_L1D PREFETCH REQUESTED:          0 ISSUED:          0 USEFUL:          0 USELESS:          0
cpu0_L1D AVERAGE MISS LATENCY: 44.08 cycles
cpu0_L1I TOTAL        ACCESS:     635871 HIT:     629732 MISS:       6139
cpu0_L1I LOAD         ACCESS:     635871 HIT:     629732 MISS:       6139
cpu0_L1I RFO          ACCESS:          0 HIT:          0 MISS:          0
cpu0_L1I PREFETCH     ACCESS:          0 HIT:          0 MISS:          0
cpu0_L1I WRITE        ACCESS:          0 HIT:          0 MISS:          0
cpu0_L1I TRANSLATION  ACCESS:          0 HIT:          0 MISS:          0
cpu0_L1I PREFETCH REQUESTED:          0 ISSUED:          0 USEFUL:          0 USELESS:          0
cpu0_L1I AVERAGE MISS LATENCY: 178.9 cycles
cpu0_L2C TOTAL        ACCESS:    1087125 HIT:     787409 MISS:     299716
cpu0_L2C LOAD         ACCESS:     475225 HIT:     239066 MISS:     236159
cpu0_L2C RFO          ACCESS:     121923 HIT:      77866 MISS:      44057
cpu0_L2C PREFETCH     ACCESS:          0 HIT:          0 MISS:          0
cpu0_L2C WRITE        ACCESS:     416066 HIT:     415640 MISS:        426
cpu0_L2C TRANSLATION  ACCESS:      73911 HIT:      54837 MISS:      19074
cpu0_L2C PREFETCH REQUESTED:          0 ISSUED:          0 USEFUL:          0 USELESS:          0
cpu0_L2C AVERAGE MISS LATENCY: 142.8 cycles
cpu0_STLB TOTAL        ACCESS:     540524 HIT:     457950 MISS:      82574
cpu0_STLB LOAD         ACCESS:     540524 HIT:     457950 MISS:      82574
cpu0_STLB RFO          ACCESS:          0 HIT:          0 MISS:          0
cpu0_STLB PREFETCH     ACCESS:          0 HIT:          0 MISS:          0
cpu0_STLB WRITE        ACCESS:          0 HIT:          0 MISS:          0
cpu0_STLB TRANSLATION  ACCESS:          0 HIT:          0 MISS:          0
cpu0_STLB PREFETCH REQUESTED:          0 ISSUED:          0 USEFUL:          0 USELESS:          0
cpu0_STLB AVERAGE MISS LATENCY: 33.04 cycles

DRAM Statistics

Channel 0 RQ ROW_BUFFER_HIT:      11828
  ROW_BUFFER_MISS:     163154
 AVG DBUS CONGESTED CYCLE: 3.897
WQ ROW_BUFFER_HIT: Channel 0 
  ROW_BUFFER_MISS:      30541
  FULL:      92879
