WARNING: physical memory size is smaller than virtual memory size.

*** ChampSim Multicore Out-of-Order Simulator ***
Warmup Instructions: 25000000
Simulation Instructions: 100000000
Number of CPUs: 1
Page size: 4096

Off-chip DRAM Size: 4 GiB Channels: 1 Width: 64-bit Data Race: 3200 MT/s
Heartbeat CPU 0 instructions: 10000002 cycles: 2510025 heartbeat IPC: 3.984 cumulative IPC: 3.984 (Simulation time: 00 hr 00 min 19 sec)
Heartbeat CPU 0 instructions: 20000001 cycles: 5010054 heartbeat IPC: 4 cumulative IPC: 3.992 (Simulation time: 00 hr 00 min 40 sec)
Warmup finished CPU 0 instructions: 25000001 cycles: 6260055 cumulative IPC: 3.994 (Simulation time: 00 hr 00 min 50 sec)
Warmup complete CPU 0 instructions: 25000001 cycles: 6260055 cumulative IPC: 3.994 (Simulation time: 00 hr 00 min 50 sec)
Heartbeat CPU 0 instructions: 30000004 cycles: 9790901 heartbeat IPC: 2.092 cumulative IPC: 1.416 (Simulation time: 00 hr 01 min 07 sec)
*** Reached end of trace: (0, "../traces/public_traces/compute_int/compute_int_18.champsimtrace.xz")
Heartbeat CPU 0 instructions: 40000000 cycles: 17101939 heartbeat IPC: 1.368 cumulative IPC: 1.384 (Simulation time: 00 hr 01 min 42 sec)
Heartbeat CPU 0 instructions: 50000002 cycles: 25544091 heartbeat IPC: 1.185 cumulative IPC: 1.296 (Simulation time: 00 hr 02 min 22 sec)
Heartbeat CPU 0 instructions: 60000004 cycles: 33428450 heartbeat IPC: 1.268 cumulative IPC: 1.288 (Simulation time: 00 hr 02 min 59 sec)
*** Reached end of trace: (0, "../traces/public_traces/compute_int/compute_int_18.champsimtrace.xz")
Heartbeat CPU 0 instructions: 70000000 cycles: 40539097 heartbeat IPC: 1.406 cumulative IPC: 1.313 (Simulation time: 00 hr 03 min 34 sec)
Heartbeat CPU 0 instructions: 80000001 cycles: 48993380 heartbeat IPC: 1.183 cumulative IPC: 1.287 (Simulation time: 00 hr 04 min 13 sec)
Heartbeat CPU 0 instructions: 90000004 cycles: 57106703 heartbeat IPC: 1.233 cumulative IPC: 1.278 (Simulation time: 00 hr 04 min 51 sec)
*** Reached end of trace: (0, "../traces/public_traces/compute_int/compute_int_18.champsimtrace.xz")
Heartbeat CPU 0 instructions: 100000000 cycles: 63963160 heartbeat IPC: 1.458 cumulative IPC: 1.3 (Simulation time: 00 hr 05 min 25 sec)
Heartbeat CPU 0 instructions: 110000004 cycles: 72410336 heartbeat IPC: 1.184 cumulative IPC: 1.285 (Simulation time: 00 hr 06 min 04 sec)
Heartbeat CPU 0 instructions: 120000000 cycles: 80772358 heartbeat IPC: 1.196 cumulative IPC: 1.275 (Simulation time: 00 hr 06 min 43 sec)
*** Reached end of trace: (0, "../traces/public_traces/compute_int/compute_int_18.champsimtrace.xz")
Simulation finished CPU 0 instructions: 100000003 cycles: 77790098 cumulative IPC: 1.286 (Simulation time: 00 hr 06 min 59 sec)
Simulation complete CPU 0 instructions: 100000003 cycles: 77790098 cumulative IPC: 1.286 (Simulation time: 00 hr 06 min 59 sec)

ChampSim completed all CPUs

=== Simulation ===
CPU 0 runs ../traces/public_traces/compute_int/compute_int_18.champsimtrace.xz
Region of Interest Statistics

CPU 0 cumulative IPC: 1.286 instructions: 100000003 cycles: 77790098
CPU 0 Branch Prediction Accuracy: 87.33% MPKI: 28.28 Average ROB Occupancy at Mispredict: 10.76
Branch type MPKI
BRANCH_DIRECT_JUMP: 0.00238
BRANCH_INDIRECT: 12.8
BRANCH_CONDITIONAL: 15.1
BRANCH_DIRECT_CALL: 0.00392
BRANCH_INDIRECT_CALL: 0.332
BRANCH_RETURN: 0.00138

LLC TOTAL        ACCESS:     229709 HIT:     225082 MISS:       4627
LLC LOAD         ACCESS:     126740 HIT:     124321 MISS:       2419
LLC RFO          ACCESS:      38012 HIT:      35942 MISS:       2070
LLC PREFETCH     ACCESS:          0 HIT:          0 MISS:          0
LLC WRITE        ACCESS:      64200 HIT:      64197 MISS:          3
LLC TRANSLATION  ACCESS:        757 HIT:        622 MISS:        135
LLC PREFETCH REQUESTED:          0 ISSUED:          0 USEFUL:          0 USELESS:          0
LLC AVERAGE MISS LATENCY: 163.7 cycles
cpu0_DTLB TOTAL        ACCESS:   20850449 HIT:   20543719 MISS:     306730
cpu0_DTLB LOAD         ACCESS:   20850449 HIT:   20543719 MISS:     306730
cpu0_DTLB RFO          ACCESS:          0 HIT:          0 MISS:          0
cpu0_DTLB PREFETCH     ACCESS:          0 HIT:          0 MISS:          0
cpu0_DTLB WRITE        ACCESS:          0 HIT:          0 MISS:          0
cpu0_DTLB TRANSLATION  ACCESS:          0 HIT:          0 MISS:          0
cpu0_DTLB PREFETCH REQUESTED:          0 ISSUED:          0 USEFUL:          0 USELESS:          0
cpu0_DTLB AVERAGE MISS LATENCY: 4.872 cycles
cpu0_ITLB TOTAL        ACCESS:    6763259 HIT:    6745178 MISS:      18081
cpu0_ITLB LOAD         ACCESS:    6763259 HIT:    6745178 MISS:      18081
cpu0_ITLB RFO          ACCESS:          0 HIT:          0 MISS:          0
cpu0_ITLB PREFETCH     ACCESS:          0 HIT:          0 MISS:          0
cpu0_ITLB WRITE        ACCESS:          0 HIT:          0 MISS:          0
cpu0_ITLB TRANSLATION  ACCESS:          0 HIT:          0 MISS:          0
cpu0_ITLB PREFETCH REQUESTED:          0 ISSUED:          0 USEFUL:          0 USELESS:          0
cpu0_ITLB AVERAGE MISS LATENCY: 3.117 cycles
cpu0_L1D TOTAL        ACCESS:   26358089 HIT:   25238319 MISS:    1119770
cpu0_L1D LOAD         ACCESS:   16642370 HIT:   15715627 MISS:     926743
cpu0_L1D RFO          ACCESS:          0 HIT:          0 MISS:          0
cpu0_L1D PREFETCH     ACCESS:          0 HIT:          0 MISS:          0
cpu0_L1D WRITE        ACCESS:    9714651 HIT:    9522551 MISS:     192100
cpu0_L1D TRANSLATION  ACCESS:       1068 HIT:        141 MISS:        927
cpu0_L1D PREFETCH REQUESTED:          0 ISSUED:          0 USEFUL:          0 USELESS:          0
cpu0_L1D AVERAGE MISS LATENCY: 7.685 cycles
cpu0_L1I TOTAL        ACCESS:    7809288 HIT:    6975790 MISS:     833498
cpu0_L1I LOAD         ACCESS:    7809288 HIT:    6975790 MISS:     833498
cpu0_L1I RFO          ACCESS:          0 HIT:          0 MISS:          0
cpu0_L1I PREFETCH     ACCESS:          0 HIT:          0 MISS:          0
cpu0_L1I WRITE        ACCESS:          0 HIT:          0 MISS:          0
cpu0_L1I TRANSLATION  ACCESS:          0 HIT:          0 MISS:          0
cpu0_L1I PREFETCH REQUESTED:          0 ISSUED:          0 USEFUL:          0 USELESS:          0
cpu0_L1I AVERAGE MISS LATENCY: 8.379 cycles
cpu0_L2C TOTAL        ACCESS:    1474211 HIT:    1308518 MISS:     165693
cpu0_L2C LOAD         ACCESS:    1213296 HIT:    1086556 MISS:     126740
cpu0_L2C RFO          ACCESS:      91123 HIT:      53111 MISS:      38012
cpu0_L2C PREFETCH     ACCESS:          0 HIT:          0 MISS:          0
cpu0_L2C WRITE        ACCESS:     168865 HIT:     168681 MISS:        184
cpu0_L2C TRANSLATION  ACCESS:        927 HIT:        170 MISS:        757
cpu0_L2C PREFETCH REQUESTED:          0 ISSUED:          0 USEFUL:          0 USELESS:          0
cpu0_L2C AVERAGE MISS LATENCY: 24.64 cycles
cpu0_STLB TOTAL        ACCESS:     215239 HIT:     214190 MISS:       1049
cpu0_STLB LOAD         ACCESS:     215239 HIT:     214190 MISS:       1049
cpu0_STLB RFO          ACCESS:          0 HIT:          0 MISS:          0
cpu0_STLB PREFETCH     ACCESS:          0 HIT:          0 MISS:          0
cpu0_STLB WRITE        ACCESS:          0 HIT:          0 MISS:          0
cpu0_STLB TRANSLATION  ACCESS:          0 HIT:          0 MISS:          0
cpu0_STLB PREFETCH REQUESTED:          0 ISSUED:          0 USEFUL:          0 USELESS:          0
cpu0_STLB AVERAGE MISS LATENCY: 101.1 cycles

DRAM Statistics

Channel 0 RQ ROW_BUFFER_HIT:       2799
  ROW_BUFFER_MISS:       1825
 AVG DBUS CONGESTED CYCLE: 3.949
WQ ROW_BUFFER_HIT: Channel 0 
  ROW_BUFFER_MISS:         44
  FULL:        746
