WARNING: physical memory size is smaller than virtual memory size.

*** ChampSim Multicore Out-of-Order Simulator ***
Warmup Instructions: 25000000
Simulation Instructions: 100000000
Number of CPUs: 1
Page size: 4096

Off-chip DRAM Size: 4 GiB Channels: 1 Width: 64-bit Data Race: 3200 MT/s
Heartbeat CPU 0 instructions: 10000003 cycles: 2604088 heartbeat IPC: 3.84 cumulative IPC: 3.84 (Simulation time: 00 hr 00 min 17 sec)
Heartbeat CPU 0 instructions: 20000003 cycles: 5130917 heartbeat IPC: 3.958 cumulative IPC: 3.898 (Simulation time: 00 hr 00 min 37 sec)
Warmup finished CPU 0 instructions: 25000003 cycles: 6381006 cumulative IPC: 3.918 (Simulation time: 00 hr 00 min 49 sec)
Warmup complete CPU 0 instructions: 25000003 cycles: 6381006 cumulative IPC: 3.918 (Simulation time: 00 hr 00 min 49 sec)
Heartbeat CPU 0 instructions: 30000000 cycles: 24994354 heartbeat IPC: 0.5034 cumulative IPC: 0.2686 (Simulation time: 00 hr 02 min 18 sec)
*** Reached end of trace: (0, "../traces/public_traces/compute_fp/compute_fp_1.champsimtrace.xz")
Heartbeat CPU 0 instructions: 40000002 cycles: 58591537 heartbeat IPC: 0.2976 cumulative IPC: 0.2873 (Simulation time: 00 hr 04 min 12 sec)
Heartbeat CPU 0 instructions: 50000004 cycles: 93028419 heartbeat IPC: 0.2904 cumulative IPC: 0.2885 (Simulation time: 00 hr 06 min 39 sec)
Heartbeat CPU 0 instructions: 60000001 cycles: 134073491 heartbeat IPC: 0.2436 cumulative IPC: 0.2741 (Simulation time: 00 hr 09 min 56 sec)
*** Reached end of trace: (0, "../traces/public_traces/compute_fp/compute_fp_1.champsimtrace.xz")
Heartbeat CPU 0 instructions: 70000002 cycles: 167401710 heartbeat IPC: 0.3 cumulative IPC: 0.2795 (Simulation time: 00 hr 11 min 49 sec)
Heartbeat CPU 0 instructions: 80000001 cycles: 201692816 heartbeat IPC: 0.2916 cumulative IPC: 0.2816 (Simulation time: 00 hr 14 min 15 sec)
Heartbeat CPU 0 instructions: 90000000 cycles: 242952577 heartbeat IPC: 0.2424 cumulative IPC: 0.2748 (Simulation time: 00 hr 17 min 33 sec)
*** Reached end of trace: (0, "../traces/public_traces/compute_fp/compute_fp_1.champsimtrace.xz")
Heartbeat CPU 0 instructions: 100000003 cycles: 276127080 heartbeat IPC: 0.3014 cumulative IPC: 0.278 (Simulation time: 00 hr 19 min 25 sec)
Heartbeat CPU 0 instructions: 110000004 cycles: 310235476 heartbeat IPC: 0.2932 cumulative IPC: 0.2797 (Simulation time: 00 hr 21 min 50 sec)
Heartbeat CPU 0 instructions: 120000001 cycles: 351818349 heartbeat IPC: 0.2405 cumulative IPC: 0.275 (Simulation time: 00 hr 25 min 10 sec)
*** Reached end of trace: (0, "../traces/public_traces/compute_fp/compute_fp_1.champsimtrace.xz")
Simulation finished CPU 0 instructions: 100000000 cycles: 360590275 cumulative IPC: 0.2773 (Simulation time: 00 hr 26 min 02 sec)
Simulation complete CPU 0 instructions: 100000000 cycles: 360590275 cumulative IPC: 0.2773 (Simulation time: 00 hr 26 min 02 sec)

ChampSim completed all CPUs

=== Simulation ===
CPU 0 runs ../traces/public_traces/compute_fp/compute_fp_1.champsimtrace.xz
Region of Interest Statistics

CPU 0 cumulative IPC: 0.2773 instructions: 100000000 cycles: 360590275
CPU 0 Branch Prediction Accuracy: 92.87% MPKI: 9.886 Average ROB Occupancy at Mispredict: 31.62
Branch type MPKI
BRANCH_DIRECT_JUMP: 3e-05
BRANCH_INDIRECT: 0.664
BRANCH_CONDITIONAL: 9.22
BRANCH_DIRECT_CALL: 0
BRANCH_INDIRECT_CALL: 0.00052
BRANCH_RETURN: 4e-05

LLC TOTAL        ACCESS:    6547168 HIT:    2134671 MISS:    4412497
LLC LOAD         ACCESS:    4675693 HIT:     311902 MISS:    4363791
LLC RFO          ACCESS:      38964 HIT:      12907 MISS:      26057
LLC PREFETCH     ACCESS:          0 HIT:          0 MISS:          0
LLC WRITE        ACCESS:    1793381 HIT:    1793375 MISS:          6
LLC TRANSLATION  ACCESS:      39130 HIT:      16487 MISS:      22643
LLC PREFETCH REQUESTED:          0 ISSUED:          0 USEFUL:          0 USELESS:          0
LLC AVERAGE MISS LATENCY: 713.7 cycles
cpu0_DTLB TOTAL        ACCESS:   21671130 HIT:   20744294 MISS:     926836
cpu0_DTLB LOAD         ACCESS:   21671130 HIT:   20744294 MISS:     926836
cpu0_DTLB RFO          ACCESS:          0 HIT:          0 MISS:          0
cpu0_DTLB PREFETCH     ACCESS:          0 HIT:          0 MISS:          0
cpu0_DTLB WRITE        ACCESS:          0 HIT:          0 MISS:          0
cpu0_DTLB TRANSLATION  ACCESS:          0 HIT:          0 MISS:          0
cpu0_DTLB PREFETCH REQUESTED:          0 ISSUED:          0 USEFUL:          0 USELESS:          0
cpu0_DTLB AVERAGE MISS LATENCY: 34.05 cycles
cpu0_ITLB TOTAL        ACCESS:       6912 HIT:       6225 MISS:        687
cpu0_ITLB LOAD         ACCESS:       6912 HIT:       6225 MISS:        687
cpu0_ITLB RFO          ACCESS:          0 HIT:          0 MISS:          0
cpu0_ITLB PREFETCH     ACCESS:          0 HIT:          0 MISS:          0
cpu0_ITLB WRITE        ACCESS:          0 HIT:          0 MISS:          0
cpu0_ITLB TRANSLATION  ACCESS:          0 HIT:          0 MISS:          0
cpu0_ITLB PREFETCH REQUESTED:          0 ISSUED:          0 USEFUL:          0 USELESS:          0
cpu0_ITLB AVERAGE MISS LATENCY: 90.18 cycles
cpu0_L1D TOTAL        ACCESS:   26517805 HIT:   11713903 MISS:   14803902
cpu0_L1D LOAD         ACCESS:   19032410 HIT:    4576893 MISS:   14455517
cpu0_L1D RFO          ACCESS:          0 HIT:          0 MISS:          0
cpu0_L1D PREFETCH     ACCESS:          0 HIT:          0 MISS:          0
cpu0_L1D WRITE        ACCESS:    7369573 HIT:    7081012 MISS:     288561
cpu0_L1D TRANSLATION  ACCESS:     115822 HIT:      55998 MISS:      59824
cpu0_L1D PREFETCH REQUESTED:          0 ISSUED:          0 USEFUL:          0 USELESS:          0
cpu0_L1D AVERAGE MISS LATENCY: 212.3 cycles
cpu0_L1I TOTAL        ACCESS:       7993 HIT:       4530 MISS:       3463
cpu0_L1I LOAD         ACCESS:       7993 HIT:       4530 MISS:       3463
cpu0_L1I RFO          ACCESS:          0 HIT:          0 MISS:          0
cpu0_L1I PREFETCH     ACCESS:          0 HIT:          0 MISS:          0
cpu0_L1I WRITE        ACCESS:          0 HIT:          0 MISS:          0
cpu0_L1I TRANSLATION  ACCESS:          0 HIT:          0 MISS:          0
cpu0_L1I PREFETCH REQUESTED:          0 ISSUED:          0 USEFUL:          0 USELESS:          0
cpu0_L1I AVERAGE MISS LATENCY: 138.2 cycles
cpu0_L2C TOTAL        ACCESS:    7020788 HIT:    2266994 MISS:    4753794
cpu0_L2C LOAD         ACCESS:    4938836 HIT:     263144 MISS:    4675692
cpu0_L2C RFO          ACCESS:      56757 HIT:      17793 MISS:      38964
cpu0_L2C PREFETCH     ACCESS:          0 HIT:          0 MISS:          0
cpu0_L2C WRITE        ACCESS:    1965829 HIT:    1965821 MISS:          8
cpu0_L2C TRANSLATION  ACCESS:      59366 HIT:      20236 MISS:      39130
cpu0_L2C PREFETCH REQUESTED:          0 ISSUED:          0 USEFUL:          0 USELESS:          0
cpu0_L2C AVERAGE MISS LATENCY: 683.4 cycles
cpu0_STLB TOTAL        ACCESS:     403801 HIT:     289616 MISS:     114185
cpu0_STLB LOAD         ACCESS:     403801 HIT:     289616 MISS:     114185
cpu0_STLB RFO          ACCESS:          0 HIT:          0 MISS:          0
cpu0_STLB PREFETCH     ACCESS:          0 HIT:          0 MISS:          0
cpu0_STLB WRITE        ACCESS:          0 HIT:          0 MISS:          0
cpu0_STLB TRANSLATION  ACCESS:          0 HIT:          0 MISS:          0
cpu0_STLB PREFETCH REQUESTED:          0 ISSUED:          0 USEFUL:          0 USELESS:          0
cpu0_STLB AVERAGE MISS LATENCY: 329.4 cycles

DRAM Statistics

Channel 0 RQ ROW_BUFFER_HIT:    1336649
  ROW_BUFFER_MISS:    3074686
 AVG DBUS CONGESTED CYCLE: 3.974
WQ ROW_BUFFER_HIT: Channel 0 
  ROW_BUFFER_MISS:      35523
  FULL:    1470528
