WARNING: physical memory size is smaller than virtual memory size.

*** ChampSim Multicore Out-of-Order Simulator ***
Warmup Instructions: 25000000
Simulation Instructions: 100000000
Number of CPUs: 1
Page size: 4096

Off-chip DRAM Size: 4 GiB Channels: 1 Width: 64-bit Data Race: 3200 MT/s
Heartbeat CPU 0 instructions: 10000003 cycles: 2500043 heartbeat IPC: 4 cumulative IPC: 4 (Simulation time: 00 hr 00 min 19 sec)
Heartbeat CPU 0 instructions: 20000003 cycles: 5000043 heartbeat IPC: 4 cumulative IPC: 4 (Simulation time: 00 hr 00 min 38 sec)
Warmup finished CPU 0 instructions: 25000003 cycles: 6250044 cumulative IPC: 4 (Simulation time: 00 hr 00 min 47 sec)
Warmup complete CPU 0 instructions: 25000003 cycles: 6250044 cumulative IPC: 4 (Simulation time: 00 hr 00 min 47 sec)
Heartbeat CPU 0 instructions: 30000001 cycles: 29584849 heartbeat IPC: 0.4068 cumulative IPC: 0.2143 (Simulation time: 00 hr 02 min 06 sec)
*** Reached end of trace: (0, "../traces/public_traces/compute_int/compute_int_39.champsimtrace.xz")
Heartbeat CPU 0 instructions: 40000003 cycles: 41219493 heartbeat IPC: 0.8595 cumulative IPC: 0.4289 (Simulation time: 00 hr 02 min 55 sec)
Heartbeat CPU 0 instructions: 50000000 cycles: 47381184 heartbeat IPC: 1.623 cumulative IPC: 0.6078 (Simulation time: 00 hr 03 min 27 sec)
Heartbeat CPU 0 instructions: 60000003 cycles: 68717214 heartbeat IPC: 0.4687 cumulative IPC: 0.5603 (Simulation time: 00 hr 04 min 46 sec)
*** Reached end of trace: (0, "../traces/public_traces/compute_int/compute_int_39.champsimtrace.xz")
Heartbeat CPU 0 instructions: 70000004 cycles: 85852734 heartbeat IPC: 0.5836 cumulative IPC: 0.5653 (Simulation time: 00 hr 05 min 52 sec)
Heartbeat CPU 0 instructions: 80000004 cycles: 92036860 heartbeat IPC: 1.617 cumulative IPC: 0.6411 (Simulation time: 00 hr 06 min 25 sec)
Heartbeat CPU 0 instructions: 90000003 cycles: 107724849 heartbeat IPC: 0.6374 cumulative IPC: 0.6406 (Simulation time: 00 hr 07 min 26 sec)
*** Reached end of trace: (0, "../traces/public_traces/compute_int/compute_int_39.champsimtrace.xz")
Heartbeat CPU 0 instructions: 100000003 cycles: 130475847 heartbeat IPC: 0.4395 cumulative IPC: 0.6037 (Simulation time: 00 hr 08 min 50 sec)
Heartbeat CPU 0 instructions: 110000000 cycles: 136670680 heartbeat IPC: 1.614 cumulative IPC: 0.6517 (Simulation time: 00 hr 09 min 23 sec)
Heartbeat CPU 0 instructions: 120000001 cycles: 146857621 heartbeat IPC: 0.9816 cumulative IPC: 0.6756 (Simulation time: 00 hr 10 min 07 sec)
*** Reached end of trace: (0, "../traces/public_traces/compute_int/compute_int_39.champsimtrace.xz")
Simulation finished CPU 0 instructions: 100000000 cycles: 166010605 cumulative IPC: 0.6024 (Simulation time: 00 hr 11 min 32 sec)
Simulation complete CPU 0 instructions: 100000000 cycles: 166010605 cumulative IPC: 0.6024 (Simulation time: 00 hr 11 min 32 sec)

ChampSim completed all CPUs

=== Simulation ===
CPU 0 runs ../traces/public_traces/compute_int/compute_int_39.champsimtrace.xz
Region of Interest Statistics

CPU 0 cumulative IPC: 0.6024 instructions: 100000000 cycles: 166010605
CPU 0 Branch Prediction Accuracy: 87.66% MPKI: 14.68 Average ROB Occupancy at Mispredict: 26.59
Branch type MPKI
BRANCH_DIRECT_JUMP: 0.00075
BRANCH_INDIRECT: 11.3
BRANCH_CONDITIONAL: 3.4
BRANCH_DIRECT_CALL: 0.00144
BRANCH_INDIRECT_CALL: 0.0194
BRANCH_RETURN: 0.00153

LLC TOTAL        ACCESS:    3568310 HIT:    1759257 MISS:    1809053
LLC LOAD         ACCESS:      48522 HIT:       1907 MISS:      46615
LLC RFO          ACCESS:    1731070 HIT:        522 MISS:    1730548
LLC PREFETCH     ACCESS:          0 HIT:          0 MISS:          0
LLC WRITE        ACCESS:    1756448 HIT:    1756102 MISS:        346
LLC TRANSLATION  ACCESS:      32270 HIT:        726 MISS:      31544
LLC PREFETCH REQUESTED:          0 ISSUED:          0 USEFUL:          0 USELESS:          0
LLC AVERAGE MISS LATENCY: 923.6 cycles
cpu0_DTLB TOTAL        ACCESS:   17414778 HIT:   16847277 MISS:     567501
cpu0_DTLB LOAD         ACCESS:   17414778 HIT:   16847277 MISS:     567501
cpu0_DTLB RFO          ACCESS:          0 HIT:          0 MISS:          0
cpu0_DTLB PREFETCH     ACCESS:          0 HIT:          0 MISS:          0
cpu0_DTLB WRITE        ACCESS:          0 HIT:          0 MISS:          0
cpu0_DTLB TRANSLATION  ACCESS:          0 HIT:          0 MISS:          0
cpu0_DTLB PREFETCH REQUESTED:          0 ISSUED:          0 USEFUL:          0 USELESS:          0
cpu0_DTLB AVERAGE MISS LATENCY: 30.62 cycles
cpu0_ITLB TOTAL        ACCESS:    6944378 HIT:    6941982 MISS:       2396
cpu0_ITLB LOAD         ACCESS:    6944378 HIT:    6941982 MISS:       2396
cpu0_ITLB RFO          ACCESS:          0 HIT:          0 MISS:          0
cpu0_ITLB PREFETCH     ACCESS:          0 HIT:          0 MISS:          0
cpu0_ITLB WRITE        ACCESS:          0 HIT:          0 MISS:          0
cpu0_ITLB TRANSLATION  ACCESS:          0 HIT:          0 MISS:          0
cpu0_ITLB PREFETCH REQUESTED:          0 ISSUED:          0 USEFUL:          0 USELESS:          0
cpu0_ITLB AVERAGE MISS LATENCY: 93.85 cycles
cpu0_L1D TOTAL        ACCESS:   21160715 HIT:   19184025 MISS:    1976690
cpu0_L1D LOAD         ACCESS:   13600509 HIT:   13430245 MISS:     170264
cpu0_L1D RFO          ACCESS:          0 HIT:          0 MISS:          0
cpu0_L1D PREFETCH     ACCESS:          0 HIT:          0 MISS:          0
cpu0_L1D WRITE        ACCESS:    7491203 HIT:    5724668 MISS:    1766535
cpu0_L1D TRANSLATION  ACCESS:      69003 HIT:      29112 MISS:      39891
cpu0_L1D PREFETCH REQUESTED:          0 ISSUED:          0 USEFUL:          0 USELESS:          0
cpu0_L1D AVERAGE MISS LATENCY: 874.4 cycles
cpu0_L1I TOTAL        ACCESS:    8052183 HIT:    7664604 MISS:     387579
cpu0_L1I LOAD         ACCESS:    8052183 HIT:    7664604 MISS:     387579
cpu0_L1I RFO          ACCESS:          0 HIT:          0 MISS:          0
cpu0_L1I PREFETCH     ACCESS:          0 HIT:          0 MISS:          0
cpu0_L1I WRITE        ACCESS:          0 HIT:          0 MISS:          0
cpu0_L1I TRANSLATION  ACCESS:          0 HIT:          0 MISS:          0
cpu0_L1I PREFETCH REQUESTED:          0 ISSUED:          0 USEFUL:          0 USELESS:          0
cpu0_L1I AVERAGE MISS LATENCY: 11.22 cycles
cpu0_L2C TOTAL        ACCESS:    3882807 HIT:    2070718 MISS:    1812089
cpu0_L2C LOAD         ACCESS:     313674 HIT:     265152 MISS:      48522
cpu0_L2C RFO          ACCESS:    1748591 HIT:      17521 MISS:    1731070
cpu0_L2C PREFETCH     ACCESS:          0 HIT:          0 MISS:          0
cpu0_L2C WRITE        ACCESS:    1780764 HIT:    1780537 MISS:        227
cpu0_L2C TRANSLATION  ACCESS:      39778 HIT:       7508 MISS:      32270
cpu0_L2C PREFETCH REQUESTED:          0 ISSUED:          0 USEFUL:          0 USELESS:          0
cpu0_L2C AVERAGE MISS LATENCY: 943 cycles
cpu0_STLB TOTAL        ACCESS:      80279 HIT:      31359 MISS:      48920
cpu0_STLB LOAD         ACCESS:      80279 HIT:      31359 MISS:      48920
cpu0_STLB RFO          ACCESS:          0 HIT:          0 MISS:          0
cpu0_STLB PREFETCH     ACCESS:          0 HIT:          0 MISS:          0
cpu0_STLB WRITE        ACCESS:          0 HIT:          0 MISS:          0
cpu0_STLB TRANSLATION  ACCESS:          0 HIT:          0 MISS:          0
cpu0_STLB PREFETCH REQUESTED:          0 ISSUED:          0 USEFUL:          0 USELESS:          0
cpu0_STLB AVERAGE MISS LATENCY: 413 cycles

DRAM Statistics

Channel 0 RQ ROW_BUFFER_HIT:     475902
  ROW_BUFFER_MISS:    1332805
 AVG DBUS CONGESTED CYCLE: 3.984
WQ ROW_BUFFER_HIT: Channel 0 
  ROW_BUFFER_MISS:     534988
  FULL:    1200352
