WARNING: physical memory size is smaller than virtual memory size.

*** ChampSim Multicore Out-of-Order Simulator ***
Warmup Instructions: 25000000
Simulation Instructions: 100000000
Number of CPUs: 1
Page size: 4096

Off-chip DRAM Size: 4 GiB Channels: 1 Width: 64-bit Data Race: 3200 MT/s
Heartbeat CPU 0 instructions: 10000000 cycles: 2724012 heartbeat IPC: 3.671 cumulative IPC: 3.671 (Simulation time: 00 hr 00 min 21 sec)
Heartbeat CPU 0 instructions: 20000002 cycles: 5379081 heartbeat IPC: 3.766 cumulative IPC: 3.718 (Simulation time: 00 hr 00 min 42 sec)
Warmup finished CPU 0 instructions: 25000003 cycles: 6727722 cumulative IPC: 3.716 (Simulation time: 00 hr 00 min 52 sec)
Warmup complete CPU 0 instructions: 25000003 cycles: 6727722 cumulative IPC: 3.716 (Simulation time: 00 hr 00 min 52 sec)
Heartbeat CPU 0 instructions: 30000004 cycles: 26577658 heartbeat IPC: 0.4717 cumulative IPC: 0.2519 (Simulation time: 00 hr 02 min 04 sec)
*** Reached end of trace: (0, "../traces/public_traces/compute_fp/compute_fp_7.champsimtrace.xz")
Heartbeat CPU 0 instructions: 40000000 cycles: 66970993 heartbeat IPC: 0.2476 cumulative IPC: 0.249 (Simulation time: 00 hr 04 min 30 sec)
Heartbeat CPU 0 instructions: 50000001 cycles: 91035045 heartbeat IPC: 0.4156 cumulative IPC: 0.2965 (Simulation time: 00 hr 06 min 05 sec)
Heartbeat CPU 0 instructions: 60000004 cycles: 127625944 heartbeat IPC: 0.2733 cumulative IPC: 0.2895 (Simulation time: 00 hr 08 min 16 sec)
*** Reached end of trace: (0, "../traces/public_traces/compute_fp/compute_fp_7.champsimtrace.xz")
Heartbeat CPU 0 instructions: 70000002 cycles: 169539370 heartbeat IPC: 0.2386 cumulative IPC: 0.2764 (Simulation time: 00 hr 10 min 46 sec)
Heartbeat CPU 0 instructions: 80000004 cycles: 193195867 heartbeat IPC: 0.4227 cumulative IPC: 0.295 (Simulation time: 00 hr 12 min 19 sec)
Heartbeat CPU 0 instructions: 90000003 cycles: 228484688 heartbeat IPC: 0.2834 cumulative IPC: 0.2931 (Simulation time: 00 hr 14 min 27 sec)
*** Reached end of trace: (0, "../traces/public_traces/compute_fp/compute_fp_7.champsimtrace.xz")
Heartbeat CPU 0 instructions: 100000002 cycles: 271984951 heartbeat IPC: 0.2299 cumulative IPC: 0.2827 (Simulation time: 00 hr 17 min 02 sec)
Heartbeat CPU 0 instructions: 110000000 cycles: 296210483 heartbeat IPC: 0.4128 cumulative IPC: 0.2936 (Simulation time: 00 hr 18 min 36 sec)
Heartbeat CPU 0 instructions: 120000000 cycles: 332018429 heartbeat IPC: 0.2793 cumulative IPC: 0.292 (Simulation time: 00 hr 20 min 48 sec)
*** Reached end of trace: (0, "../traces/public_traces/compute_fp/compute_fp_7.champsimtrace.xz")
Simulation finished CPU 0 instructions: 100000000 cycles: 345762731 cumulative IPC: 0.2892 (Simulation time: 00 hr 22 min 00 sec)
Simulation complete CPU 0 instructions: 100000000 cycles: 345762731 cumulative IPC: 0.2892 (Simulation time: 00 hr 22 min 00 sec)

ChampSim completed all CPUs

=== Simulation ===
CPU 0 runs ../traces/public_traces/compute_fp/compute_fp_7.champsimtrace.xz
Region of Interest Statistics

CPU 0 cumulative IPC: 0.2892 instructions: 100000000 cycles: 345762731
CPU 0 Branch Prediction Accuracy: 89.97% MPKI: 16.22 Average ROB Occupancy at Mispredict: 43.18
Branch type MPKI
BRANCH_DIRECT_JUMP: 0.00019
BRANCH_INDIRECT: 4.04
BRANCH_CONDITIONAL: 12.2
BRANCH_DIRECT_CALL: 5e-05
BRANCH_INDIRECT_CALL: 0.00182
BRANCH_RETURN: 8e-05

LLC TOTAL        ACCESS:    7238183 HIT:    3751205 MISS:    3486978
LLC LOAD         ACCESS:    3864778 HIT:    1163690 MISS:    2701088
LLC RFO          ACCESS:    1073596 HIT:     319005 MISS:     754591
LLC PREFETCH     ACCESS:          0 HIT:          0 MISS:          0
LLC WRITE        ACCESS:    2227683 HIT:    2226989 MISS:        694
LLC TRANSLATION  ACCESS:      72126 HIT:      41521 MISS:      30605
LLC PREFETCH REQUESTED:          0 ISSUED:          0 USEFUL:          0 USELESS:          0
LLC AVERAGE MISS LATENCY: 505.9 cycles
cpu0_DTLB TOTAL        ACCESS:   27297451 HIT:   25344807 MISS:    1952644
cpu0_DTLB LOAD         ACCESS:   27297451 HIT:   25344807 MISS:    1952644
cpu0_DTLB RFO          ACCESS:          0 HIT:          0 MISS:          0
cpu0_DTLB PREFETCH     ACCESS:          0 HIT:          0 MISS:          0
cpu0_DTLB WRITE        ACCESS:          0 HIT:          0 MISS:          0
cpu0_DTLB TRANSLATION  ACCESS:          0 HIT:          0 MISS:          0
cpu0_DTLB PREFETCH REQUESTED:          0 ISSUED:          0 USEFUL:          0 USELESS:          0
cpu0_DTLB AVERAGE MISS LATENCY: 17.28 cycles
cpu0_ITLB TOTAL        ACCESS:      11047 HIT:      10233 MISS:        814
cpu0_ITLB LOAD         ACCESS:      11047 HIT:      10233 MISS:        814
cpu0_ITLB RFO          ACCESS:          0 HIT:          0 MISS:          0
cpu0_ITLB PREFETCH     ACCESS:          0 HIT:          0 MISS:          0
cpu0_ITLB WRITE        ACCESS:          0 HIT:          0 MISS:          0
cpu0_ITLB TRANSLATION  ACCESS:          0 HIT:          0 MISS:          0
cpu0_ITLB PREFETCH REQUESTED:          0 ISSUED:          0 USEFUL:          0 USELESS:          0
cpu0_ITLB AVERAGE MISS LATENCY: 142.8 cycles
cpu0_L1D TOTAL        ACCESS:   31873397 HIT:   17194324 MISS:   14679073
cpu0_L1D LOAD         ACCESS:   21288532 HIT:   10780434 MISS:   10508098
cpu0_L1D RFO          ACCESS:          0 HIT:          0 MISS:          0
cpu0_L1D PREFETCH     ACCESS:          0 HIT:          0 MISS:          0
cpu0_L1D WRITE        ACCESS:   10396742 HIT:    6368563 MISS:    4028179
cpu0_L1D TRANSLATION  ACCESS:     188123 HIT:      45327 MISS:     142796
cpu0_L1D PREFETCH REQUESTED:          0 ISSUED:          0 USEFUL:          0 USELESS:          0
cpu0_L1D AVERAGE MISS LATENCY: 124.4 cycles
cpu0_L1I TOTAL        ACCESS:      12595 HIT:       6583 MISS:       6012
cpu0_L1I LOAD         ACCESS:      12595 HIT:       6583 MISS:       6012
cpu0_L1I RFO          ACCESS:          0 HIT:          0 MISS:          0
cpu0_L1I PREFETCH     ACCESS:          0 HIT:          0 MISS:          0
cpu0_L1I WRITE        ACCESS:          0 HIT:          0 MISS:          0
cpu0_L1I TRANSLATION  ACCESS:          0 HIT:          0 MISS:          0
cpu0_L1I PREFETCH REQUESTED:          0 ISSUED:          0 USEFUL:          0 USELESS:          0
cpu0_L1I AVERAGE MISS LATENCY: 197.3 cycles
cpu0_L2C TOTAL        ACCESS:   10193103 HIT:    5182498 MISS:    5010605
cpu0_L2C LOAD         ACCESS:    5374619 HIT:    1509841 MISS:    3864778
cpu0_L2C RFO          ACCESS:    1392992 HIT:     319392 MISS:    1073600
cpu0_L2C PREFETCH     ACCESS:          0 HIT:          0 MISS:          0
cpu0_L2C WRITE        ACCESS:    3283624 HIT:    3283523 MISS:        101
cpu0_L2C TRANSLATION  ACCESS:     141868 HIT:      69742 MISS:      72126
cpu0_L2C PREFETCH REQUESTED:          0 ISSUED:          0 USEFUL:          0 USELESS:          0
cpu0_L2C AVERAGE MISS LATENCY: 372.8 cycles
cpu0_STLB TOTAL        ACCESS:    1500280 HIT:    1312656 MISS:     187624
cpu0_STLB LOAD         ACCESS:    1500280 HIT:    1312656 MISS:     187624
cpu0_STLB RFO          ACCESS:          0 HIT:          0 MISS:          0
cpu0_STLB PREFETCH     ACCESS:          0 HIT:          0 MISS:          0
cpu0_STLB WRITE        ACCESS:          0 HIT:          0 MISS:          0
cpu0_STLB TRANSLATION  ACCESS:          0 HIT:          0 MISS:          0
cpu0_STLB PREFETCH REQUESTED:          0 ISSUED:          0 USEFUL:          0 USELESS:          0
cpu0_STLB AVERAGE MISS LATENCY: 135.2 cycles

DRAM Statistics

Channel 0 RQ ROW_BUFFER_HIT:     920889
  ROW_BUFFER_MISS:    2562446
 AVG DBUS CONGESTED CYCLE: 3.975
WQ ROW_BUFFER_HIT: Channel 0 
  ROW_BUFFER_MISS:      82030
  FULL:    1252120
