WARNING: physical memory size is smaller than virtual memory size.

*** ChampSim Multicore Out-of-Order Simulator ***
Warmup Instructions: 25000000
Simulation Instructions: 100000000
Number of CPUs: 1
Page size: 4096

Off-chip DRAM Size: 4 GiB Channels: 1 Width: 64-bit Data Race: 3200 MT/s
Heartbeat CPU 0 instructions: 10000002 cycles: 2505849 heartbeat IPC: 3.991 cumulative IPC: 3.991 (Simulation time: 00 hr 00 min 18 sec)
Heartbeat CPU 0 instructions: 20000001 cycles: 5055734 heartbeat IPC: 3.922 cumulative IPC: 3.956 (Simulation time: 00 hr 00 min 37 sec)
Warmup finished CPU 0 instructions: 25000002 cycles: 6336026 cumulative IPC: 3.946 (Simulation time: 00 hr 00 min 46 sec)
Warmup complete CPU 0 instructions: 25000002 cycles: 6336026 cumulative IPC: 3.946 (Simulation time: 00 hr 00 min 46 sec)
Heartbeat CPU 0 instructions: 30000000 cycles: 8393189 heartbeat IPC: 2.996 cumulative IPC: 2.431 (Simulation time: 00 hr 00 min 59 sec)
*** Reached end of trace: (0, "../traces/public_traces/compute_int/compute_int_10.champsimtrace.xz")
Heartbeat CPU 0 instructions: 40000002 cycles: 11405604 heartbeat IPC: 3.32 cumulative IPC: 2.959 (Simulation time: 00 hr 01 min 22 sec)
Heartbeat CPU 0 instructions: 50000002 cycles: 16154941 heartbeat IPC: 2.106 cumulative IPC: 2.546 (Simulation time: 00 hr 01 min 49 sec)
Heartbeat CPU 0 instructions: 60000002 cycles: 20987722 heartbeat IPC: 2.069 cumulative IPC: 2.389 (Simulation time: 00 hr 02 min 17 sec)
*** Reached end of trace: (0, "../traces/public_traces/compute_int/compute_int_10.champsimtrace.xz")
Heartbeat CPU 0 instructions: 70000003 cycles: 24005746 heartbeat IPC: 3.313 cumulative IPC: 2.547 (Simulation time: 00 hr 02 min 40 sec)
Heartbeat CPU 0 instructions: 80000001 cycles: 28744751 heartbeat IPC: 2.11 cumulative IPC: 2.454 (Simulation time: 00 hr 03 min 07 sec)
Heartbeat CPU 0 instructions: 90000002 cycles: 33575344 heartbeat IPC: 2.07 cumulative IPC: 2.386 (Simulation time: 00 hr 03 min 35 sec)
*** Reached end of trace: (0, "../traces/public_traces/compute_int/compute_int_10.champsimtrace.xz")
Heartbeat CPU 0 instructions: 100000000 cycles: 36565024 heartbeat IPC: 3.345 cumulative IPC: 2.481 (Simulation time: 00 hr 03 min 57 sec)
Heartbeat CPU 0 instructions: 110000002 cycles: 41318962 heartbeat IPC: 2.104 cumulative IPC: 2.43 (Simulation time: 00 hr 04 min 25 sec)
Heartbeat CPU 0 instructions: 120000000 cycles: 46161796 heartbeat IPC: 2.065 cumulative IPC: 2.385 (Simulation time: 00 hr 04 min 52 sec)
*** Reached end of trace: (0, "../traces/public_traces/compute_int/compute_int_10.champsimtrace.xz")
Simulation finished CPU 0 instructions: 100000000 cycles: 41346118 cumulative IPC: 2.419 (Simulation time: 00 hr 05 min 04 sec)
Simulation complete CPU 0 instructions: 100000000 cycles: 41346118 cumulative IPC: 2.419 (Simulation time: 00 hr 05 min 04 sec)

ChampSim completed all CPUs

=== Simulation ===
CPU 0 runs ../traces/public_traces/compute_int/compute_int_10.champsimtrace.xz
Region of Interest Statistics

CPU 0 cumulative IPC: 2.419 instructions: 100000000 cycles: 41346118
CPU 0 Branch Prediction Accuracy: 91.56% MPKI: 8.011 Average ROB Occupancy at Mispredict: 49.32
Branch type MPKI
BRANCH_DIRECT_JUMP: 0.00026
BRANCH_INDIRECT: 2.12
BRANCH_CONDITIONAL: 5.68
BRANCH_DIRECT_CALL: 0.00011
BRANCH_INDIRECT_CALL: 0.21
BRANCH_RETURN: 0.00011

LLC TOTAL        ACCESS:     304735 HIT:     241658 MISS:      63077
LLC LOAD         ACCESS:     122943 HIT:      87432 MISS:      35511
LLC RFO          ACCESS:      92483 HIT:      65417 MISS:      27066
LLC PREFETCH     ACCESS:          0 HIT:          0 MISS:          0
LLC WRITE        ACCESS:      88963 HIT:      88738 MISS:        225
LLC TRANSLATION  ACCESS:        346 HIT:         71 MISS:        275
LLC PREFETCH REQUESTED:          0 ISSUED:          0 USEFUL:          0 USELESS:          0
LLC AVERAGE MISS LATENCY: 330.2 cycles
cpu0_DTLB TOTAL        ACCESS:   18966452 HIT:   18869261 MISS:      97191
cpu0_DTLB LOAD         ACCESS:   18966452 HIT:   18869261 MISS:      97191
cpu0_DTLB RFO          ACCESS:          0 HIT:          0 MISS:          0
cpu0_DTLB PREFETCH     ACCESS:          0 HIT:          0 MISS:          0
cpu0_DTLB WRITE        ACCESS:          0 HIT:          0 MISS:          0
cpu0_DTLB TRANSLATION  ACCESS:          0 HIT:          0 MISS:          0
cpu0_DTLB PREFETCH REQUESTED:          0 ISSUED:          0 USEFUL:          0 USELESS:          0
cpu0_DTLB AVERAGE MISS LATENCY: 4.544 cycles
cpu0_ITLB TOTAL        ACCESS:     737407 HIT:     736138 MISS:       1269
cpu0_ITLB LOAD         ACCESS:     737407 HIT:     736138 MISS:       1269
cpu0_ITLB RFO          ACCESS:          0 HIT:          0 MISS:          0
cpu0_ITLB PREFETCH     ACCESS:          0 HIT:          0 MISS:          0
cpu0_ITLB WRITE        ACCESS:          0 HIT:          0 MISS:          0
cpu0_ITLB TRANSLATION  ACCESS:          0 HIT:          0 MISS:          0
cpu0_ITLB PREFETCH REQUESTED:          0 ISSUED:          0 USEFUL:          0 USELESS:          0
cpu0_ITLB AVERAGE MISS LATENCY: 16.53 cycles
cpu0_L1D TOTAL        ACCESS:   24702299 HIT:   23451499 MISS:    1250800
cpu0_L1D LOAD         ACCESS:   19619966 HIT:   18549223 MISS:    1070743
cpu0_L1D RFO          ACCESS:          0 HIT:          0 MISS:          0
cpu0_L1D PREFETCH     ACCESS:          0 HIT:          0 MISS:          0
cpu0_L1D WRITE        ACCESS:    5081816 HIT:    4902221 MISS:     179595
cpu0_L1D TRANSLATION  ACCESS:        517 HIT:         55 MISS:        462
cpu0_L1D PREFETCH REQUESTED:          0 ISSUED:          0 USEFUL:          0 USELESS:          0
cpu0_L1D AVERAGE MISS LATENCY: 20.54 cycles
cpu0_L1I TOTAL        ACCESS:     867914 HIT:     838563 MISS:      29351
cpu0_L1I LOAD         ACCESS:     867914 HIT:     838563 MISS:      29351
cpu0_L1I RFO          ACCESS:          0 HIT:          0 MISS:          0
cpu0_L1I PREFETCH     ACCESS:          0 HIT:          0 MISS:          0
cpu0_L1I WRITE        ACCESS:          0 HIT:          0 MISS:          0
cpu0_L1I TRANSLATION  ACCESS:          0 HIT:          0 MISS:          0
cpu0_L1I PREFETCH REQUESTED:          0 ISSUED:          0 USEFUL:          0 USELESS:          0
cpu0_L1I AVERAGE MISS LATENCY: 38.94 cycles
cpu0_L2C TOTAL        ACCESS:     480185 HIT:     264264 MISS:     215921
cpu0_L2C LOAD         ACCESS:     275466 HIT:     152523 MISS:     122943
cpu0_L2C RFO          ACCESS:     101191 HIT:       8708 MISS:      92483
cpu0_L2C PREFETCH     ACCESS:          0 HIT:          0 MISS:          0
cpu0_L2C WRITE        ACCESS:     103066 HIT:     102917 MISS:        149
cpu0_L2C TRANSLATION  ACCESS:        462 HIT:        116 MISS:        346
cpu0_L2C PREFETCH REQUESTED:          0 ISSUED:          0 USEFUL:          0 USELESS:          0
cpu0_L2C AVERAGE MISS LATENCY: 116.8 cycles
cpu0_STLB TOTAL        ACCESS:      62908 HIT:      62391 MISS:        517
cpu0_STLB LOAD         ACCESS:      62908 HIT:      62391 MISS:        517
cpu0_STLB RFO          ACCESS:          0 HIT:          0 MISS:          0
cpu0_STLB PREFETCH     ACCESS:          0 HIT:          0 MISS:          0
cpu0_STLB WRITE        ACCESS:          0 HIT:          0 MISS:          0
cpu0_STLB TRANSLATION  ACCESS:          0 HIT:          0 MISS:          0
cpu0_STLB PREFETCH REQUESTED:          0 ISSUED:          0 USEFUL:          0 USELESS:          0
cpu0_STLB AVERAGE MISS LATENCY: 180.8 cycles

DRAM Statistics

Channel 0 RQ ROW_BUFFER_HIT:      21773
  ROW_BUFFER_MISS:      41063
 AVG DBUS CONGESTED CYCLE: 3.96
WQ ROW_BUFFER_HIT: Channel 0 
  ROW_BUFFER_MISS:       6610
  FULL:      33742
