WARNING: physical memory size is smaller than virtual memory size.

*** ChampSim Multicore Out-of-Order Simulator ***
Warmup Instructions: 25000000
Simulation Instructions: 100000000
Number of CPUs: 1
Page size: 4096

Off-chip DRAM Size: 4 GiB Channels: 1 Width: 64-bit Data Race: 3200 MT/s
Heartbeat CPU 0 instructions: 10000001 cycles: 2507211 heartbeat IPC: 3.988 cumulative IPC: 3.988 (Simulation time: 00 hr 00 min 18 sec)
Heartbeat CPU 0 instructions: 20000000 cycles: 5014545 heartbeat IPC: 3.988 cumulative IPC: 3.988 (Simulation time: 00 hr 00 min 37 sec)
Warmup finished CPU 0 instructions: 25000000 cycles: 6264546 cumulative IPC: 3.991 (Simulation time: 00 hr 00 min 46 sec)
Warmup complete CPU 0 instructions: 25000000 cycles: 6264546 cumulative IPC: 3.991 (Simulation time: 00 hr 00 min 46 sec)
Heartbeat CPU 0 instructions: 30000001 cycles: 20471143 heartbeat IPC: 0.647 cumulative IPC: 0.3519 (Simulation time: 00 hr 01 min 50 sec)
*** Reached end of trace: (0, "../traces/public_traces/compute_fp/compute_fp_10.champsimtrace.xz")
Heartbeat CPU 0 instructions: 40000000 cycles: 46223064 heartbeat IPC: 0.3883 cumulative IPC: 0.3754 (Simulation time: 00 hr 03 min 47 sec)
Heartbeat CPU 0 instructions: 50000003 cycles: 74047809 heartbeat IPC: 0.3594 cumulative IPC: 0.3688 (Simulation time: 00 hr 05 min 52 sec)
Heartbeat CPU 0 instructions: 60000000 cycles: 102434987 heartbeat IPC: 0.3523 cumulative IPC: 0.3639 (Simulation time: 00 hr 08 min 00 sec)
*** Reached end of trace: (0, "../traces/public_traces/compute_fp/compute_fp_10.champsimtrace.xz")
Heartbeat CPU 0 instructions: 70000003 cycles: 128174816 heartbeat IPC: 0.3885 cumulative IPC: 0.3691 (Simulation time: 00 hr 09 min 57 sec)
Heartbeat CPU 0 instructions: 80000002 cycles: 155905190 heartbeat IPC: 0.3606 cumulative IPC: 0.3675 (Simulation time: 00 hr 12 min 01 sec)
Heartbeat CPU 0 instructions: 90000000 cycles: 184343866 heartbeat IPC: 0.3516 cumulative IPC: 0.365 (Simulation time: 00 hr 14 min 09 sec)
*** Reached end of trace: (0, "../traces/public_traces/compute_fp/compute_fp_10.champsimtrace.xz")
Heartbeat CPU 0 instructions: 100000001 cycles: 210063346 heartbeat IPC: 0.3888 cumulative IPC: 0.368 (Simulation time: 00 hr 16 min 06 sec)
Heartbeat CPU 0 instructions: 110000001 cycles: 237880011 heartbeat IPC: 0.3595 cumulative IPC: 0.367 (Simulation time: 00 hr 18 min 11 sec)
Heartbeat CPU 0 instructions: 120000002 cycles: 266269777 heartbeat IPC: 0.3522 cumulative IPC: 0.3654 (Simulation time: 00 hr 20 min 19 sec)
*** Reached end of trace: (0, "../traces/public_traces/compute_fp/compute_fp_10.champsimtrace.xz")
Simulation finished CPU 0 instructions: 100000003 cycles: 272959511 cumulative IPC: 0.3664 (Simulation time: 00 hr 21 min 18 sec)
Simulation complete CPU 0 instructions: 100000003 cycles: 272959511 cumulative IPC: 0.3664 (Simulation time: 00 hr 21 min 18 sec)

ChampSim completed all CPUs

=== Simulation ===
CPU 0 runs ../traces/public_traces/compute_fp/compute_fp_10.champsimtrace.xz
Region of Interest Statistics

CPU 0 cumulative IPC: 0.3664 instructions: 100000003 cycles: 272959511
CPU 0 Branch Prediction Accuracy: 99.65% MPKI: 0.02849 Average ROB Occupancy at Mispredict: 205.2
Branch type MPKI
BRANCH_DIRECT_JUMP: 0
BRANCH_INDIRECT: 0.0278
BRANCH_CONDITIONAL: 0.00066
BRANCH_DIRECT_CALL: 0
BRANCH_INDIRECT_CALL: 3e-05
BRANCH_RETURN: 0

LLC TOTAL        ACCESS:    4854049 HIT:    2107501 MISS:    2746548
LLC LOAD         ACCESS:     689838 HIT:          3 MISS:     689835
LLC RFO          ACCESS:    2081799 HIT:      25711 MISS:    2056088
LLC PREFETCH     ACCESS:          0 HIT:          0 MISS:          0
LLC WRITE        ACCESS:    2081803 HIT:    2081787 MISS:         16
LLC TRANSLATION  ACCESS:        609 HIT:          0 MISS:        609
LLC PREFETCH REQUESTED:          0 ISSUED:          0 USEFUL:          0 USELESS:          0
LLC AVERAGE MISS LATENCY: 1086 cycles
cpu0_DTLB TOTAL        ACCESS:   16249119 HIT:   16136090 MISS:     113029
cpu0_DTLB LOAD         ACCESS:   16249119 HIT:   16136090 MISS:     113029
cpu0_DTLB RFO          ACCESS:          0 HIT:          0 MISS:          0
cpu0_DTLB PREFETCH     ACCESS:          0 HIT:          0 MISS:          0
cpu0_DTLB WRITE        ACCESS:          0 HIT:          0 MISS:          0
cpu0_DTLB TRANSLATION  ACCESS:          0 HIT:          0 MISS:          0
cpu0_DTLB PREFETCH REQUESTED:          0 ISSUED:          0 USEFUL:          0 USELESS:          0
cpu0_DTLB AVERAGE MISS LATENCY: 22.97 cycles
cpu0_ITLB TOTAL        ACCESS:       1847 HIT:       1678 MISS:        169
cpu0_ITLB LOAD         ACCESS:       1847 HIT:       1678 MISS:        169
cpu0_ITLB RFO          ACCESS:          0 HIT:          0 MISS:          0
cpu0_ITLB PREFETCH     ACCESS:          0 HIT:          0 MISS:          0
cpu0_ITLB WRITE        ACCESS:          0 HIT:          0 MISS:          0
cpu0_ITLB TRANSLATION  ACCESS:          0 HIT:          0 MISS:          0
cpu0_ITLB PREFETCH REQUESTED:          0 ISSUED:          0 USEFUL:          0 USELESS:          0
cpu0_ITLB AVERAGE MISS LATENCY: 137.6 cycles
cpu0_L1D TOTAL        ACCESS:   19217096 HIT:    9741174 MISS:    9475922
cpu0_L1D LOAD         ACCESS:    8529014 HIT:    3017305 MISS:    5511709
cpu0_L1D RFO          ACCESS:          0 HIT:          0 MISS:          0
cpu0_L1D PREFETCH     ACCESS:          0 HIT:          0 MISS:          0
cpu0_L1D WRITE        ACCESS:   10645002 HIT:    6723739 MISS:    3921263
cpu0_L1D TRANSLATION  ACCESS:      43080 HIT:        130 MISS:      42950
cpu0_L1D PREFETCH REQUESTED:          0 ISSUED:          0 USEFUL:          0 USELESS:          0
cpu0_L1D AVERAGE MISS LATENCY: 313.5 cycles
cpu0_L1I TOTAL        ACCESS:       2129 HIT:       2025 MISS:        104
cpu0_L1I LOAD         ACCESS:       2129 HIT:       2025 MISS:        104
cpu0_L1I RFO          ACCESS:          0 HIT:          0 MISS:          0
cpu0_L1I PREFETCH     ACCESS:          0 HIT:          0 MISS:          0
cpu0_L1I WRITE        ACCESS:          0 HIT:          0 MISS:          0
cpu0_L1I TRANSLATION  ACCESS:          0 HIT:          0 MISS:          0
cpu0_L1I PREFETCH REQUESTED:          0 ISSUED:          0 USEFUL:          0 USELESS:          0
cpu0_L1I AVERAGE MISS LATENCY: 316.3 cycles
cpu0_L2C TOTAL        ACCESS:    8488162 HIT:    5715906 MISS:    2772256
cpu0_L2C LOAD         ACCESS:     689842 HIT:          4 MISS:     689838
cpu0_L2C RFO          ACCESS:    3877588 HIT:    1795786 MISS:    2081802
cpu0_L2C PREFETCH     ACCESS:          0 HIT:          0 MISS:          0
cpu0_L2C WRITE        ACCESS:    3877782 HIT:    3877775 MISS:          7
cpu0_L2C TRANSLATION  ACCESS:      42950 HIT:      42341 MISS:        609
cpu0_L2C PREFETCH REQUESTED:          0 ISSUED:          0 USEFUL:          0 USELESS:          0
cpu0_L2C AVERAGE MISS LATENCY: 1097 cycles
cpu0_STLB TOTAL        ACCESS:      77677 HIT:      34672 MISS:      43005
cpu0_STLB LOAD         ACCESS:      77677 HIT:      34672 MISS:      43005
cpu0_STLB RFO          ACCESS:          0 HIT:          0 MISS:          0
cpu0_STLB PREFETCH     ACCESS:          0 HIT:          0 MISS:          0
cpu0_STLB WRITE        ACCESS:          0 HIT:          0 MISS:          0
cpu0_STLB TRANSLATION  ACCESS:          0 HIT:          0 MISS:          0
cpu0_STLB PREFETCH REQUESTED:          0 ISSUED:          0 USEFUL:          0 USELESS:          0
cpu0_STLB AVERAGE MISS LATENCY: 54.01 cycles

DRAM Statistics

Channel 0 RQ ROW_BUFFER_HIT:     595982
  ROW_BUFFER_MISS:    2149719
 AVG DBUS CONGESTED CYCLE: 3.971
WQ ROW_BUFFER_HIT: Channel 0 
  ROW_BUFFER_MISS:     263865
  FULL:    1789646
