WARNING: physical memory size is smaller than virtual memory size.

*** ChampSim Multicore Out-of-Order Simulator ***
Warmup Instructions: 25000000
Simulation Instructions: 100000000
Number of CPUs: 1
Page size: 4096

Off-chip DRAM Size: 4 GiB Channels: 1 Width: 64-bit Data Race: 3200 MT/s
Heartbeat CPU 0 instructions: 10000002 cycles: 2504941 heartbeat IPC: 3.992 cumulative IPC: 3.992 (Simulation time: 00 hr 00 min 20 sec)
Heartbeat CPU 0 instructions: 20000000 cycles: 5009097 heartbeat IPC: 3.993 cumulative IPC: 3.993 (Simulation time: 00 hr 00 min 41 sec)
Warmup finished CPU 0 instructions: 25000001 cycles: 6261378 cumulative IPC: 3.993 (Simulation time: 00 hr 00 min 52 sec)
Warmup complete CPU 0 instructions: 25000001 cycles: 6261378 cumulative IPC: 3.993 (Simulation time: 00 hr 00 min 52 sec)
Heartbeat CPU 0 instructions: 30000003 cycles: 9428782 heartbeat IPC: 2.263 cumulative IPC: 1.579 (Simulation time: 00 hr 01 min 09 sec)
*** Reached end of trace: (0, "../traces/public_traces/srv/srv_29.champsimtrace.xz")
Heartbeat CPU 0 instructions: 40000003 cycles: 16031262 heartbeat IPC: 1.515 cumulative IPC: 1.535 (Simulation time: 00 hr 01 min 46 sec)
Heartbeat CPU 0 instructions: 50000001 cycles: 22435571 heartbeat IPC: 1.561 cumulative IPC: 1.546 (Simulation time: 00 hr 02 min 22 sec)
Heartbeat CPU 0 instructions: 60000000 cycles: 28780192 heartbeat IPC: 1.576 cumulative IPC: 1.554 (Simulation time: 00 hr 02 min 57 sec)
*** Reached end of trace: (0, "../traces/public_traces/srv/srv_29.champsimtrace.xz")
Heartbeat CPU 0 instructions: 70000002 cycles: 35336406 heartbeat IPC: 1.525 cumulative IPC: 1.548 (Simulation time: 00 hr 03 min 33 sec)
Heartbeat CPU 0 instructions: 80000002 cycles: 41734060 heartbeat IPC: 1.563 cumulative IPC: 1.55 (Simulation time: 00 hr 04 min 09 sec)
Heartbeat CPU 0 instructions: 90000001 cycles: 48083109 heartbeat IPC: 1.575 cumulative IPC: 1.554 (Simulation time: 00 hr 04 min 44 sec)
*** Reached end of trace: (0, "../traces/public_traces/srv/srv_29.champsimtrace.xz")
Heartbeat CPU 0 instructions: 100000001 cycles: 54575564 heartbeat IPC: 1.54 cumulative IPC: 1.552 (Simulation time: 00 hr 05 min 20 sec)
Heartbeat CPU 0 instructions: 110000001 cycles: 60694565 heartbeat IPC: 1.634 cumulative IPC: 1.562 (Simulation time: 00 hr 05 min 54 sec)
Heartbeat CPU 0 instructions: 120000001 cycles: 67399193 heartbeat IPC: 1.492 cumulative IPC: 1.554 (Simulation time: 00 hr 06 min 30 sec)
Simulation finished CPU 0 instructions: 100000002 cycles: 64172442 cumulative IPC: 1.558 (Simulation time: 00 hr 06 min 47 sec)
Simulation complete CPU 0 instructions: 100000002 cycles: 64172442 cumulative IPC: 1.558 (Simulation time: 00 hr 06 min 47 sec)

ChampSim completed all CPUs

=== Simulation ===
CPU 0 runs ../traces/public_traces/srv/srv_29.champsimtrace.xz
Region of Interest Statistics

CPU 0 cumulative IPC: 1.558 instructions: 100000002 cycles: 64172442
CPU 0 Branch Prediction Accuracy: 95% MPKI: 9.129 Average ROB Occupancy at Mispredict: 45.83
Branch type MPKI
BRANCH_DIRECT_JUMP: 8e-05
BRANCH_INDIRECT: 4.94
BRANCH_CONDITIONAL: 3.84
BRANCH_DIRECT_CALL: 0.00013
BRANCH_INDIRECT_CALL: 0.353
BRANCH_RETURN: 0.00033

LLC TOTAL        ACCESS:     377809 HIT:     173154 MISS:     204655
LLC LOAD         ACCESS:     190943 HIT:      57921 MISS:     133022
LLC RFO          ACCESS:      66136 HIT:      20302 MISS:      45834
LLC PREFETCH     ACCESS:          0 HIT:          0 MISS:          0
LLC WRITE        ACCESS:      86805 HIT:      86621 MISS:        184
LLC TRANSLATION  ACCESS:      33925 HIT:       8310 MISS:      25615
LLC PREFETCH REQUESTED:          0 ISSUED:          0 USEFUL:          0 USELESS:          0
LLC AVERAGE MISS LATENCY: 218.7 cycles
cpu0_DTLB TOTAL        ACCESS:   23632400 HIT:   22173520 MISS:    1458880
cpu0_DTLB LOAD         ACCESS:   23632400 HIT:   22173520 MISS:    1458880
cpu0_DTLB RFO          ACCESS:          0 HIT:          0 MISS:          0
cpu0_DTLB PREFETCH     ACCESS:          0 HIT:          0 MISS:          0
cpu0_DTLB WRITE        ACCESS:          0 HIT:          0 MISS:          0
cpu0_DTLB TRANSLATION  ACCESS:          0 HIT:          0 MISS:          0
cpu0_DTLB PREFETCH REQUESTED:          0 ISSUED:          0 USEFUL:          0 USELESS:          0
cpu0_DTLB AVERAGE MISS LATENCY: 7.927 cycles
cpu0_ITLB TOTAL        ACCESS:    8631276 HIT:    8493046 MISS:     138230
cpu0_ITLB LOAD         ACCESS:    8631276 HIT:    8493046 MISS:     138230
cpu0_ITLB RFO          ACCESS:          0 HIT:          0 MISS:          0
cpu0_ITLB PREFETCH     ACCESS:          0 HIT:          0 MISS:          0
cpu0_ITLB WRITE        ACCESS:          0 HIT:          0 MISS:          0
cpu0_ITLB TRANSLATION  ACCESS:          0 HIT:          0 MISS:          0
cpu0_ITLB PREFETCH REQUESTED:          0 ISSUED:          0 USEFUL:          0 USELESS:          0
cpu0_ITLB AVERAGE MISS LATENCY: 3.222 cycles
cpu0_L1D TOTAL        ACCESS:   31037213 HIT:   30164066 MISS:     873147
cpu0_L1D LOAD         ACCESS:   18889700 HIT:   18432785 MISS:     456915
cpu0_L1D RFO          ACCESS:          0 HIT:          0 MISS:          0
cpu0_L1D PREFETCH     ACCESS:          0 HIT:          0 MISS:          0
cpu0_L1D WRITE        ACCESS:   12086288 HIT:   11723076 MISS:     363212
cpu0_L1D TRANSLATION  ACCESS:      61225 HIT:       8205 MISS:      53020
cpu0_L1D PREFETCH REQUESTED:          0 ISSUED:          0 USEFUL:          0 USELESS:          0
cpu0_L1D AVERAGE MISS LATENCY: 58.4 cycles
cpu0_L1I TOTAL        ACCESS:    9561655 HIT:    9088891 MISS:     472764
cpu0_L1I LOAD         ACCESS:    9561655 HIT:    9088891 MISS:     472764
cpu0_L1I RFO          ACCESS:          0 HIT:          0 MISS:          0
cpu0_L1I PREFETCH     ACCESS:          0 HIT:          0 MISS:          0
cpu0_L1I WRITE        ACCESS:          0 HIT:          0 MISS:          0
cpu0_L1I TRANSLATION  ACCESS:          0 HIT:          0 MISS:          0
cpu0_L1I PREFETCH REQUESTED:          0 ISSUED:          0 USEFUL:          0 USELESS:          0
cpu0_L1I AVERAGE MISS LATENCY: 8.608 cycles
cpu0_L2C TOTAL        ACCESS:     741896 HIT:     450409 MISS:     291487
cpu0_L2C LOAD         ACCESS:     519536 HIT:     328593 MISS:     190943
cpu0_L2C RFO          ACCESS:      72038 HIT:       5902 MISS:      66136
cpu0_L2C PREFETCH     ACCESS:          0 HIT:          0 MISS:          0
cpu0_L2C WRITE        ACCESS:      97477 HIT:      96994 MISS:        483
cpu0_L2C TRANSLATION  ACCESS:      52845 HIT:      18920 MISS:      33925
cpu0_L2C PREFETCH REQUESTED:          0 ISSUED:          0 USEFUL:          0 USELESS:          0
cpu0_L2C AVERAGE MISS LATENCY: 174.2 cycles
cpu0_STLB TOTAL        ACCESS:     949558 HIT:     906246 MISS:      43312
cpu0_STLB LOAD         ACCESS:     949558 HIT:     906246 MISS:      43312
cpu0_STLB RFO          ACCESS:          0 HIT:          0 MISS:          0
cpu0_STLB PREFETCH     ACCESS:          0 HIT:          0 MISS:          0
cpu0_STLB WRITE        ACCESS:          0 HIT:          0 MISS:          0
cpu0_STLB TRANSLATION  ACCESS:          0 HIT:          0 MISS:          0
cpu0_STLB PREFETCH REQUESTED:          0 ISSUED:          0 USEFUL:          0 USELESS:          0
cpu0_STLB AVERAGE MISS LATENCY: 142.7 cycles

DRAM Statistics

Channel 0 RQ ROW_BUFFER_HIT:      54671
  ROW_BUFFER_MISS:     149760
 AVG DBUS CONGESTED CYCLE: 3.942
WQ ROW_BUFFER_HIT: Channel 0 
  ROW_BUFFER_MISS:      16627
  FULL:      42575
