WARNING: physical memory size is smaller than virtual memory size.

*** ChampSim Multicore Out-of-Order Simulator ***
Warmup Instructions: 25000000
Simulation Instructions: 100000000
Number of CPUs: 1
Page size: 4096

Off-chip DRAM Size: 4 GiB Channels: 1 Width: 64-bit Data Race: 3200 MT/s
Heartbeat CPU 0 instructions: 10000000 cycles: 2500122 heartbeat IPC: 4 cumulative IPC: 4 (Simulation time: 00 hr 00 min 22 sec)
Heartbeat CPU 0 instructions: 20000000 cycles: 5000122 heartbeat IPC: 4 cumulative IPC: 4 (Simulation time: 00 hr 00 min 45 sec)
Warmup finished CPU 0 instructions: 25000000 cycles: 6250123 cumulative IPC: 4 (Simulation time: 00 hr 00 min 56 sec)
Warmup complete CPU 0 instructions: 25000000 cycles: 6250123 cumulative IPC: 4 (Simulation time: 00 hr 00 min 56 sec)
Heartbeat CPU 0 instructions: 30000000 cycles: 14313570 heartbeat IPC: 1.074 cumulative IPC: 0.6201 (Simulation time: 00 hr 01 min 27 sec)
*** Reached end of trace: (0, "../traces/public_traces/srv/srv_71.champsimtrace.xz")
Heartbeat CPU 0 instructions: 40000000 cycles: 30279712 heartbeat IPC: 0.6263 cumulative IPC: 0.6242 (Simulation time: 00 hr 02 min 30 sec)
Heartbeat CPU 0 instructions: 50000000 cycles: 46195163 heartbeat IPC: 0.6283 cumulative IPC: 0.6259 (Simulation time: 00 hr 03 min 33 sec)
Heartbeat CPU 0 instructions: 60000000 cycles: 62174504 heartbeat IPC: 0.6258 cumulative IPC: 0.6258 (Simulation time: 00 hr 04 min 36 sec)
*** Reached end of trace: (0, "../traces/public_traces/srv/srv_71.champsimtrace.xz")
Heartbeat CPU 0 instructions: 70000001 cycles: 78071474 heartbeat IPC: 0.6291 cumulative IPC: 0.6266 (Simulation time: 00 hr 05 min 38 sec)
Heartbeat CPU 0 instructions: 80000002 cycles: 94050573 heartbeat IPC: 0.6258 cumulative IPC: 0.6264 (Simulation time: 00 hr 06 min 41 sec)
Heartbeat CPU 0 instructions: 90000002 cycles: 109993298 heartbeat IPC: 0.6272 cumulative IPC: 0.6265 (Simulation time: 00 hr 07 min 43 sec)
*** Reached end of trace: (0, "../traces/public_traces/srv/srv_71.champsimtrace.xz")
Heartbeat CPU 0 instructions: 100000000 cycles: 125891803 heartbeat IPC: 0.629 cumulative IPC: 0.6269 (Simulation time: 00 hr 08 min 46 sec)
Heartbeat CPU 0 instructions: 110000000 cycles: 141787630 heartbeat IPC: 0.6291 cumulative IPC: 0.6271 (Simulation time: 00 hr 09 min 49 sec)
Heartbeat CPU 0 instructions: 120000003 cycles: 157803091 heartbeat IPC: 0.6244 cumulative IPC: 0.6268 (Simulation time: 00 hr 10 min 51 sec)
Simulation finished CPU 0 instructions: 100000003 cycles: 159584024 cumulative IPC: 0.6266 (Simulation time: 00 hr 11 min 23 sec)
Simulation complete CPU 0 instructions: 100000003 cycles: 159584024 cumulative IPC: 0.6266 (Simulation time: 00 hr 11 min 23 sec)

ChampSim completed all CPUs

=== Simulation ===
CPU 0 runs ../traces/public_traces/srv/srv_71.champsimtrace.xz
Region of Interest Statistics

CPU 0 cumulative IPC: 0.6266 instructions: 100000003 cycles: 159584024
CPU 0 Branch Prediction Accuracy: 72.1% MPKI: 50.13 Average ROB Occupancy at Mispredict: 3.942
Branch type MPKI
BRANCH_DIRECT_JUMP: 0.556
BRANCH_INDIRECT: 34.8
BRANCH_CONDITIONAL: 9.6
BRANCH_DIRECT_CALL: 1.71
BRANCH_INDIRECT_CALL: 2.19
BRANCH_RETURN: 1.32

LLC TOTAL        ACCESS:     951334 HIT:     946663 MISS:       4671
LLC LOAD         ACCESS:     703554 HIT:     699729 MISS:       3825
LLC RFO          ACCESS:      92394 HIT:      91853 MISS:        541
LLC PREFETCH     ACCESS:          0 HIT:          0 MISS:          0
LLC WRITE        ACCESS:     149494 HIT:     149491 MISS:          3
LLC TRANSLATION  ACCESS:       5892 HIT:       5590 MISS:        302
LLC PREFETCH REQUESTED:          0 ISSUED:          0 USEFUL:          0 USELESS:          0
LLC AVERAGE MISS LATENCY: 161.4 cycles
cpu0_DTLB TOTAL        ACCESS:   26901616 HIT:   25693746 MISS:    1207870
cpu0_DTLB LOAD         ACCESS:   26901616 HIT:   25693746 MISS:    1207870
cpu0_DTLB RFO          ACCESS:          0 HIT:          0 MISS:          0
cpu0_DTLB PREFETCH     ACCESS:          0 HIT:          0 MISS:          0
cpu0_DTLB WRITE        ACCESS:          0 HIT:          0 MISS:          0
cpu0_DTLB TRANSLATION  ACCESS:          0 HIT:          0 MISS:          0
cpu0_DTLB PREFETCH REQUESTED:          0 ISSUED:          0 USEFUL:          0 USELESS:          0
cpu0_DTLB AVERAGE MISS LATENCY: 6.552 cycles
cpu0_ITLB TOTAL        ACCESS:   11370024 HIT:    9131059 MISS:    2238965
cpu0_ITLB LOAD         ACCESS:   11370024 HIT:    9131059 MISS:    2238965
cpu0_ITLB RFO          ACCESS:          0 HIT:          0 MISS:          0
cpu0_ITLB PREFETCH     ACCESS:          0 HIT:          0 MISS:          0
cpu0_ITLB WRITE        ACCESS:          0 HIT:          0 MISS:          0
cpu0_ITLB TRANSLATION  ACCESS:          0 HIT:          0 MISS:          0
cpu0_ITLB PREFETCH REQUESTED:          0 ISSUED:          0 USEFUL:          0 USELESS:          0
cpu0_ITLB AVERAGE MISS LATENCY: 2.987 cycles
cpu0_L1D TOTAL        ACCESS:   33793769 HIT:   29489606 MISS:    4304163
cpu0_L1D LOAD         ACCESS:   20451274 HIT:   17889884 MISS:    2561390
cpu0_L1D RFO          ACCESS:          0 HIT:          0 MISS:          0
cpu0_L1D PREFETCH     ACCESS:          0 HIT:          0 MISS:          0
cpu0_L1D WRITE        ACCESS:   13327653 HIT:   11599537 MISS:    1728116
cpu0_L1D TRANSLATION  ACCESS:      14842 HIT:        185 MISS:      14657
cpu0_L1D PREFETCH REQUESTED:          0 ISSUED:          0 USEFUL:          0 USELESS:          0
cpu0_L1D AVERAGE MISS LATENCY: 8.321 cycles
cpu0_L1I TOTAL        ACCESS:   12810513 HIT:    5517286 MISS:    7293227
cpu0_L1I LOAD         ACCESS:   12810513 HIT:    5517286 MISS:    7293227
cpu0_L1I RFO          ACCESS:          0 HIT:          0 MISS:          0
cpu0_L1I PREFETCH     ACCESS:          0 HIT:          0 MISS:          0
cpu0_L1I WRITE        ACCESS:          0 HIT:          0 MISS:          0
cpu0_L1I TRANSLATION  ACCESS:          0 HIT:          0 MISS:          0
cpu0_L1I PREFETCH REQUESTED:          0 ISSUED:          0 USEFUL:          0 USELESS:          0
cpu0_L1I AVERAGE MISS LATENCY: 8.931 cycles
cpu0_L2C TOTAL        ACCESS:    9775006 HIT:    8968166 MISS:     806840
cpu0_L2C LOAD         ACCESS:    7970537 HIT:    7266983 MISS:     703554
cpu0_L2C RFO          ACCESS:     611922 HIT:     519528 MISS:      92394
cpu0_L2C PREFETCH     ACCESS:          0 HIT:          0 MISS:          0
cpu0_L2C WRITE        ACCESS:    1177890 HIT:    1172890 MISS:       5000
cpu0_L2C TRANSLATION  ACCESS:      14657 HIT:       8765 MISS:       5892
cpu0_L2C PREFETCH REQUESTED:          0 ISSUED:          0 USEFUL:          0 USELESS:          0
cpu0_L2C AVERAGE MISS LATENCY: 20.82 cycles
cpu0_STLB TOTAL        ACCESS:    2071637 HIT:    2057181 MISS:      14456
cpu0_STLB LOAD         ACCESS:    2071637 HIT:    2057181 MISS:      14456
cpu0_STLB RFO          ACCESS:          0 HIT:          0 MISS:          0
cpu0_STLB PREFETCH     ACCESS:          0 HIT:          0 MISS:          0
cpu0_STLB WRITE        ACCESS:          0 HIT:          0 MISS:          0
cpu0_STLB TRANSLATION  ACCESS:          0 HIT:          0 MISS:          0
cpu0_STLB PREFETCH REQUESTED:          0 ISSUED:          0 USEFUL:          0 USELESS:          0
cpu0_STLB AVERAGE MISS LATENCY: 30.39 cycles

DRAM Statistics

Channel 0 RQ ROW_BUFFER_HIT:       1452
  ROW_BUFFER_MISS:       3204
 AVG DBUS CONGESTED CYCLE: 3.843
WQ ROW_BUFFER_HIT: Channel 0 
  ROW_BUFFER_MISS:         44
  FULL:        376
