WARNING: physical memory size is smaller than virtual memory size.

*** ChampSim Multicore Out-of-Order Simulator ***
Warmup Instructions: 25000000
Simulation Instructions: 100000000
Number of CPUs: 1
Page size: 4096

Off-chip DRAM Size: 4 GiB Channels: 1 Width: 64-bit Data Race: 3200 MT/s
Heartbeat CPU 0 instructions: 10000003 cycles: 2735079 heartbeat IPC: 3.656 cumulative IPC: 3.656 (Simulation time: 00 hr 00 min 23 sec)
Heartbeat CPU 0 instructions: 20000002 cycles: 5461595 heartbeat IPC: 3.668 cumulative IPC: 3.662 (Simulation time: 00 hr 00 min 46 sec)
Warmup finished CPU 0 instructions: 25000003 cycles: 6830694 cumulative IPC: 3.66 (Simulation time: 00 hr 00 min 58 sec)
Warmup complete CPU 0 instructions: 25000003 cycles: 6830694 cumulative IPC: 3.66 (Simulation time: 00 hr 00 min 58 sec)
Heartbeat CPU 0 instructions: 30000001 cycles: 16312885 heartbeat IPC: 0.9215 cumulative IPC: 0.5273 (Simulation time: 00 hr 01 min 39 sec)
*** Reached end of trace: (0, "../traces/public_traces/srv/srv_39.champsimtrace.xz")
Heartbeat CPU 0 instructions: 40000001 cycles: 35067293 heartbeat IPC: 0.5332 cumulative IPC: 0.5312 (Simulation time: 00 hr 03 min 00 sec)
Heartbeat CPU 0 instructions: 50000000 cycles: 54007855 heartbeat IPC: 0.528 cumulative IPC: 0.5299 (Simulation time: 00 hr 04 min 21 sec)
Heartbeat CPU 0 instructions: 60000002 cycles: 73131404 heartbeat IPC: 0.5229 cumulative IPC: 0.5279 (Simulation time: 00 hr 05 min 43 sec)
*** Reached end of trace: (0, "../traces/public_traces/srv/srv_39.champsimtrace.xz")
Heartbeat CPU 0 instructions: 70000003 cycles: 91665675 heartbeat IPC: 0.5395 cumulative IPC: 0.5304 (Simulation time: 00 hr 07 min 03 sec)
Heartbeat CPU 0 instructions: 80000004 cycles: 110889215 heartbeat IPC: 0.5202 cumulative IPC: 0.5285 (Simulation time: 00 hr 08 min 26 sec)
Heartbeat CPU 0 instructions: 90000001 cycles: 129595696 heartbeat IPC: 0.5346 cumulative IPC: 0.5295 (Simulation time: 00 hr 09 min 47 sec)
*** Reached end of trace: (0, "../traces/public_traces/srv/srv_39.champsimtrace.xz")
Heartbeat CPU 0 instructions: 100000001 cycles: 148290927 heartbeat IPC: 0.5349 cumulative IPC: 0.5302 (Simulation time: 00 hr 11 min 08 sec)
Heartbeat CPU 0 instructions: 110000001 cycles: 167578949 heartbeat IPC: 0.5185 cumulative IPC: 0.5288 (Simulation time: 00 hr 12 min 30 sec)
Heartbeat CPU 0 instructions: 120000001 cycles: 186357953 heartbeat IPC: 0.5325 cumulative IPC: 0.5292 (Simulation time: 00 hr 13 min 49 sec)
Simulation finished CPU 0 instructions: 100000000 cycles: 189078949 cumulative IPC: 0.5289 (Simulation time: 00 hr 14 min 30 sec)
Simulation complete CPU 0 instructions: 100000000 cycles: 189078949 cumulative IPC: 0.5289 (Simulation time: 00 hr 14 min 30 sec)

ChampSim completed all CPUs

=== Simulation ===
CPU 0 runs ../traces/public_traces/srv/srv_39.champsimtrace.xz
Region of Interest Statistics

CPU 0 cumulative IPC: 0.5289 instructions: 100000000 cycles: 189078949
CPU 0 Branch Prediction Accuracy: 91.58% MPKI: 12.85 Average ROB Occupancy at Mispredict: 29.2
Branch type MPKI
BRANCH_DIRECT_JUMP: 0
BRANCH_INDIRECT: 8.36
BRANCH_CONDITIONAL: 3.85
BRANCH_DIRECT_CALL: 0
BRANCH_INDIRECT_CALL: 0.643
BRANCH_RETURN: 0.00036

LLC TOTAL        ACCESS:    5231882 HIT:    2940914 MISS:    2290968
LLC LOAD         ACCESS:    1385678 HIT:     607801 MISS:     777877
LLC RFO          ACCESS:    1778084 HIT:     281951 MISS:    1496133
LLC PREFETCH     ACCESS:          0 HIT:          0 MISS:          0
LLC WRITE        ACCESS:    2050126 HIT:    2047351 MISS:       2775
LLC TRANSLATION  ACCESS:      17994 HIT:       3811 MISS:      14183
LLC PREFETCH REQUESTED:          0 ISSUED:          0 USEFUL:          0 USELESS:          0
LLC AVERAGE MISS LATENCY: 642 cycles
cpu0_DTLB TOTAL        ACCESS:   25557527 HIT:   24154762 MISS:    1402765
cpu0_DTLB LOAD         ACCESS:   25557527 HIT:   24154762 MISS:    1402765
cpu0_DTLB RFO          ACCESS:          0 HIT:          0 MISS:          0
cpu0_DTLB PREFETCH     ACCESS:          0 HIT:          0 MISS:          0
cpu0_DTLB WRITE        ACCESS:          0 HIT:          0 MISS:          0
cpu0_DTLB TRANSLATION  ACCESS:          0 HIT:          0 MISS:          0
cpu0_DTLB PREFETCH REQUESTED:          0 ISSUED:          0 USEFUL:          0 USELESS:          0
cpu0_DTLB AVERAGE MISS LATENCY: 8.408 cycles
cpu0_ITLB TOTAL        ACCESS:   10238782 HIT:    8194174 MISS:    2044608
cpu0_ITLB LOAD         ACCESS:   10238782 HIT:    8194174 MISS:    2044608
cpu0_ITLB RFO          ACCESS:          0 HIT:          0 MISS:          0
cpu0_ITLB PREFETCH     ACCESS:          0 HIT:          0 MISS:          0
cpu0_ITLB WRITE        ACCESS:          0 HIT:          0 MISS:          0
cpu0_ITLB TRANSLATION  ACCESS:          0 HIT:          0 MISS:          0
cpu0_ITLB PREFETCH REQUESTED:          0 ISSUED:          0 USEFUL:          0 USELESS:          0
cpu0_ITLB AVERAGE MISS LATENCY: 1.755 cycles
cpu0_L1D TOTAL        ACCESS:   34528299 HIT:   22909917 MISS:   11618382
cpu0_L1D LOAD         ACCESS:   17405062 HIT:   13848679 MISS:    3556383
cpu0_L1D RFO          ACCESS:          0 HIT:          0 MISS:          0
cpu0_L1D PREFETCH     ACCESS:          0 HIT:          0 MISS:          0
cpu0_L1D WRITE        ACCESS:   17080189 HIT:    9046763 MISS:    8033426
cpu0_L1D TRANSLATION  ACCESS:      43048 HIT:      14475 MISS:      28573
cpu0_L1D PREFETCH REQUESTED:          0 ISSUED:          0 USEFUL:          0 USELESS:          0
cpu0_L1D AVERAGE MISS LATENCY: 129.1 cycles
cpu0_L1I TOTAL        ACCESS:   11775131 HIT:    4972321 MISS:    6802810
cpu0_L1I LOAD         ACCESS:   11775131 HIT:    4972321 MISS:    6802810
cpu0_L1I RFO          ACCESS:          0 HIT:          0 MISS:          0
cpu0_L1I PREFETCH     ACCESS:          0 HIT:          0 MISS:          0
cpu0_L1I WRITE        ACCESS:          0 HIT:          0 MISS:          0
cpu0_L1I TRANSLATION  ACCESS:          0 HIT:          0 MISS:          0
cpu0_L1I PREFETCH REQUESTED:          0 ISSUED:          0 USEFUL:          0 USELESS:          0
cpu0_L1I AVERAGE MISS LATENCY: 7.513 cycles
cpu0_L2C TOTAL        ACCESS:   10171455 HIT:    6986404 MISS:    3185051
cpu0_L2C LOAD         ACCESS:    6128317 HIT:    4742639 MISS:    1385678
cpu0_L2C RFO          ACCESS:    1836036 HIT:      57952 MISS:    1778084
cpu0_L2C PREFETCH     ACCESS:          0 HIT:          0 MISS:          0
cpu0_L2C WRITE        ACCESS:    2178617 HIT:    2175322 MISS:       3295
cpu0_L2C TRANSLATION  ACCESS:      28485 HIT:      10491 MISS:      17994
cpu0_L2C PREFETCH REQUESTED:          0 ISSUED:          0 USEFUL:          0 USELESS:          0
cpu0_L2C AVERAGE MISS LATENCY: 482.5 cycles
cpu0_STLB TOTAL        ACCESS:    1463724 HIT:    1424623 MISS:      39101
cpu0_STLB LOAD         ACCESS:    1463724 HIT:    1424623 MISS:      39101
cpu0_STLB RFO          ACCESS:          0 HIT:          0 MISS:          0
cpu0_STLB PREFETCH     ACCESS:          0 HIT:          0 MISS:          0
cpu0_STLB WRITE        ACCESS:          0 HIT:          0 MISS:          0
cpu0_STLB TRANSLATION  ACCESS:          0 HIT:          0 MISS:          0
cpu0_STLB PREFETCH REQUESTED:          0 ISSUED:          0 USEFUL:          0 USELESS:          0
cpu0_STLB AVERAGE MISS LATENCY: 212.5 cycles

DRAM Statistics

Channel 0 RQ ROW_BUFFER_HIT:     853611
  ROW_BUFFER_MISS:    1434164
 AVG DBUS CONGESTED CYCLE: 3.977
WQ ROW_BUFFER_HIT: Channel 0 
  ROW_BUFFER_MISS:     163566
  FULL:    1448242
