WARNING: physical memory size is smaller than virtual memory size.

*** ChampSim Multicore Out-of-Order Simulator ***
Warmup Instructions: 25000000
Simulation Instructions: 100000000
Number of CPUs: 1
Page size: 4096

Off-chip DRAM Size: 4 GiB Channels: 1 Width: 64-bit Data Race: 3200 MT/s
Heartbeat CPU 0 instructions: 10000001 cycles: 2735744 heartbeat IPC: 3.655 cumulative IPC: 3.655 (Simulation time: 00 hr 00 min 23 sec)
Heartbeat CPU 0 instructions: 20000000 cycles: 5464229 heartbeat IPC: 3.665 cumulative IPC: 3.66 (Simulation time: 00 hr 00 min 46 sec)
Warmup finished CPU 0 instructions: 25000001 cycles: 6830131 cumulative IPC: 3.66 (Simulation time: 00 hr 00 min 58 sec)
Warmup complete CPU 0 instructions: 25000001 cycles: 6830131 cumulative IPC: 3.66 (Simulation time: 00 hr 00 min 58 sec)
Heartbeat CPU 0 instructions: 30000000 cycles: 16458338 heartbeat IPC: 0.9096 cumulative IPC: 0.5193 (Simulation time: 00 hr 01 min 39 sec)
*** Reached end of trace: (0, "../traces/public_traces/srv/srv_38.champsimtrace.xz")
Heartbeat CPU 0 instructions: 40000003 cycles: 35528463 heartbeat IPC: 0.5244 cumulative IPC: 0.5227 (Simulation time: 00 hr 03 min 01 sec)
Heartbeat CPU 0 instructions: 50000000 cycles: 54371057 heartbeat IPC: 0.5307 cumulative IPC: 0.5259 (Simulation time: 00 hr 04 min 22 sec)
Heartbeat CPU 0 instructions: 60000000 cycles: 73105420 heartbeat IPC: 0.5338 cumulative IPC: 0.5281 (Simulation time: 00 hr 05 min 43 sec)
*** Reached end of trace: (0, "../traces/public_traces/srv/srv_38.champsimtrace.xz")
Heartbeat CPU 0 instructions: 70000003 cycles: 92087346 heartbeat IPC: 0.5268 cumulative IPC: 0.5278 (Simulation time: 00 hr 07 min 05 sec)
Heartbeat CPU 0 instructions: 80000003 cycles: 111114452 heartbeat IPC: 0.5256 cumulative IPC: 0.5274 (Simulation time: 00 hr 08 min 27 sec)
Heartbeat CPU 0 instructions: 90000004 cycles: 129777960 heartbeat IPC: 0.5358 cumulative IPC: 0.5287 (Simulation time: 00 hr 09 min 47 sec)
*** Reached end of trace: (0, "../traces/public_traces/srv/srv_38.champsimtrace.xz")
Heartbeat CPU 0 instructions: 100000003 cycles: 148943986 heartbeat IPC: 0.5218 cumulative IPC: 0.5277 (Simulation time: 00 hr 11 min 09 sec)
Heartbeat CPU 0 instructions: 110000000 cycles: 168009775 heartbeat IPC: 0.5245 cumulative IPC: 0.5274 (Simulation time: 00 hr 12 min 31 sec)
Heartbeat CPU 0 instructions: 120000002 cycles: 186783951 heartbeat IPC: 0.5326 cumulative IPC: 0.5279 (Simulation time: 00 hr 13 min 52 sec)
Simulation finished CPU 0 instructions: 100000003 cycles: 189344487 cumulative IPC: 0.5281 (Simulation time: 00 hr 14 min 33 sec)
Simulation complete CPU 0 instructions: 100000003 cycles: 189344487 cumulative IPC: 0.5281 (Simulation time: 00 hr 14 min 33 sec)

ChampSim completed all CPUs

=== Simulation ===
CPU 0 runs ../traces/public_traces/srv/srv_38.champsimtrace.xz
Region of Interest Statistics

CPU 0 cumulative IPC: 0.5281 instructions: 100000003 cycles: 189344487
CPU 0 Branch Prediction Accuracy: 91.68% MPKI: 12.76 Average ROB Occupancy at Mispredict: 29.44
Branch type MPKI
BRANCH_DIRECT_JUMP: 7e-05
BRANCH_INDIRECT: 8.31
BRANCH_CONDITIONAL: 3.8
BRANCH_DIRECT_CALL: 4e-05
BRANCH_INDIRECT_CALL: 0.64
BRANCH_RETURN: 0.00077

LLC TOTAL        ACCESS:    5249890 HIT:    2950272 MISS:    2299618
LLC LOAD         ACCESS:    1389624 HIT:     615478 MISS:     774146
LLC RFO          ACCESS:    1786312 HIT:     275007 MISS:    1511305
LLC PREFETCH     ACCESS:          0 HIT:          0 MISS:          0
LLC WRITE        ACCESS:    2059139 HIT:    2057104 MISS:       2035
LLC TRANSLATION  ACCESS:      14815 HIT:       2683 MISS:      12132
LLC PREFETCH REQUESTED:          0 ISSUED:          0 USEFUL:          0 USELESS:          0
LLC AVERAGE MISS LATENCY: 650.2 cycles
cpu0_DTLB TOTAL        ACCESS:   25456599 HIT:   24075191 MISS:    1381408
cpu0_DTLB LOAD         ACCESS:   25456599 HIT:   24075191 MISS:    1381408
cpu0_DTLB RFO          ACCESS:          0 HIT:          0 MISS:          0
cpu0_DTLB PREFETCH     ACCESS:          0 HIT:          0 MISS:          0
cpu0_DTLB WRITE        ACCESS:          0 HIT:          0 MISS:          0
cpu0_DTLB TRANSLATION  ACCESS:          0 HIT:          0 MISS:          0
cpu0_DTLB PREFETCH REQUESTED:          0 ISSUED:          0 USEFUL:          0 USELESS:          0
cpu0_DTLB AVERAGE MISS LATENCY: 8.018 cycles
cpu0_ITLB TOTAL        ACCESS:   10170033 HIT:    8140671 MISS:    2029362
cpu0_ITLB LOAD         ACCESS:   10170033 HIT:    8140671 MISS:    2029362
cpu0_ITLB RFO          ACCESS:          0 HIT:          0 MISS:          0
cpu0_ITLB PREFETCH     ACCESS:          0 HIT:          0 MISS:          0
cpu0_ITLB WRITE        ACCESS:          0 HIT:          0 MISS:          0
cpu0_ITLB TRANSLATION  ACCESS:          0 HIT:          0 MISS:          0
cpu0_ITLB PREFETCH REQUESTED:          0 ISSUED:          0 USEFUL:          0 USELESS:          0
cpu0_ITLB AVERAGE MISS LATENCY: 1.753 cycles
cpu0_L1D TOTAL        ACCESS:   34392760 HIT:   22728867 MISS:   11663893
cpu0_L1D LOAD         ACCESS:   17305959 HIT:   13732895 MISS:    3573064
cpu0_L1D RFO          ACCESS:          0 HIT:          0 MISS:          0
cpu0_L1D PREFETCH     ACCESS:          0 HIT:          0 MISS:          0
cpu0_L1D WRITE        ACCESS:   17047562 HIT:    8981696 MISS:    8065866
cpu0_L1D TRANSLATION  ACCESS:      39239 HIT:      14276 MISS:      24963
cpu0_L1D PREFETCH REQUESTED:          0 ISSUED:          0 USEFUL:          0 USELESS:          0
cpu0_L1D AVERAGE MISS LATENCY: 130.6 cycles
cpu0_L1I TOTAL        ACCESS:   11697143 HIT:    4958844 MISS:    6738299
cpu0_L1I LOAD         ACCESS:   11697143 HIT:    4958844 MISS:    6738299
cpu0_L1I RFO          ACCESS:          0 HIT:          0 MISS:          0
cpu0_L1I PREFETCH     ACCESS:          0 HIT:          0 MISS:          0
cpu0_L1I WRITE        ACCESS:          0 HIT:          0 MISS:          0
cpu0_L1I TRANSLATION  ACCESS:          0 HIT:          0 MISS:          0
cpu0_L1I PREFETCH REQUESTED:          0 ISSUED:          0 USEFUL:          0 USELESS:          0
cpu0_L1I AVERAGE MISS LATENCY: 7.512 cycles
cpu0_L2C TOTAL        ACCESS:   10135912 HIT:    6942954 MISS:    3192958
cpu0_L2C LOAD         ACCESS:    6085662 HIT:    4696038 MISS:    1389624
cpu0_L2C RFO          ACCESS:    1841318 HIT:      55006 MISS:    1786312
cpu0_L2C PREFETCH     ACCESS:          0 HIT:          0 MISS:          0
cpu0_L2C WRITE        ACCESS:    2184143 HIT:    2181936 MISS:       2207
cpu0_L2C TRANSLATION  ACCESS:      24789 HIT:       9974 MISS:      14815
cpu0_L2C PREFETCH REQUESTED:          0 ISSUED:          0 USEFUL:          0 USELESS:          0
cpu0_L2C AVERAGE MISS LATENCY: 489 cycles
cpu0_STLB TOTAL        ACCESS:    1445296 HIT:    1408241 MISS:      37055
cpu0_STLB LOAD         ACCESS:    1445296 HIT:    1408241 MISS:      37055
cpu0_STLB RFO          ACCESS:          0 HIT:          0 MISS:          0
cpu0_STLB PREFETCH     ACCESS:          0 HIT:          0 MISS:          0
cpu0_STLB WRITE        ACCESS:          0 HIT:          0 MISS:          0
cpu0_STLB TRANSLATION  ACCESS:          0 HIT:          0 MISS:          0
cpu0_STLB PREFETCH REQUESTED:          0 ISSUED:          0 USEFUL:          0 USELESS:          0
cpu0_STLB AVERAGE MISS LATENCY: 207.4 cycles

DRAM Statistics

Channel 0 RQ ROW_BUFFER_HIT:     843779
  ROW_BUFFER_MISS:    1453197
 AVG DBUS CONGESTED CYCLE: 3.978
WQ ROW_BUFFER_HIT: Channel 0 
  ROW_BUFFER_MISS:     160414
  FULL:    1466060
