WARNING: physical memory size is smaller than virtual memory size.

*** ChampSim Multicore Out-of-Order Simulator ***
Warmup Instructions: 25000000
Simulation Instructions: 100000000
Number of CPUs: 1
Page size: 4096

Off-chip DRAM Size: 4 GiB Channels: 1 Width: 64-bit Data Race: 3200 MT/s
Heartbeat CPU 0 instructions: 10000002 cycles: 2504401 heartbeat IPC: 3.993 cumulative IPC: 3.993 (Simulation time: 00 hr 00 min 21 sec)
Heartbeat CPU 0 instructions: 20000002 cycles: 5008805 heartbeat IPC: 3.993 cumulative IPC: 3.993 (Simulation time: 00 hr 00 min 42 sec)
Warmup finished CPU 0 instructions: 25000002 cycles: 6260989 cumulative IPC: 3.993 (Simulation time: 00 hr 00 min 53 sec)
Warmup complete CPU 0 instructions: 25000002 cycles: 6260989 cumulative IPC: 3.993 (Simulation time: 00 hr 00 min 53 sec)
Heartbeat CPU 0 instructions: 30000000 cycles: 9506633 heartbeat IPC: 2.223 cumulative IPC: 1.541 (Simulation time: 00 hr 01 min 11 sec)
*** Reached end of trace: (0, "../traces/public_traces/srv/srv_28.champsimtrace.xz")
Heartbeat CPU 0 instructions: 40000004 cycles: 16037298 heartbeat IPC: 1.531 cumulative IPC: 1.534 (Simulation time: 00 hr 01 min 48 sec)
Heartbeat CPU 0 instructions: 50000001 cycles: 22498429 heartbeat IPC: 1.548 cumulative IPC: 1.54 (Simulation time: 00 hr 02 min 25 sec)
Heartbeat CPU 0 instructions: 60000000 cycles: 28815093 heartbeat IPC: 1.583 cumulative IPC: 1.552 (Simulation time: 00 hr 03 min 01 sec)
*** Reached end of trace: (0, "../traces/public_traces/srv/srv_28.champsimtrace.xz")
Heartbeat CPU 0 instructions: 70000001 cycles: 35344666 heartbeat IPC: 1.531 cumulative IPC: 1.547 (Simulation time: 00 hr 03 min 39 sec)
Heartbeat CPU 0 instructions: 80000000 cycles: 41747726 heartbeat IPC: 1.562 cumulative IPC: 1.55 (Simulation time: 00 hr 04 min 15 sec)
Heartbeat CPU 0 instructions: 90000000 cycles: 48034612 heartbeat IPC: 1.591 cumulative IPC: 1.556 (Simulation time: 00 hr 04 min 51 sec)
*** Reached end of trace: (0, "../traces/public_traces/srv/srv_28.champsimtrace.xz")
Heartbeat CPU 0 instructions: 100000001 cycles: 54633731 heartbeat IPC: 1.515 cumulative IPC: 1.55 (Simulation time: 00 hr 05 min 29 sec)
Heartbeat CPU 0 instructions: 110000003 cycles: 60790159 heartbeat IPC: 1.624 cumulative IPC: 1.559 (Simulation time: 00 hr 06 min 04 sec)
Heartbeat CPU 0 instructions: 120000004 cycles: 67272943 heartbeat IPC: 1.543 cumulative IPC: 1.557 (Simulation time: 00 hr 06 min 41 sec)
Simulation finished CPU 0 instructions: 100000002 cycles: 64121101 cumulative IPC: 1.56 (Simulation time: 00 hr 06 min 59 sec)
Simulation complete CPU 0 instructions: 100000002 cycles: 64121101 cumulative IPC: 1.56 (Simulation time: 00 hr 06 min 59 sec)

ChampSim completed all CPUs

=== Simulation ===
CPU 0 runs ../traces/public_traces/srv/srv_28.champsimtrace.xz
Region of Interest Statistics

CPU 0 cumulative IPC: 1.56 instructions: 100000002 cycles: 64121101
CPU 0 Branch Prediction Accuracy: 95.01% MPKI: 9.106 Average ROB Occupancy at Mispredict: 45.78
Branch type MPKI
BRANCH_DIRECT_JUMP: 0.00016
BRANCH_INDIRECT: 4.92
BRANCH_CONDITIONAL: 3.84
BRANCH_DIRECT_CALL: 0.00025
BRANCH_INDIRECT_CALL: 0.347
BRANCH_RETURN: 0.00029

LLC TOTAL        ACCESS:     363144 HIT:     166850 MISS:     196294
LLC LOAD         ACCESS:     184753 HIT:      56935 MISS:     127818
LLC RFO          ACCESS:      61991 HIT:      20101 MISS:      41890
LLC PREFETCH     ACCESS:          0 HIT:          0 MISS:          0
LLC WRITE        ACCESS:      81968 HIT:      81739 MISS:        229
LLC TRANSLATION  ACCESS:      34432 HIT:       8075 MISS:      26357
LLC PREFETCH REQUESTED:          0 ISSUED:          0 USEFUL:          0 USELESS:          0
LLC AVERAGE MISS LATENCY: 213.9 cycles
cpu0_DTLB TOTAL        ACCESS:   23632826 HIT:   22194794 MISS:    1438032
cpu0_DTLB LOAD         ACCESS:   23632826 HIT:   22194794 MISS:    1438032
cpu0_DTLB RFO          ACCESS:          0 HIT:          0 MISS:          0
cpu0_DTLB PREFETCH     ACCESS:          0 HIT:          0 MISS:          0
cpu0_DTLB WRITE        ACCESS:          0 HIT:          0 MISS:          0
cpu0_DTLB TRANSLATION  ACCESS:          0 HIT:          0 MISS:          0
cpu0_DTLB PREFETCH REQUESTED:          0 ISSUED:          0 USEFUL:          0 USELESS:          0
cpu0_DTLB AVERAGE MISS LATENCY: 8.077 cycles
cpu0_ITLB TOTAL        ACCESS:    8621095 HIT:    8486215 MISS:     134880
cpu0_ITLB LOAD         ACCESS:    8621095 HIT:    8486215 MISS:     134880
cpu0_ITLB RFO          ACCESS:          0 HIT:          0 MISS:          0
cpu0_ITLB PREFETCH     ACCESS:          0 HIT:          0 MISS:          0
cpu0_ITLB WRITE        ACCESS:          0 HIT:          0 MISS:          0
cpu0_ITLB TRANSLATION  ACCESS:          0 HIT:          0 MISS:          0
cpu0_ITLB PREFETCH REQUESTED:          0 ISSUED:          0 USEFUL:          0 USELESS:          0
cpu0_ITLB AVERAGE MISS LATENCY: 3.26 cycles
cpu0_L1D TOTAL        ACCESS:   31033697 HIT:   30178835 MISS:     854862
cpu0_L1D LOAD         ACCESS:   18898031 HIT:   18443832 MISS:     454199
cpu0_L1D RFO          ACCESS:          0 HIT:          0 MISS:          0
cpu0_L1D PREFETCH     ACCESS:          0 HIT:          0 MISS:          0
cpu0_L1D WRITE        ACCESS:   12074253 HIT:   11727148 MISS:     347105
cpu0_L1D TRANSLATION  ACCESS:      61413 HIT:       7855 MISS:      53558
cpu0_L1D PREFETCH REQUESTED:          0 ISSUED:          0 USEFUL:          0 USELESS:          0
cpu0_L1D AVERAGE MISS LATENCY: 56.14 cycles
cpu0_L1I TOTAL        ACCESS:    9548520 HIT:    9090207 MISS:     458313
cpu0_L1I LOAD         ACCESS:    9548520 HIT:    9090207 MISS:     458313
cpu0_L1I RFO          ACCESS:          0 HIT:          0 MISS:          0
cpu0_L1I PREFETCH     ACCESS:          0 HIT:          0 MISS:          0
cpu0_L1I WRITE        ACCESS:          0 HIT:          0 MISS:          0
cpu0_L1I TRANSLATION  ACCESS:          0 HIT:          0 MISS:          0
cpu0_L1I PREFETCH REQUESTED:          0 ISSUED:          0 USEFUL:          0 USELESS:          0
cpu0_L1I AVERAGE MISS LATENCY: 8.64 cycles
cpu0_L2C TOTAL        ACCESS:     715294 HIT:     433357 MISS:     281937
cpu0_L2C LOAD         ACCESS:     502999 HIT:     318246 MISS:     184753
cpu0_L2C RFO          ACCESS:      67356 HIT:       5365 MISS:      61991
cpu0_L2C PREFETCH     ACCESS:          0 HIT:          0 MISS:          0
cpu0_L2C WRITE        ACCESS:      91592 HIT:      90831 MISS:        761
cpu0_L2C TRANSLATION  ACCESS:      53347 HIT:      18915 MISS:      34432
cpu0_L2C PREFETCH REQUESTED:          0 ISSUED:          0 USEFUL:          0 USELESS:          0
cpu0_L2C AVERAGE MISS LATENCY: 169.6 cycles
cpu0_STLB TOTAL        ACCESS:     933727 HIT:     890360 MISS:      43367
cpu0_STLB LOAD         ACCESS:     933727 HIT:     890360 MISS:      43367
cpu0_STLB RFO          ACCESS:          0 HIT:          0 MISS:          0
cpu0_STLB PREFETCH     ACCESS:          0 HIT:          0 MISS:          0
cpu0_STLB WRITE        ACCESS:          0 HIT:          0 MISS:          0
cpu0_STLB TRANSLATION  ACCESS:          0 HIT:          0 MISS:          0
cpu0_STLB PREFETCH REQUESTED:          0 ISSUED:          0 USEFUL:          0 USELESS:          0
cpu0_STLB AVERAGE MISS LATENCY: 145.4 cycles

DRAM Statistics

Channel 0 RQ ROW_BUFFER_HIT:      48092
  ROW_BUFFER_MISS:     147894
 AVG DBUS CONGESTED CYCLE: 3.935
WQ ROW_BUFFER_HIT: Channel 0 
  ROW_BUFFER_MISS:      16351
  FULL:      38212
