WARNING: physical memory size is smaller than virtual memory size.

*** ChampSim Multicore Out-of-Order Simulator ***
Warmup Instructions: 25000000
Simulation Instructions: 100000000
Number of CPUs: 1
Page size: 4096

Off-chip DRAM Size: 4 GiB Channels: 1 Width: 64-bit Data Race: 3200 MT/s
Heartbeat CPU 0 instructions: 10000002 cycles: 2500774 heartbeat IPC: 3.999 cumulative IPC: 3.999 (Simulation time: 00 hr 00 min 22 sec)
Heartbeat CPU 0 instructions: 20000002 cycles: 5000774 heartbeat IPC: 4 cumulative IPC: 3.999 (Simulation time: 00 hr 00 min 45 sec)
Warmup finished CPU 0 instructions: 25000002 cycles: 6250775 cumulative IPC: 4 (Simulation time: 00 hr 00 min 56 sec)
Warmup complete CPU 0 instructions: 25000002 cycles: 6250775 cumulative IPC: 4 (Simulation time: 00 hr 00 min 56 sec)
Heartbeat CPU 0 instructions: 30000001 cycles: 14791803 heartbeat IPC: 1.021 cumulative IPC: 0.5854 (Simulation time: 00 hr 01 min 29 sec)
*** Reached end of trace: (0, "../traces/public_traces/srv/srv_19.champsimtrace.xz")
Heartbeat CPU 0 instructions: 40000002 cycles: 31437509 heartbeat IPC: 0.6008 cumulative IPC: 0.5956 (Simulation time: 00 hr 02 min 34 sec)
Heartbeat CPU 0 instructions: 50000001 cycles: 48098689 heartbeat IPC: 0.6002 cumulative IPC: 0.5974 (Simulation time: 00 hr 03 min 39 sec)
Heartbeat CPU 0 instructions: 60000002 cycles: 64780655 heartbeat IPC: 0.5994 cumulative IPC: 0.598 (Simulation time: 00 hr 04 min 44 sec)
*** Reached end of trace: (0, "../traces/public_traces/srv/srv_19.champsimtrace.xz")
Heartbeat CPU 0 instructions: 70000003 cycles: 81380674 heartbeat IPC: 0.6024 cumulative IPC: 0.599 (Simulation time: 00 hr 05 min 49 sec)
Heartbeat CPU 0 instructions: 80000000 cycles: 98054412 heartbeat IPC: 0.5997 cumulative IPC: 0.5991 (Simulation time: 00 hr 06 min 55 sec)
Heartbeat CPU 0 instructions: 90000001 cycles: 114735237 heartbeat IPC: 0.5995 cumulative IPC: 0.5992 (Simulation time: 00 hr 08 min 00 sec)
*** Reached end of trace: (0, "../traces/public_traces/srv/srv_19.champsimtrace.xz")
Heartbeat CPU 0 instructions: 100000004 cycles: 131333244 heartbeat IPC: 0.6025 cumulative IPC: 0.5996 (Simulation time: 00 hr 09 min 05 sec)
Heartbeat CPU 0 instructions: 110000000 cycles: 147994645 heartbeat IPC: 0.6002 cumulative IPC: 0.5997 (Simulation time: 00 hr 10 min 10 sec)
Heartbeat CPU 0 instructions: 120000002 cycles: 164676875 heartbeat IPC: 0.5994 cumulative IPC: 0.5996 (Simulation time: 00 hr 11 min 15 sec)
Simulation finished CPU 0 instructions: 100000003 cycles: 166758638 cumulative IPC: 0.5997 (Simulation time: 00 hr 11 min 47 sec)
Simulation complete CPU 0 instructions: 100000003 cycles: 166758638 cumulative IPC: 0.5997 (Simulation time: 00 hr 11 min 47 sec)

ChampSim completed all CPUs

=== Simulation ===
CPU 0 runs ../traces/public_traces/srv/srv_19.champsimtrace.xz
Region of Interest Statistics

CPU 0 cumulative IPC: 0.5997 instructions: 100000003 cycles: 166758638
CPU 0 Branch Prediction Accuracy: 71.74% MPKI: 50.77 Average ROB Occupancy at Mispredict: 4.154
Branch type MPKI
BRANCH_DIRECT_JUMP: 0.465
BRANCH_INDIRECT: 35.3
BRANCH_CONDITIONAL: 10
BRANCH_DIRECT_CALL: 1.59
BRANCH_INDIRECT_CALL: 2.18
BRANCH_RETURN: 1.22

LLC TOTAL        ACCESS:    1019165 HIT:     971299 MISS:      47866
LLC LOAD         ACCESS:     803450 HIT:     767776 MISS:      35674
LLC RFO          ACCESS:      68215 HIT:      64704 MISS:       3511
LLC PREFETCH     ACCESS:          0 HIT:          0 MISS:          0
LLC WRITE        ACCESS:     118904 HIT:     118652 MISS:        252
LLC TRANSLATION  ACCESS:      28596 HIT:      20167 MISS:       8429
LLC PREFETCH REQUESTED:          0 ISSUED:          0 USEFUL:          0 USELESS:          0
LLC AVERAGE MISS LATENCY: 163.5 cycles
cpu0_DTLB TOTAL        ACCESS:   27109129 HIT:   25844107 MISS:    1265022
cpu0_DTLB LOAD         ACCESS:   27109129 HIT:   25844107 MISS:    1265022
cpu0_DTLB RFO          ACCESS:          0 HIT:          0 MISS:          0
cpu0_DTLB PREFETCH     ACCESS:          0 HIT:          0 MISS:          0
cpu0_DTLB WRITE        ACCESS:          0 HIT:          0 MISS:          0
cpu0_DTLB TRANSLATION  ACCESS:          0 HIT:          0 MISS:          0
cpu0_DTLB PREFETCH REQUESTED:          0 ISSUED:          0 USEFUL:          0 USELESS:          0
cpu0_DTLB AVERAGE MISS LATENCY: 8.142 cycles
cpu0_ITLB TOTAL        ACCESS:   11348376 HIT:    9166329 MISS:    2182047
cpu0_ITLB LOAD         ACCESS:   11348376 HIT:    9166329 MISS:    2182047
cpu0_ITLB RFO          ACCESS:          0 HIT:          0 MISS:          0
cpu0_ITLB PREFETCH     ACCESS:          0 HIT:          0 MISS:          0
cpu0_ITLB WRITE        ACCESS:          0 HIT:          0 MISS:          0
cpu0_ITLB TRANSLATION  ACCESS:          0 HIT:          0 MISS:          0
cpu0_ITLB PREFETCH REQUESTED:          0 ISSUED:          0 USEFUL:          0 USELESS:          0
cpu0_ITLB AVERAGE MISS LATENCY: 3.035 cycles
cpu0_L1D TOTAL        ACCESS:   33963322 HIT:   29971055 MISS:    3992267
cpu0_L1D LOAD         ACCESS:   20533353 HIT:   18256688 MISS:    2276665
cpu0_L1D RFO          ACCESS:          0 HIT:          0 MISS:          0
cpu0_L1D PREFETCH     ACCESS:          0 HIT:          0 MISS:          0
cpu0_L1D WRITE        ACCESS:   13382814 HIT:   11712731 MISS:    1670083
cpu0_L1D TRANSLATION  ACCESS:      47155 HIT:       1636 MISS:      45519
cpu0_L1D PREFETCH REQUESTED:          0 ISSUED:          0 USEFUL:          0 USELESS:          0
cpu0_L1D AVERAGE MISS LATENCY: 9.668 cycles
cpu0_L1I TOTAL        ACCESS:   12810950 HIT:    5580422 MISS:    7230528
cpu0_L1I LOAD         ACCESS:   12810950 HIT:    5580422 MISS:    7230528
cpu0_L1I RFO          ACCESS:          0 HIT:          0 MISS:          0
cpu0_L1I PREFETCH     ACCESS:          0 HIT:          0 MISS:          0
cpu0_L1I WRITE        ACCESS:          0 HIT:          0 MISS:          0
cpu0_L1I TRANSLATION  ACCESS:          0 HIT:          0 MISS:          0
cpu0_L1I PREFETCH REQUESTED:          0 ISSUED:          0 USEFUL:          0 USELESS:          0
cpu0_L1I AVERAGE MISS LATENCY: 9.245 cycles
cpu0_L2C TOTAL        ACCESS:    9335009 HIT:    8425347 MISS:     909662
cpu0_L2C LOAD         ACCESS:    7578298 HIT:    6774848 MISS:     803450
cpu0_L2C RFO          ACCESS:     592842 HIT:     524627 MISS:      68215
cpu0_L2C PREFETCH     ACCESS:          0 HIT:          0 MISS:          0
cpu0_L2C WRITE        ACCESS:    1118378 HIT:    1108977 MISS:       9401
cpu0_L2C TRANSLATION  ACCESS:      45491 HIT:      16895 MISS:      28596
cpu0_L2C PREFETCH REQUESTED:          0 ISSUED:          0 USEFUL:          0 USELESS:          0
cpu0_L2C AVERAGE MISS LATENCY: 28.45 cycles
cpu0_STLB TOTAL        ACCESS:    2092289 HIT:    2061159 MISS:      31130
cpu0_STLB LOAD         ACCESS:    2092289 HIT:    2061159 MISS:      31130
cpu0_STLB RFO          ACCESS:          0 HIT:          0 MISS:          0
cpu0_STLB PREFETCH     ACCESS:          0 HIT:          0 MISS:          0
cpu0_STLB WRITE        ACCESS:          0 HIT:          0 MISS:          0
cpu0_STLB TRANSLATION  ACCESS:          0 HIT:          0 MISS:          0
cpu0_STLB PREFETCH REQUESTED:          0 ISSUED:          0 USEFUL:          0 USELESS:          0
cpu0_STLB AVERAGE MISS LATENCY: 88.45 cycles

DRAM Statistics

Channel 0 RQ ROW_BUFFER_HIT:      14851
  ROW_BUFFER_MISS:      32760
 AVG DBUS CONGESTED CYCLE: 3.84
WQ ROW_BUFFER_HIT: Channel 0 
  ROW_BUFFER_MISS:        928
  FULL:       3306
