WARNING: physical memory size is smaller than virtual memory size.

*** ChampSim Multicore Out-of-Order Simulator ***
Warmup Instructions: 25000000
Simulation Instructions: 100000000
Number of CPUs: 1
Page size: 4096

Off-chip DRAM Size: 4 GiB Channels: 1 Width: 64-bit Data Race: 3200 MT/s
Heartbeat CPU 0 instructions: 10000000 cycles: 2504220 heartbeat IPC: 3.993 cumulative IPC: 3.993 (Simulation time: 00 hr 00 min 21 sec)
Heartbeat CPU 0 instructions: 20000001 cycles: 5008232 heartbeat IPC: 3.994 cumulative IPC: 3.993 (Simulation time: 00 hr 00 min 42 sec)
Warmup finished CPU 0 instructions: 25000002 cycles: 6260570 cumulative IPC: 3.993 (Simulation time: 00 hr 00 min 52 sec)
Warmup complete CPU 0 instructions: 25000002 cycles: 6260570 cumulative IPC: 3.993 (Simulation time: 00 hr 00 min 52 sec)
Heartbeat CPU 0 instructions: 30000003 cycles: 9405849 heartbeat IPC: 2.274 cumulative IPC: 1.59 (Simulation time: 00 hr 01 min 10 sec)
*** Reached end of trace: (0, "../traces/public_traces/srv/srv_27.champsimtrace.xz")
Heartbeat CPU 0 instructions: 40000001 cycles: 15909094 heartbeat IPC: 1.538 cumulative IPC: 1.555 (Simulation time: 00 hr 01 min 47 sec)
Heartbeat CPU 0 instructions: 50000004 cycles: 22222995 heartbeat IPC: 1.584 cumulative IPC: 1.566 (Simulation time: 00 hr 02 min 23 sec)
Heartbeat CPU 0 instructions: 60000000 cycles: 28397708 heartbeat IPC: 1.62 cumulative IPC: 1.581 (Simulation time: 00 hr 02 min 58 sec)
*** Reached end of trace: (0, "../traces/public_traces/srv/srv_27.champsimtrace.xz")
Heartbeat CPU 0 instructions: 70000002 cycles: 34793606 heartbeat IPC: 1.564 cumulative IPC: 1.577 (Simulation time: 00 hr 03 min 34 sec)
Heartbeat CPU 0 instructions: 80000000 cycles: 41153517 heartbeat IPC: 1.572 cumulative IPC: 1.576 (Simulation time: 00 hr 04 min 10 sec)
Heartbeat CPU 0 instructions: 90000001 cycles: 47316793 heartbeat IPC: 1.623 cumulative IPC: 1.583 (Simulation time: 00 hr 04 min 46 sec)
*** Reached end of trace: (0, "../traces/public_traces/srv/srv_27.champsimtrace.xz")
Heartbeat CPU 0 instructions: 100000001 cycles: 53766288 heartbeat IPC: 1.551 cumulative IPC: 1.579 (Simulation time: 00 hr 05 min 22 sec)
Heartbeat CPU 0 instructions: 110000001 cycles: 60037307 heartbeat IPC: 1.595 cumulative IPC: 1.581 (Simulation time: 00 hr 05 min 58 sec)
Heartbeat CPU 0 instructions: 120000001 cycles: 66235720 heartbeat IPC: 1.613 cumulative IPC: 1.584 (Simulation time: 00 hr 06 min 34 sec)
Simulation finished CPU 0 instructions: 100000003 cycles: 62984758 cumulative IPC: 1.588 (Simulation time: 00 hr 06 min 51 sec)
Simulation complete CPU 0 instructions: 100000003 cycles: 62984758 cumulative IPC: 1.588 (Simulation time: 00 hr 06 min 51 sec)

ChampSim completed all CPUs

=== Simulation ===
CPU 0 runs ../traces/public_traces/srv/srv_27.champsimtrace.xz
Region of Interest Statistics

CPU 0 cumulative IPC: 1.588 instructions: 100000003 cycles: 62984758
CPU 0 Branch Prediction Accuracy: 95.04% MPKI: 9.066 Average ROB Occupancy at Mispredict: 45.43
Branch type MPKI
BRANCH_DIRECT_JUMP: 7e-05
BRANCH_INDIRECT: 4.87
BRANCH_CONDITIONAL: 3.85
BRANCH_DIRECT_CALL: 0.00015
BRANCH_INDIRECT_CALL: 0.347
BRANCH_RETURN: 0.00026

LLC TOTAL        ACCESS:     329554 HIT:     155211 MISS:     174343
LLC LOAD         ACCESS:     174764 HIT:      56424 MISS:     118340
LLC RFO          ACCESS:      51168 HIT:      19634 MISS:      31534
LLC PREFETCH     ACCESS:          0 HIT:          0 MISS:          0
LLC WRITE        ACCESS:      70855 HIT:      70607 MISS:        248
LLC TRANSLATION  ACCESS:      32767 HIT:       8546 MISS:      24221
LLC PREFETCH REQUESTED:          0 ISSUED:          0 USEFUL:          0 USELESS:          0
LLC AVERAGE MISS LATENCY: 201.3 cycles
cpu0_DTLB TOTAL        ACCESS:   23621172 HIT:   22225196 MISS:    1395976
cpu0_DTLB LOAD         ACCESS:   23621172 HIT:   22225196 MISS:    1395976
cpu0_DTLB RFO          ACCESS:          0 HIT:          0 MISS:          0
cpu0_DTLB PREFETCH     ACCESS:          0 HIT:          0 MISS:          0
cpu0_DTLB WRITE        ACCESS:          0 HIT:          0 MISS:          0
cpu0_DTLB TRANSLATION  ACCESS:          0 HIT:          0 MISS:          0
cpu0_DTLB PREFETCH REQUESTED:          0 ISSUED:          0 USEFUL:          0 USELESS:          0
cpu0_DTLB AVERAGE MISS LATENCY: 7.9 cycles
cpu0_ITLB TOTAL        ACCESS:    8628957 HIT:    8498963 MISS:     129994
cpu0_ITLB LOAD         ACCESS:    8628957 HIT:    8498963 MISS:     129994
cpu0_ITLB RFO          ACCESS:          0 HIT:          0 MISS:          0
cpu0_ITLB PREFETCH     ACCESS:          0 HIT:          0 MISS:          0
cpu0_ITLB WRITE        ACCESS:          0 HIT:          0 MISS:          0
cpu0_ITLB TRANSLATION  ACCESS:          0 HIT:          0 MISS:          0
cpu0_ITLB PREFETCH REQUESTED:          0 ISSUED:          0 USEFUL:          0 USELESS:          0
cpu0_ITLB AVERAGE MISS LATENCY: 3.302 cycles
cpu0_L1D TOTAL        ACCESS:   31009172 HIT:   30230952 MISS:     778220
cpu0_L1D LOAD         ACCESS:   18902031 HIT:   18471100 MISS:     430931
cpu0_L1D RFO          ACCESS:          0 HIT:          0 MISS:          0
cpu0_L1D PREFETCH     ACCESS:          0 HIT:          0 MISS:          0
cpu0_L1D WRITE        ACCESS:   12046829 HIT:   11751932 MISS:     294897
cpu0_L1D TRANSLATION  ACCESS:      60312 HIT:       7920 MISS:      52392
cpu0_L1D PREFETCH REQUESTED:          0 ISSUED:          0 USEFUL:          0 USELESS:          0
cpu0_L1D AVERAGE MISS LATENCY: 52.37 cycles
cpu0_L1I TOTAL        ACCESS:    9556908 HIT:    9114334 MISS:     442574
cpu0_L1I LOAD         ACCESS:    9556908 HIT:    9114334 MISS:     442574
cpu0_L1I RFO          ACCESS:          0 HIT:          0 MISS:          0
cpu0_L1I PREFETCH     ACCESS:          0 HIT:          0 MISS:          0
cpu0_L1I WRITE        ACCESS:          0 HIT:          0 MISS:          0
cpu0_L1I TRANSLATION  ACCESS:          0 HIT:          0 MISS:          0
cpu0_L1I PREFETCH REQUESTED:          0 ISSUED:          0 USEFUL:          0 USELESS:          0
cpu0_L1I AVERAGE MISS LATENCY: 8.474 cycles
cpu0_L2C TOTAL        ACCESS:     663799 HIT:     404432 MISS:     259367
cpu0_L2C LOAD         ACCESS:     478930 HIT:     304166 MISS:     174764
cpu0_L2C RFO          ACCESS:      54853 HIT:       3685 MISS:      51168
cpu0_L2C PREFETCH     ACCESS:          0 HIT:          0 MISS:          0
cpu0_L2C WRITE        ACCESS:      77790 HIT:      77122 MISS:        668
cpu0_L2C TRANSLATION  ACCESS:      52226 HIT:      19459 MISS:      32767
cpu0_L2C PREFETCH REQUESTED:          0 ISSUED:          0 USEFUL:          0 USELESS:          0
cpu0_L2C AVERAGE MISS LATENCY: 156 cycles
cpu0_STLB TOTAL        ACCESS:     907417 HIT:     864799 MISS:      42618
cpu0_STLB LOAD         ACCESS:     907417 HIT:     864799 MISS:      42618
cpu0_STLB RFO          ACCESS:          0 HIT:          0 MISS:          0
cpu0_STLB PREFETCH     ACCESS:          0 HIT:          0 MISS:          0
cpu0_STLB WRITE        ACCESS:          0 HIT:          0 MISS:          0
cpu0_STLB TRANSLATION  ACCESS:          0 HIT:          0 MISS:          0
cpu0_STLB PREFETCH REQUESTED:          0 ISSUED:          0 USEFUL:          0 USELESS:          0
cpu0_STLB AVERAGE MISS LATENCY: 136.4 cycles

DRAM Statistics

Channel 0 RQ ROW_BUFFER_HIT:      39458
  ROW_BUFFER_MISS:     134597
 AVG DBUS CONGESTED CYCLE: 3.927
WQ ROW_BUFFER_HIT: Channel 0 
  ROW_BUFFER_MISS:      12781
  FULL:      28697
