WARNING: physical memory size is smaller than virtual memory size.

*** ChampSim Multicore Out-of-Order Simulator ***
Warmup Instructions: 25000000
Simulation Instructions: 100000000
Number of CPUs: 1
Page size: 4096

Off-chip DRAM Size: 4 GiB Channels: 1 Width: 64-bit Data Race: 3200 MT/s
Heartbeat CPU 0 instructions: 10000002 cycles: 2738910 heartbeat IPC: 3.651 cumulative IPC: 3.651 (Simulation time: 00 hr 00 min 22 sec)
Heartbeat CPU 0 instructions: 20000002 cycles: 5467734 heartbeat IPC: 3.665 cumulative IPC: 3.658 (Simulation time: 00 hr 00 min 45 sec)
Warmup finished CPU 0 instructions: 25000002 cycles: 6835955 cumulative IPC: 3.657 (Simulation time: 00 hr 00 min 57 sec)
Warmup complete CPU 0 instructions: 25000002 cycles: 6835955 cumulative IPC: 3.657 (Simulation time: 00 hr 00 min 57 sec)
Heartbeat CPU 0 instructions: 30000002 cycles: 15867256 heartbeat IPC: 0.9616 cumulative IPC: 0.5536 (Simulation time: 00 hr 01 min 35 sec)
*** Reached end of trace: (0, "../traces/public_traces/srv/srv_76.champsimtrace.xz")
Heartbeat CPU 0 instructions: 40000002 cycles: 34930598 heartbeat IPC: 0.5246 cumulative IPC: 0.5339 (Simulation time: 00 hr 02 min 56 sec)
Heartbeat CPU 0 instructions: 50000000 cycles: 54036924 heartbeat IPC: 0.5234 cumulative IPC: 0.5297 (Simulation time: 00 hr 04 min 17 sec)
Heartbeat CPU 0 instructions: 60000001 cycles: 72731374 heartbeat IPC: 0.5349 cumulative IPC: 0.5311 (Simulation time: 00 hr 05 min 37 sec)
*** Reached end of trace: (0, "../traces/public_traces/srv/srv_76.champsimtrace.xz")
Heartbeat CPU 0 instructions: 70000000 cycles: 91617613 heartbeat IPC: 0.5295 cumulative IPC: 0.5308 (Simulation time: 00 hr 06 min 57 sec)
Heartbeat CPU 0 instructions: 80000001 cycles: 110955952 heartbeat IPC: 0.5171 cumulative IPC: 0.5282 (Simulation time: 00 hr 08 min 19 sec)
Heartbeat CPU 0 instructions: 90000000 cycles: 129757201 heartbeat IPC: 0.5319 cumulative IPC: 0.5288 (Simulation time: 00 hr 09 min 39 sec)
*** Reached end of trace: (0, "../traces/public_traces/srv/srv_76.champsimtrace.xz")
Heartbeat CPU 0 instructions: 100000001 cycles: 148555013 heartbeat IPC: 0.532 cumulative IPC: 0.5292 (Simulation time: 00 hr 10 min 59 sec)
Heartbeat CPU 0 instructions: 110000003 cycles: 167814873 heartbeat IPC: 0.5192 cumulative IPC: 0.528 (Simulation time: 00 hr 12 min 20 sec)
Heartbeat CPU 0 instructions: 120000003 cycles: 186763433 heartbeat IPC: 0.5277 cumulative IPC: 0.528 (Simulation time: 00 hr 13 min 41 sec)
Simulation finished CPU 0 instructions: 100000001 cycles: 189276815 cumulative IPC: 0.5283 (Simulation time: 00 hr 14 min 20 sec)
Simulation complete CPU 0 instructions: 100000001 cycles: 189276815 cumulative IPC: 0.5283 (Simulation time: 00 hr 14 min 20 sec)

ChampSim completed all CPUs

=== Simulation ===
CPU 0 runs ../traces/public_traces/srv/srv_76.champsimtrace.xz
Region of Interest Statistics

CPU 0 cumulative IPC: 0.5283 instructions: 100000001 cycles: 189276815
CPU 0 Branch Prediction Accuracy: 91.67% MPKI: 12.74 Average ROB Occupancy at Mispredict: 29.34
Branch type MPKI
BRANCH_DIRECT_JUMP: 0.0001
BRANCH_INDIRECT: 8.34
BRANCH_CONDITIONAL: 3.77
BRANCH_DIRECT_CALL: 0.0001
BRANCH_INDIRECT_CALL: 0.631
BRANCH_RETURN: 0.00036

LLC TOTAL        ACCESS:    5271190 HIT:    2984967 MISS:    2286223
LLC LOAD         ACCESS:    1395557 HIT:     630462 MISS:     765095
LLC RFO          ACCESS:    1793083 HIT:     289991 MISS:    1503092
LLC PREFETCH     ACCESS:          0 HIT:          0 MISS:          0
LLC WRITE        ACCESS:    2063640 HIT:    2061101 MISS:       2539
LLC TRANSLATION  ACCESS:      18910 HIT:       3413 MISS:      15497
LLC PREFETCH REQUESTED:          0 ISSUED:          0 USEFUL:          0 USELESS:          0
LLC AVERAGE MISS LATENCY: 642.1 cycles
cpu0_DTLB TOTAL        ACCESS:   25466640 HIT:   24066011 MISS:    1400629
cpu0_DTLB LOAD         ACCESS:   25466640 HIT:   24066011 MISS:    1400629
cpu0_DTLB RFO          ACCESS:          0 HIT:          0 MISS:          0
cpu0_DTLB PREFETCH     ACCESS:          0 HIT:          0 MISS:          0
cpu0_DTLB WRITE        ACCESS:          0 HIT:          0 MISS:          0
cpu0_DTLB TRANSLATION  ACCESS:          0 HIT:          0 MISS:          0
cpu0_DTLB PREFETCH REQUESTED:          0 ISSUED:          0 USEFUL:          0 USELESS:          0
cpu0_DTLB AVERAGE MISS LATENCY: 8.843 cycles
cpu0_ITLB TOTAL        ACCESS:   10180919 HIT:    8138891 MISS:    2042028
cpu0_ITLB LOAD         ACCESS:   10180919 HIT:    8138891 MISS:    2042028
cpu0_ITLB RFO          ACCESS:          0 HIT:          0 MISS:          0
cpu0_ITLB PREFETCH     ACCESS:          0 HIT:          0 MISS:          0
cpu0_ITLB WRITE        ACCESS:          0 HIT:          0 MISS:          0
cpu0_ITLB TRANSLATION  ACCESS:          0 HIT:          0 MISS:          0
cpu0_ITLB PREFETCH REQUESTED:          0 ISSUED:          0 USEFUL:          0 USELESS:          0
cpu0_ITLB AVERAGE MISS LATENCY: 1.76 cycles
cpu0_L1D TOTAL        ACCESS:   34431796 HIT:   22765320 MISS:   11666476
cpu0_L1D LOAD         ACCESS:   17308200 HIT:   13744379 MISS:    3563821
cpu0_L1D RFO          ACCESS:          0 HIT:          0 MISS:          0
cpu0_L1D PREFETCH     ACCESS:          0 HIT:          0 MISS:          0
cpu0_L1D WRITE        ACCESS:   17079854 HIT:    9006452 MISS:    8073402
cpu0_L1D TRANSLATION  ACCESS:      43742 HIT:      14489 MISS:      29253
cpu0_L1D PREFETCH REQUESTED:          0 ISSUED:          0 USEFUL:          0 USELESS:          0
cpu0_L1D AVERAGE MISS LATENCY: 128.4 cycles
cpu0_L1I TOTAL        ACCESS:   11710739 HIT:    4955248 MISS:    6755491
cpu0_L1I LOAD         ACCESS:   11710739 HIT:    4955248 MISS:    6755491
cpu0_L1I RFO          ACCESS:          0 HIT:          0 MISS:          0
cpu0_L1I PREFETCH     ACCESS:          0 HIT:          0 MISS:          0
cpu0_L1I WRITE        ACCESS:          0 HIT:          0 MISS:          0
cpu0_L1I TRANSLATION  ACCESS:          0 HIT:          0 MISS:          0
cpu0_L1I PREFETCH REQUESTED:          0 ISSUED:          0 USEFUL:          0 USELESS:          0
cpu0_L1I AVERAGE MISS LATENCY: 7.608 cycles
cpu0_L2C TOTAL        ACCESS:   10173671 HIT:    6963183 MISS:    3210488
cpu0_L2C LOAD         ACCESS:    6107975 HIT:    4712418 MISS:    1395557
cpu0_L2C RFO          ACCESS:    1847168 HIT:      54085 MISS:    1793083
cpu0_L2C PREFETCH     ACCESS:          0 HIT:          0 MISS:          0
cpu0_L2C WRITE        ACCESS:    2189385 HIT:    2186447 MISS:       2938
cpu0_L2C TRANSLATION  ACCESS:      29143 HIT:      10233 MISS:      18910
cpu0_L2C PREFETCH REQUESTED:          0 ISSUED:          0 USEFUL:          0 USELESS:          0
cpu0_L2C AVERAGE MISS LATENCY: 478 cycles
cpu0_STLB TOTAL        ACCESS:    1465598 HIT:    1426553 MISS:      39045
cpu0_STLB LOAD         ACCESS:    1465598 HIT:    1426553 MISS:      39045
cpu0_STLB RFO          ACCESS:          0 HIT:          0 MISS:          0
cpu0_STLB PREFETCH     ACCESS:          0 HIT:          0 MISS:          0
cpu0_STLB WRITE        ACCESS:          0 HIT:          0 MISS:          0
cpu0_STLB TRANSLATION  ACCESS:          0 HIT:          0 MISS:          0
cpu0_STLB PREFETCH REQUESTED:          0 ISSUED:          0 USEFUL:          0 USELESS:          0
cpu0_STLB AVERAGE MISS LATENCY: 227 cycles

DRAM Statistics

Channel 0 RQ ROW_BUFFER_HIT:     851355
  ROW_BUFFER_MISS:    1431683
 AVG DBUS CONGESTED CYCLE: 3.977
WQ ROW_BUFFER_HIT: Channel 0 
  ROW_BUFFER_MISS:     163994
  FULL:    1455029
