WARNING: physical memory size is smaller than virtual memory size.

*** ChampSim Multicore Out-of-Order Simulator ***
Warmup Instructions: 25000000
Simulation Instructions: 100000000
Number of CPUs: 1
Page size: 4096

Off-chip DRAM Size: 4 GiB Channels: 1 Width: 64-bit Data Race: 3200 MT/s
Heartbeat CPU 0 instructions: 10000003 cycles: 2500124 heartbeat IPC: 4 cumulative IPC: 4 (Simulation time: 00 hr 00 min 23 sec)
Heartbeat CPU 0 instructions: 20000003 cycles: 5000124 heartbeat IPC: 4 cumulative IPC: 4 (Simulation time: 00 hr 00 min 45 sec)
Warmup finished CPU 0 instructions: 25000003 cycles: 6250125 cumulative IPC: 4 (Simulation time: 00 hr 00 min 57 sec)
Warmup complete CPU 0 instructions: 25000003 cycles: 6250125 cumulative IPC: 4 (Simulation time: 00 hr 00 min 57 sec)
Heartbeat CPU 0 instructions: 30000001 cycles: 14448689 heartbeat IPC: 1.058 cumulative IPC: 0.6099 (Simulation time: 00 hr 01 min 30 sec)
*** Reached end of trace: (0, "../traces/public_traces/srv/srv_24.champsimtrace.xz")
Heartbeat CPU 0 instructions: 40000002 cycles: 30725456 heartbeat IPC: 0.6144 cumulative IPC: 0.6129 (Simulation time: 00 hr 02 min 34 sec)
Heartbeat CPU 0 instructions: 50000003 cycles: 47006193 heartbeat IPC: 0.6142 cumulative IPC: 0.6134 (Simulation time: 00 hr 03 min 39 sec)
Heartbeat CPU 0 instructions: 60000002 cycles: 63295610 heartbeat IPC: 0.6139 cumulative IPC: 0.6135 (Simulation time: 00 hr 04 min 44 sec)
*** Reached end of trace: (0, "../traces/public_traces/srv/srv_24.champsimtrace.xz")
Heartbeat CPU 0 instructions: 70000001 cycles: 79560537 heartbeat IPC: 0.6148 cumulative IPC: 0.6138 (Simulation time: 00 hr 05 min 49 sec)
Heartbeat CPU 0 instructions: 80000000 cycles: 95841304 heartbeat IPC: 0.6142 cumulative IPC: 0.6139 (Simulation time: 00 hr 06 min 54 sec)
Heartbeat CPU 0 instructions: 90000002 cycles: 112130966 heartbeat IPC: 0.6139 cumulative IPC: 0.6139 (Simulation time: 00 hr 07 min 58 sec)
*** Reached end of trace: (0, "../traces/public_traces/srv/srv_24.champsimtrace.xz")
Heartbeat CPU 0 instructions: 100000000 cycles: 128398731 heartbeat IPC: 0.6147 cumulative IPC: 0.614 (Simulation time: 00 hr 09 min 03 sec)
Heartbeat CPU 0 instructions: 110000001 cycles: 144679298 heartbeat IPC: 0.6142 cumulative IPC: 0.614 (Simulation time: 00 hr 10 min 08 sec)
Heartbeat CPU 0 instructions: 120000003 cycles: 160968405 heartbeat IPC: 0.6139 cumulative IPC: 0.614 (Simulation time: 00 hr 11 min 13 sec)
Simulation finished CPU 0 instructions: 100000001 cycles: 162860212 cumulative IPC: 0.614 (Simulation time: 00 hr 11 min 45 sec)
Simulation complete CPU 0 instructions: 100000001 cycles: 162860212 cumulative IPC: 0.614 (Simulation time: 00 hr 11 min 45 sec)

ChampSim completed all CPUs

=== Simulation ===
CPU 0 runs ../traces/public_traces/srv/srv_24.champsimtrace.xz
Region of Interest Statistics

CPU 0 cumulative IPC: 0.614 instructions: 100000001 cycles: 162860212
CPU 0 Branch Prediction Accuracy: 70.63% MPKI: 52.14 Average ROB Occupancy at Mispredict: 3.563
Branch type MPKI
BRANCH_DIRECT_JUMP: 0.538
BRANCH_INDIRECT: 36.2
BRANCH_CONDITIONAL: 10.1
BRANCH_DIRECT_CALL: 1.65
BRANCH_INDIRECT_CALL: 2.29
BRANCH_RETURN: 1.36

LLC TOTAL        ACCESS:     681198 HIT:     679729 MISS:       1469
LLC LOAD         ACCESS:     494612 HIT:     493148 MISS:       1464
LLC RFO          ACCESS:      69072 HIT:      69072 MISS:          0
LLC PREFETCH     ACCESS:          0 HIT:          0 MISS:          0
LLC WRITE        ACCESS:     117187 HIT:     117187 MISS:          0
LLC TRANSLATION  ACCESS:        327 HIT:        322 MISS:          5
LLC PREFETCH REQUESTED:          0 ISSUED:          0 USEFUL:          0 USELESS:          0
LLC AVERAGE MISS LATENCY: 194.9 cycles
cpu0_DTLB TOTAL        ACCESS:   27822347 HIT:   26687801 MISS:    1134546
cpu0_DTLB LOAD         ACCESS:   27822347 HIT:   26687801 MISS:    1134546
cpu0_DTLB RFO          ACCESS:          0 HIT:          0 MISS:          0
cpu0_DTLB PREFETCH     ACCESS:          0 HIT:          0 MISS:          0
cpu0_DTLB WRITE        ACCESS:          0 HIT:          0 MISS:          0
cpu0_DTLB TRANSLATION  ACCESS:          0 HIT:          0 MISS:          0
cpu0_DTLB PREFETCH REQUESTED:          0 ISSUED:          0 USEFUL:          0 USELESS:          0
cpu0_DTLB AVERAGE MISS LATENCY: 6.719 cycles
cpu0_ITLB TOTAL        ACCESS:   12067221 HIT:    9699782 MISS:    2367439
cpu0_ITLB LOAD         ACCESS:   12067221 HIT:    9699782 MISS:    2367439
cpu0_ITLB RFO          ACCESS:          0 HIT:          0 MISS:          0
cpu0_ITLB PREFETCH     ACCESS:          0 HIT:          0 MISS:          0
cpu0_ITLB WRITE        ACCESS:          0 HIT:          0 MISS:          0
cpu0_ITLB TRANSLATION  ACCESS:          0 HIT:          0 MISS:          0
cpu0_ITLB PREFETCH REQUESTED:          0 ISSUED:          0 USEFUL:          0 USELESS:          0
cpu0_ITLB AVERAGE MISS LATENCY: 2.96 cycles
cpu0_L1D TOTAL        ACCESS:   34849412 HIT:   31232356 MISS:    3617056
cpu0_L1D LOAD         ACCESS:   20849983 HIT:   18884694 MISS:    1965289
cpu0_L1D RFO          ACCESS:          0 HIT:          0 MISS:          0
cpu0_L1D PREFETCH     ACCESS:          0 HIT:          0 MISS:          0
cpu0_L1D WRITE        ACCESS:   13998820 HIT:   12347662 MISS:    1651158
cpu0_L1D TRANSLATION  ACCESS:        609 HIT:          0 MISS:        609
cpu0_L1D PREFETCH REQUESTED:          0 ISSUED:          0 USEFUL:          0 USELESS:          0
cpu0_L1D AVERAGE MISS LATENCY: 7.002 cycles
cpu0_L1I TOTAL        ACCESS:   13605481 HIT:    5868046 MISS:    7737435
cpu0_L1I LOAD         ACCESS:   13605481 HIT:    5868046 MISS:    7737435
cpu0_L1I RFO          ACCESS:          0 HIT:          0 MISS:          0
cpu0_L1I PREFETCH     ACCESS:          0 HIT:          0 MISS:          0
cpu0_L1I WRITE        ACCESS:          0 HIT:          0 MISS:          0
cpu0_L1I TRANSLATION  ACCESS:          0 HIT:          0 MISS:          0
cpu0_L1I PREFETCH REQUESTED:          0 ISSUED:          0 USEFUL:          0 USELESS:          0
cpu0_L1I AVERAGE MISS LATENCY: 8.635 cycles
cpu0_L2C TOTAL        ACCESS:    9500946 HIT:    8917580 MISS:     583366
cpu0_L2C LOAD         ACCESS:    7764590 HIT:    7269978 MISS:     494612
cpu0_L2C RFO          ACCESS:     583939 HIT:     514860 MISS:      69079
cpu0_L2C PREFETCH     ACCESS:          0 HIT:          0 MISS:          0
cpu0_L2C WRITE        ACCESS:    1151808 HIT:    1132460 MISS:      19348
cpu0_L2C TRANSLATION  ACCESS:        609 HIT:        282 MISS:        327
cpu0_L2C PREFETCH REQUESTED:          0 ISSUED:          0 USEFUL:          0 USELESS:          0
cpu0_L2C AVERAGE MISS LATENCY: 19.83 cycles
cpu0_STLB TOTAL        ACCESS:    2124937 HIT:    2124328 MISS:        609
cpu0_STLB LOAD         ACCESS:    2124937 HIT:    2124328 MISS:        609
cpu0_STLB RFO          ACCESS:          0 HIT:          0 MISS:          0
cpu0_STLB PREFETCH     ACCESS:          0 HIT:          0 MISS:          0
cpu0_STLB WRITE        ACCESS:          0 HIT:          0 MISS:          0
cpu0_STLB TRANSLATION  ACCESS:          0 HIT:          0 MISS:          0
cpu0_STLB PREFETCH REQUESTED:          0 ISSUED:          0 USEFUL:          0 USELESS:          0
cpu0_STLB AVERAGE MISS LATENCY: 34.23 cycles

DRAM Statistics

Channel 0 RQ ROW_BUFFER_HIT:        637
  ROW_BUFFER_MISS:        832
 AVG DBUS CONGESTED CYCLE: 3.95
WQ ROW_BUFFER_HIT: Channel 0 
  ROW_BUFFER_MISS:          0
  FULL:          0
