WARNING: physical memory size is smaller than virtual memory size.

*** ChampSim Multicore Out-of-Order Simulator ***
Warmup Instructions: 30000000
Simulation Instructions: 100000000
Number of CPUs: 1
Page size: 4096

BTB:
Basic BTB sets: 1024 ways: 8
Indirect:
history lengths: 0 0 10 16 27 44 60 96 109 219 449 487 714 1313 2146 3881 
ITTAGE tables: 64768 bytes;Region table: 240 bytes;IUM: 384 bytes;Total Storage= 65392 bytes;
RAS:
RAS size: 64
[LLC] Demand IPV: 1 2 2 1 4 Prefetch IPV: 1 2 1 1 4
Berti Prefetcher
CPU 0 Entangling prefetcher
Off-chip DRAM Size: 8 GiB Channels: 2 Width: 64-bit Data Race: 6400 MT/s
Heartbeat CPU 0 instructions: 10000002 cycles: 1759559 heartbeat IPC: 5.683 cumulative IPC: 5.683 (Simulation time: 00 hr 00 min 35 sec)
Heartbeat CPU 0 instructions: 20000005 cycles: 3486141 heartbeat IPC: 5.792 cumulative IPC: 5.737 (Simulation time: 00 hr 01 min 11 sec)
Heartbeat CPU 0 instructions: 30000006 cycles: 5158936 heartbeat IPC: 5.978 cumulative IPC: 5.815 (Simulation time: 00 hr 01 min 53 sec)
Warmup finished CPU 0 instructions: 30000006 cycles: 5158937 cumulative IPC: 5.815 (Simulation time: 00 hr 01 min 53 sec)
Warmup complete CPU 0 instructions: 30000006 cycles: 5158937 cumulative IPC: 5.815 (Simulation time: 00 hr 01 min 53 sec)
*** Reached end of trace: (0, "../traces/public_traces/compute_int/compute_int_19.champsimtrace.xz")
Heartbeat CPU 0 instructions: 40000000 cycles: 7837829 heartbeat IPC: 3.733 cumulative IPC: 3.733 (Simulation time: 00 hr 02 min 43 sec)
Heartbeat CPU 0 instructions: 50000003 cycles: 10622626 heartbeat IPC: 3.591 cumulative IPC: 3.661 (Simulation time: 00 hr 03 min 45 sec)
Heartbeat CPU 0 instructions: 60000000 cycles: 12349677 heartbeat IPC: 5.79 cumulative IPC: 4.172 (Simulation time: 00 hr 04 min 44 sec)
*** Reached end of trace: (0, "../traces/public_traces/compute_int/compute_int_19.champsimtrace.xz")
Heartbeat CPU 0 instructions: 70000000 cycles: 14995708 heartbeat IPC: 3.779 cumulative IPC: 4.066 (Simulation time: 00 hr 05 min 39 sec)
Heartbeat CPU 0 instructions: 80000005 cycles: 17763656 heartbeat IPC: 3.613 cumulative IPC: 3.967 (Simulation time: 00 hr 06 min 34 sec)
Heartbeat CPU 0 instructions: 90000000 cycles: 19494826 heartbeat IPC: 5.776 cumulative IPC: 4.185 (Simulation time: 00 hr 07 min 25 sec)
*** Reached end of trace: (0, "../traces/public_traces/compute_int/compute_int_19.champsimtrace.xz")
Heartbeat CPU 0 instructions: 100000008 cycles: 22121847 heartbeat IPC: 3.807 cumulative IPC: 4.127 (Simulation time: 00 hr 08 min 18 sec)
Heartbeat CPU 0 instructions: 110000007 cycles: 24875444 heartbeat IPC: 3.632 cumulative IPC: 4.058 (Simulation time: 00 hr 09 min 13 sec)
Heartbeat CPU 0 instructions: 120000000 cycles: 26611909 heartbeat IPC: 5.759 cumulative IPC: 4.195 (Simulation time: 00 hr 10 min 03 sec)
*** Reached end of trace: (0, "../traces/public_traces/compute_int/compute_int_19.champsimtrace.xz")
Heartbeat CPU 0 instructions: 130000005 cycles: 29223263 heartbeat IPC: 3.829 cumulative IPC: 4.156 (Simulation time: 00 hr 10 min 56 sec)
Simulation finished CPU 0 instructions: 100000011 cycles: 24064328 cumulative IPC: 4.156 (Simulation time: 00 hr 10 min 56 sec)
Simulation complete CPU 0 instructions: 100000011 cycles: 24064328 cumulative IPC: 4.156 (Simulation time: 00 hr 10 min 56 sec)

ChampSim completed all CPUs

=== Simulation ===
CPU 0 runs ../traces/public_traces/compute_int/compute_int_19.champsimtrace.xz
Region of Interest Statistics

CPU 0 cumulative IPC: 4.156 instructions: 100000011 cycles: 24064328
CPU 0 Branch Prediction Accuracy: 96.92% MPKI: 4.33 Average ROB Occupancy at Mispredict: 44.79
Branch type MPKI
BRANCH_DIRECT_JUMP: 0
BRANCH_INDIRECT: 0.492
BRANCH_CONDITIONAL: 3.84
BRANCH_DIRECT_CALL: 0
BRANCH_INDIRECT_CALL: 0
BRANCH_RETURN: 0

LLC TOTAL        ACCESS:     540540 HIT:     539546 MISS:        994
LLC LOAD         ACCESS:       2179 HIT:       2135 MISS:         44
LLC RFO          ACCESS:     128799 HIT:     128642 MISS:        157
LLC PREFETCH     ACCESS:     166917 HIT:     166436 MISS:        481
LLC WRITE        ACCESS:     242637 HIT:     242330 MISS:        307
LLC TRANSLATION  ACCESS:          8 HIT:          3 MISS:          5
LLC PREFETCH REQUESTED:          0 ISSUED:          0 USEFUL:          0 USELESS:          0
LLC AVERAGE MISS LATENCY: 88.3 cycles
cpu0_DTLB TOTAL        ACCESS:   20604300 HIT:   20583978 MISS:      20322
cpu0_DTLB LOAD         ACCESS:   20604300 HIT:   20583978 MISS:      20322
cpu0_DTLB RFO          ACCESS:          0 HIT:          0 MISS:          0
cpu0_DTLB PREFETCH     ACCESS:          0 HIT:          0 MISS:          0
cpu0_DTLB WRITE        ACCESS:          0 HIT:          0 MISS:          0
cpu0_DTLB TRANSLATION  ACCESS:          0 HIT:          0 MISS:          0
cpu0_DTLB PREFETCH REQUESTED:          0 ISSUED:          0 USEFUL:          0 USELESS:          0
cpu0_DTLB AVERAGE MISS LATENCY: 1.613 cycles
cpu0_ITLB TOTAL        ACCESS:      11585 HIT:      11585 MISS:          0
cpu0_ITLB LOAD         ACCESS:      11585 HIT:      11585 MISS:          0
cpu0_ITLB RFO          ACCESS:          0 HIT:          0 MISS:          0
cpu0_ITLB PREFETCH     ACCESS:          0 HIT:          0 MISS:          0
cpu0_ITLB WRITE        ACCESS:          0 HIT:          0 MISS:          0
cpu0_ITLB TRANSLATION  ACCESS:          0 HIT:          0 MISS:          0
cpu0_ITLB PREFETCH REQUESTED:          0 ISSUED:          0 USEFUL:          0 USELESS:          0
cpu0_ITLB AVERAGE MISS LATENCY: -nan cycles
cpu0_L1D TOTAL        ACCESS:   36139338 HIT:   33637440 MISS:    2501898
cpu0_L1D LOAD         ACCESS:   17324375 HIT:   17025100 MISS:     299275
cpu0_L1D RFO          ACCESS:          0 HIT:          0 MISS:          0
cpu0_L1D PREFETCH     ACCESS:    2575847 HIT:    1841130 MISS:     734717
cpu0_L1D WRITE        ACCESS:   16239108 HIT:   14771210 MISS:    1467898
cpu0_L1D TRANSLATION  ACCESS:          8 HIT:          0 MISS:          8
cpu0_L1D PREFETCH REQUESTED:   23567585 ISSUED:    2575817 USEFUL:     175415 USELESS:      10827
cpu0_L1D AVERAGE MISS LATENCY: 2.044 cycles
cpu0_L1I TOTAL        ACCESS:      17188 HIT:      16901 MISS:        287
cpu0_L1I LOAD         ACCESS:       8077 HIT:       7910 MISS:        167
cpu0_L1I RFO          ACCESS:          0 HIT:          0 MISS:          0
cpu0_L1I PREFETCH     ACCESS:       9111 HIT:       8991 MISS:        120
cpu0_L1I WRITE        ACCESS:          0 HIT:          0 MISS:          0
cpu0_L1I TRANSLATION  ACCESS:          0 HIT:          0 MISS:          0
cpu0_L1I PREFETCH REQUESTED:      13100 ISSUED:       9111 USEFUL:         76 USELESS:          6
cpu0_L1I AVERAGE MISS LATENCY: 17.45 cycles
cpu0_L2C TOTAL        ACCESS:    1991242 HIT:    1569392 MISS:     421850
cpu0_L2C LOAD         ACCESS:      72825 HIT:      70326 MISS:       2499
cpu0_L2C RFO          ACCESS:     140363 HIT:      11564 MISS:     128799
cpu0_L2C PREFETCH     ACCESS:    1510622 HIT:    1220119 MISS:     290503
cpu0_L2C WRITE        ACCESS:     267424 HIT:     267383 MISS:         41
cpu0_L2C TRANSLATION  ACCESS:          8 HIT:          0 MISS:          8
cpu0_L2C PREFETCH REQUESTED:     792796 ISSUED:     790650 USEFUL:      77489 USELESS:       8730
cpu0_L2C AVERAGE MISS LATENCY: 14.37 cycles
cpu0_STLB TOTAL        ACCESS:       8395 HIT:       8387 MISS:          8
cpu0_STLB LOAD         ACCESS:       8395 HIT:       8387 MISS:          8
cpu0_STLB RFO          ACCESS:          0 HIT:          0 MISS:          0
cpu0_STLB PREFETCH     ACCESS:          0 HIT:          0 MISS:          0
cpu0_STLB WRITE        ACCESS:          0 HIT:          0 MISS:          0
cpu0_STLB TRANSLATION  ACCESS:          0 HIT:          0 MISS:          0
cpu0_STLB PREFETCH REQUESTED:          0 ISSUED:          0 USEFUL:          0 USELESS:          0
cpu0_STLB AVERAGE MISS LATENCY: 262.4 cycles

DRAM Statistics

Channel 0 RQ ROW_BUFFER_HIT:        122
  ROW_BUFFER_MISS:        263
 AVG DBUS CONGESTED CYCLE: 3.803
WQ ROW_BUFFER_HIT: Channel 0 
  ROW_BUFFER_MISS:         15
  FULL:        286

Channel 1 RQ ROW_BUFFER_HIT:         94
  ROW_BUFFER_MISS:        208
 AVG DBUS CONGESTED CYCLE: 3.583
WQ ROW_BUFFER_HIT: Channel 1 
  ROW_BUFFER_MISS:         15
  FULL:        202
BERTI TO_L1: 23855023 TO_L2: 7229991 TO_L2_BC_MSHR: 12401
BERTI AVG_LAT: 78.8227 NUM_TRACK_LATENCY: 345095 NUM_CANT_TRACK_LATENCY: 0
BERTI CROSS_PAGE 3866793 NO_CROSS_PAGE: 27218221
BERTI FOUND_BERTI: 7530951 NO_FOUND_BERTI: 14343345
BERTI AVERAGE_ISSUED: 1.79477
CPU 0 L1I Entangling prefetcher final stats
IP accesses: 1dc 7700 193 / 8077
IP misses: 187 61c0 33 / 167
IP hits: 0 0 0 / 0
IP late: 30c7 c31c0 10 / 65
IP wrong: c7 31c0 3 / 6
miss rate: 0.020676
coverage: 0
coverage_late: 0.389222
accuracy: 0
accuracy_late: 0.915493
discarded: 0
evicts entangled j table: 0
evicts entangled k table: 4
max bb size: 11
formats: 3 0 4 1 3 1 0 
hist_lookups: 0 2 2 2 4 2 3 0 0 1 0 4 1 0 0 0 0 270 
hist_lookups_evict: 0 %
hist_lookups_shortlat: 92.7836 %
bb_found_hist: 0 1805 522 461 108 59 66 31 28 0 0 10 0 0 0 0 0 0 0 0 0 0 0 0 0 0 0 0 0 0 0 0 0 0 0 0 0 0 0 0 0 0 0 0 0 0 0 0 0 0 0 0 0 0 0 0 0 0 0 0 0 0 0 0 
bb_found_summary: 5906 3090 1.91133
entangled_found_hist: 0 946 390 249 34 0 0 0 
entangled_found_summary: 2609 1619 1.61149
bb_ent_found_hist: 0 862 429 262 80 10 264 0 28 0 0 10 0 0 0 0 0 0 0 0 0 0 0 0 0 0 0 0 0 0 0 0 0 0 0 0 0 0 0 0 0 0 0 0 0 0 0 0 0 0 0 0 0 0 0 0 0 0 0 0 0 0 0 0 
bb_ent_found_summary: 4794 1945 2.46479
