WARNING: physical memory size is smaller than virtual memory size.

*** ChampSim Multicore Out-of-Order Simulator ***
Warmup Instructions: 30000000
Simulation Instructions: 100000000
Number of CPUs: 1
Page size: 4096

BTB:
Basic BTB sets: 1024 ways: 8
Indirect:
history lengths: 0 0 10 16 27 44 60 96 109 219 449 487 714 1313 2146 3881 
ITTAGE tables: 64768 bytes;Region table: 240 bytes;IUM: 384 bytes;Total Storage= 65392 bytes;
RAS:
RAS size: 64
[LLC] Demand IPV: 1 2 2 1 4 Prefetch IPV: 1 2 1 1 4
Berti Prefetcher
CPU 0 Entangling prefetcher
Off-chip DRAM Size: 8 GiB Channels: 2 Width: 64-bit Data Race: 6400 MT/s
Heartbeat CPU 0 instructions: 10000000 cycles: 1770763 heartbeat IPC: 5.647 cumulative IPC: 5.647 (Simulation time: 00 hr 00 min 39 sec)
Heartbeat CPU 0 instructions: 20000000 cycles: 3605176 heartbeat IPC: 5.451 cumulative IPC: 5.548 (Simulation time: 00 hr 01 min 28 sec)
Heartbeat CPU 0 instructions: 30000003 cycles: 5822903 heartbeat IPC: 4.509 cumulative IPC: 5.152 (Simulation time: 00 hr 02 min 35 sec)
Warmup finished CPU 0 instructions: 30000003 cycles: 5822904 cumulative IPC: 5.152 (Simulation time: 00 hr 02 min 35 sec)
Warmup complete CPU 0 instructions: 30000003 cycles: 5822904 cumulative IPC: 5.152 (Simulation time: 00 hr 02 min 35 sec)
*** Reached end of trace: (0, "../traces/public_traces/compute_int/compute_int_27.champsimtrace.xz")
Heartbeat CPU 0 instructions: 40000004 cycles: 11287455 heartbeat IPC: 1.83 cumulative IPC: 1.83 (Simulation time: 00 hr 04 min 13 sec)
Heartbeat CPU 0 instructions: 50000005 cycles: 20575942 heartbeat IPC: 1.077 cumulative IPC: 1.356 (Simulation time: 00 hr 06 min 19 sec)
Heartbeat CPU 0 instructions: 60000006 cycles: 29221007 heartbeat IPC: 1.157 cumulative IPC: 1.282 (Simulation time: 00 hr 08 min 45 sec)
*** Reached end of trace: (0, "../traces/public_traces/compute_int/compute_int_27.champsimtrace.xz")
Heartbeat CPU 0 instructions: 70000000 cycles: 34789861 heartbeat IPC: 1.796 cumulative IPC: 1.381 (Simulation time: 00 hr 10 min 36 sec)
Heartbeat CPU 0 instructions: 80000008 cycles: 43752957 heartbeat IPC: 1.116 cumulative IPC: 1.318 (Simulation time: 00 hr 12 min 52 sec)
Heartbeat CPU 0 instructions: 90000009 cycles: 52546040 heartbeat IPC: 1.137 cumulative IPC: 1.284 (Simulation time: 00 hr 15 min 33 sec)
*** Reached end of trace: (0, "../traces/public_traces/compute_int/compute_int_27.champsimtrace.xz")
Heartbeat CPU 0 instructions: 100000009 cycles: 58190993 heartbeat IPC: 1.771 cumulative IPC: 1.337 (Simulation time: 00 hr 17 min 25 sec)
Heartbeat CPU 0 instructions: 110000008 cycles: 66962562 heartbeat IPC: 1.14 cumulative IPC: 1.308 (Simulation time: 00 hr 19 min 28 sec)
Heartbeat CPU 0 instructions: 120000001 cycles: 75756016 heartbeat IPC: 1.137 cumulative IPC: 1.287 (Simulation time: 00 hr 22 min 04 sec)
*** Reached end of trace: (0, "../traces/public_traces/compute_int/compute_int_27.champsimtrace.xz")
Heartbeat CPU 0 instructions: 130000003 cycles: 81466362 heartbeat IPC: 1.751 cumulative IPC: 1.322 (Simulation time: 00 hr 24 min 00 sec)
Simulation finished CPU 0 instructions: 100000000 cycles: 75643459 cumulative IPC: 1.322 (Simulation time: 00 hr 24 min 00 sec)
Simulation complete CPU 0 instructions: 100000000 cycles: 75643459 cumulative IPC: 1.322 (Simulation time: 00 hr 24 min 00 sec)

ChampSim completed all CPUs

=== Simulation ===
CPU 0 runs ../traces/public_traces/compute_int/compute_int_27.champsimtrace.xz
Region of Interest Statistics

CPU 0 cumulative IPC: 1.322 instructions: 100000000 cycles: 75643459
CPU 0 Branch Prediction Accuracy: 99.43% MPKI: 1.439 Average ROB Occupancy at Mispredict: 272.3
Branch type MPKI
BRANCH_DIRECT_JUMP: 0
BRANCH_INDIRECT: 0.337
BRANCH_CONDITIONAL: 1.1
BRANCH_DIRECT_CALL: 0
BRANCH_INDIRECT_CALL: 1e-05
BRANCH_RETURN: 0.0001

LLC TOTAL        ACCESS:    3936229 HIT:     348753 MISS:    3587476
LLC LOAD         ACCESS:    1604950 HIT:     122548 MISS:    1482402
LLC RFO          ACCESS:      14528 HIT:       3382 MISS:      11146
LLC PREFETCH     ACCESS:    1494030 HIT:      48163 MISS:    1445867
LLC WRITE        ACCESS:     723181 HIT:     174498 MISS:     548683
LLC TRANSLATION  ACCESS:      99540 HIT:        162 MISS:      99378
LLC PREFETCH REQUESTED:          0 ISSUED:          0 USEFUL:          0 USELESS:          0
LLC AVERAGE MISS LATENCY: 182.1 cycles
cpu0_DTLB TOTAL        ACCESS:   16920539 HIT:   16185770 MISS:     734769
cpu0_DTLB LOAD         ACCESS:   16920539 HIT:   16185770 MISS:     734769
cpu0_DTLB RFO          ACCESS:          0 HIT:          0 MISS:          0
cpu0_DTLB PREFETCH     ACCESS:          0 HIT:          0 MISS:          0
cpu0_DTLB WRITE        ACCESS:          0 HIT:          0 MISS:          0
cpu0_DTLB TRANSLATION  ACCESS:          0 HIT:          0 MISS:          0
cpu0_DTLB PREFETCH REQUESTED:          0 ISSUED:          0 USEFUL:          0 USELESS:          0
cpu0_DTLB AVERAGE MISS LATENCY: 59.23 cycles
cpu0_ITLB TOTAL        ACCESS:       3421 HIT:       3421 MISS:          0
cpu0_ITLB LOAD         ACCESS:       3421 HIT:       3421 MISS:          0
cpu0_ITLB RFO          ACCESS:          0 HIT:          0 MISS:          0
cpu0_ITLB PREFETCH     ACCESS:          0 HIT:          0 MISS:          0
cpu0_ITLB WRITE        ACCESS:          0 HIT:          0 MISS:          0
cpu0_ITLB TRANSLATION  ACCESS:          0 HIT:          0 MISS:          0
cpu0_ITLB PREFETCH REQUESTED:          0 ISSUED:          0 USEFUL:          0 USELESS:          0
cpu0_ITLB AVERAGE MISS LATENCY: -nan cycles
cpu0_L1D TOTAL        ACCESS:   27528920 HIT:   20737022 MISS:    6791898
cpu0_L1D LOAD         ACCESS:   12221173 HIT:    8995310 MISS:    3225863
cpu0_L1D RFO          ACCESS:          0 HIT:          0 MISS:          0
cpu0_L1D PREFETCH     ACCESS:    6577829 HIT:    3221377 MISS:    3356452
cpu0_L1D WRITE        ACCESS:    8460991 HIT:    8386792 MISS:      74199
cpu0_L1D TRANSLATION  ACCESS:     268927 HIT:     133543 MISS:     135384
cpu0_L1D PREFETCH REQUESTED:   59375785 ISSUED:    6577799 USEFUL:     301335 USELESS:      76266
cpu0_L1D AVERAGE MISS LATENCY: 64.63 cycles
cpu0_L1I TOTAL        ACCESS:       4978 HIT:       4616 MISS:        362
cpu0_L1I LOAD         ACCESS:       2376 HIT:       2187 MISS:        189
cpu0_L1I RFO          ACCESS:          0 HIT:          0 MISS:          0
cpu0_L1I PREFETCH     ACCESS:       2602 HIT:       2429 MISS:        173
cpu0_L1I WRITE        ACCESS:          0 HIT:          0 MISS:          0
cpu0_L1I TRANSLATION  ACCESS:          0 HIT:          0 MISS:          0
cpu0_L1I PREFETCH REQUESTED:       2868 ISSUED:       2602 USEFUL:        128 USELESS:          0
cpu0_L1I AVERAGE MISS LATENCY: 189.3 cycles
cpu0_L2C TOTAL        ACCESS:   10892954 HIT:    4358419 MISS:    6534535
cpu0_L2C LOAD         ACCESS:    2095363 HIT:     169681 MISS:    1925682
cpu0_L2C RFO          ACCESS:      47003 HIT:      30538 MISS:      16465
cpu0_L2C PREFETCH     ACCESS:    7862410 HIT:    3369599 MISS:    4492811
cpu0_L2C WRITE        ACCESS:     757557 HIT:     757521 MISS:         36
cpu0_L2C TRANSLATION  ACCESS:     130621 HIT:      31080 MISS:      99541
cpu0_L2C PREFETCH REQUESTED:    4979818 ISSUED:    4978014 USEFUL:     623836 USELESS:     547819
cpu0_L2C AVERAGE MISS LATENCY: 107.6 cycles
cpu0_STLB TOTAL        ACCESS:     277562 HIT:      12383 MISS:     265179
cpu0_STLB LOAD         ACCESS:     277562 HIT:      12383 MISS:     265179
cpu0_STLB RFO          ACCESS:          0 HIT:          0 MISS:          0
cpu0_STLB PREFETCH     ACCESS:          0 HIT:          0 MISS:          0
cpu0_STLB WRITE        ACCESS:          0 HIT:          0 MISS:          0
cpu0_STLB TRANSLATION  ACCESS:          0 HIT:          0 MISS:          0
cpu0_STLB PREFETCH REQUESTED:          0 ISSUED:          0 USEFUL:          0 USELESS:          0
cpu0_STLB AVERAGE MISS LATENCY: 179.6 cycles

DRAM Statistics

Channel 0 RQ ROW_BUFFER_HIT:     791417
  ROW_BUFFER_MISS:     735705
 AVG DBUS CONGESTED CYCLE: 3.926
WQ ROW_BUFFER_HIT: Channel 0 
  ROW_BUFFER_MISS:       5135
  FULL:     273675

Channel 1 RQ ROW_BUFFER_HIT:     784338
  ROW_BUFFER_MISS:     727225
 AVG DBUS CONGESTED CYCLE: 3.913
WQ ROW_BUFFER_HIT: Channel 1 
  ROW_BUFFER_MISS:       5373
  FULL:     274204
BERTI TO_L1: 3994565 TO_L2: 59259746 TO_L2_BC_MSHR: 15065455
BERTI AVG_LAT: 142.099 NUM_TRACK_LATENCY: 3260307 NUM_CANT_TRACK_LATENCY: 0
BERTI CROSS_PAGE 6662380 NO_CROSS_PAGE: 56591931
BERTI FOUND_BERTI: 19125581 NO_FOUND_BERTI: 9910160
BERTI AVERAGE_ISSUED: 4.99624
CPU 0 L1I Entangling prefetcher final stats
IP accesses: 4119 104640 30 / 2376
IP misses: 3f12 fc480 13 / 189
IP hits: 0 0 0 / 0
IP late: 162e 58b80 3 / 100
IP wrong: 0 0 0 / 0
miss rate: 0.0795455
coverage: 0
coverage_late: 0.529101
accuracy: 0
accuracy_late: 1
discarded: 0
evicts entangled j table: 0
evicts entangled k table: 0
max bb size: 9
formats: 1 0 7 0 2 3 0 
hist_lookups: 0 0 1 3 1 2 1 0 1 3 1 2 0 0 0 0 0 230 
hist_lookups_evict: 0 %
hist_lookups_shortlat: 93.8776 %
bb_found_hist: 0 443 205 70 33 25 3 3 0 3 0 0 0 0 0 0 0 0 0 0 0 0 0 0 0 0 0 0 0 0 0 0 0 0 0 0 0 0 0 0 0 0 0 0 0 0 0 0 0 0 0 0 0 0 0 0 0 0 0 0 0 0 0 0 
bb_found_summary: 1386 785 1.76561
entangled_found_hist: 0 136 76 121 18 0 6 0 
entangled_found_summary: 759 357 2.12606
bb_ent_found_hist: 0 229 122 93 8 19 0 6 0 3 0 0 0 0 0 0 0 0 0 0 0 0 0 0 0 0 0 0 0 0 0 0 0 0 0 0 0 0 0 0 0 0 0 0 0 0 0 0 0 0 0 0 0 0 0 0 0 0 0 0 0 0 0 0 
bb_ent_found_summary: 948 480 1.97501
