WARNING: physical memory size is smaller than virtual memory size.

*** ChampSim Multicore Out-of-Order Simulator ***
Warmup Instructions: 30000000
Simulation Instructions: 100000000
Number of CPUs: 1
Page size: 4096

BTB:
Basic BTB sets: 1024 ways: 8
Indirect:
history lengths: 0 0 10 16 27 44 60 96 109 219 449 487 714 1313 2146 3881 
ITTAGE tables: 64768 bytes;Region table: 240 bytes;IUM: 384 bytes;Total Storage= 65392 bytes;
RAS:
RAS size: 64
[LLC] Demand IPV: 1 2 2 1 4 Prefetch IPV: 1 2 1 1 4
Berti Prefetcher
CPU 0 Entangling prefetcher
Off-chip DRAM Size: 8 GiB Channels: 2 Width: 64-bit Data Race: 6400 MT/s
Heartbeat CPU 0 instructions: 10000011 cycles: 2121529 heartbeat IPC: 4.714 cumulative IPC: 4.714 (Simulation time: 00 hr 00 min 57 sec)
Heartbeat CPU 0 instructions: 20000005 cycles: 4293527 heartbeat IPC: 4.604 cumulative IPC: 4.658 (Simulation time: 00 hr 01 min 51 sec)
Heartbeat CPU 0 instructions: 30000004 cycles: 6444399 heartbeat IPC: 4.649 cumulative IPC: 4.655 (Simulation time: 00 hr 02 min 45 sec)
Warmup finished CPU 0 instructions: 30000004 cycles: 6444400 cumulative IPC: 4.655 (Simulation time: 00 hr 02 min 45 sec)
Warmup complete CPU 0 instructions: 30000004 cycles: 6444400 cumulative IPC: 4.655 (Simulation time: 00 hr 02 min 45 sec)
*** Reached end of trace: (0, "../traces/public_traces/compute_int/compute_int_31.champsimtrace.xz")
Heartbeat CPU 0 instructions: 40000003 cycles: 12422542 heartbeat IPC: 1.673 cumulative IPC: 1.673 (Simulation time: 00 hr 04 min 24 sec)
Heartbeat CPU 0 instructions: 50000000 cycles: 16917536 heartbeat IPC: 2.225 cumulative IPC: 1.91 (Simulation time: 00 hr 05 min 45 sec)
Heartbeat CPU 0 instructions: 60000001 cycles: 22487316 heartbeat IPC: 1.795 cumulative IPC: 1.87 (Simulation time: 00 hr 07 min 10 sec)
*** Reached end of trace: (0, "../traces/public_traces/compute_int/compute_int_31.champsimtrace.xz")
Heartbeat CPU 0 instructions: 70000011 cycles: 28324310 heartbeat IPC: 1.713 cumulative IPC: 1.828 (Simulation time: 00 hr 08 min 51 sec)
Heartbeat CPU 0 instructions: 80000003 cycles: 32949724 heartbeat IPC: 2.162 cumulative IPC: 1.886 (Simulation time: 00 hr 10 min 13 sec)
Heartbeat CPU 0 instructions: 90000004 cycles: 38525431 heartbeat IPC: 1.793 cumulative IPC: 1.87 (Simulation time: 00 hr 11 min 44 sec)
*** Reached end of trace: (0, "../traces/public_traces/compute_int/compute_int_31.champsimtrace.xz")
Heartbeat CPU 0 instructions: 100000006 cycles: 44189253 heartbeat IPC: 1.766 cumulative IPC: 1.855 (Simulation time: 00 hr 13 min 19 sec)
Heartbeat CPU 0 instructions: 110000005 cycles: 48876777 heartbeat IPC: 2.133 cumulative IPC: 1.885 (Simulation time: 00 hr 14 min 43 sec)
Heartbeat CPU 0 instructions: 120000001 cycles: 54482633 heartbeat IPC: 1.784 cumulative IPC: 1.874 (Simulation time: 00 hr 16 min 13 sec)
*** Reached end of trace: (0, "../traces/public_traces/compute_int/compute_int_31.champsimtrace.xz")
Heartbeat CPU 0 instructions: 130000004 cycles: 60047843 heartbeat IPC: 1.797 cumulative IPC: 1.866 (Simulation time: 00 hr 17 min 48 sec)
Simulation finished CPU 0 instructions: 100000000 cycles: 53603444 cumulative IPC: 1.866 (Simulation time: 00 hr 17 min 48 sec)
Simulation complete CPU 0 instructions: 100000000 cycles: 53603444 cumulative IPC: 1.866 (Simulation time: 00 hr 17 min 48 sec)

ChampSim completed all CPUs

=== Simulation ===
CPU 0 runs ../traces/public_traces/compute_int/compute_int_31.champsimtrace.xz
Region of Interest Statistics

CPU 0 cumulative IPC: 1.866 instructions: 100000000 cycles: 53603444
CPU 0 Branch Prediction Accuracy: 97.52% MPKI: 6.094 Average ROB Occupancy at Mispredict: 68.35
Branch type MPKI
BRANCH_DIRECT_JUMP: 0
BRANCH_INDIRECT: 5
BRANCH_CONDITIONAL: 1.09
BRANCH_DIRECT_CALL: 0
BRANCH_INDIRECT_CALL: 0.00542
BRANCH_RETURN: 0.00023

LLC TOTAL        ACCESS:    2355260 HIT:    1432387 MISS:     922873
LLC LOAD         ACCESS:     541873 HIT:     306313 MISS:     235560
LLC RFO          ACCESS:     172670 HIT:      53578 MISS:     119092
LLC PREFETCH     ACCESS:    1141375 HIT:     749594 MISS:     391781
LLC WRITE        ACCESS:     474075 HIT:     321058 MISS:     153017
LLC TRANSLATION  ACCESS:      25267 HIT:       1844 MISS:      23423
LLC PREFETCH REQUESTED:          0 ISSUED:          0 USEFUL:          0 USELESS:          0
LLC AVERAGE MISS LATENCY: 200.2 cycles
cpu0_DTLB TOTAL        ACCESS:   20752413 HIT:   20267404 MISS:     485009
cpu0_DTLB LOAD         ACCESS:   20752413 HIT:   20267404 MISS:     485009
cpu0_DTLB RFO          ACCESS:          0 HIT:          0 MISS:          0
cpu0_DTLB PREFETCH     ACCESS:          0 HIT:          0 MISS:          0
cpu0_DTLB WRITE        ACCESS:          0 HIT:          0 MISS:          0
cpu0_DTLB TRANSLATION  ACCESS:          0 HIT:          0 MISS:          0
cpu0_DTLB PREFETCH REQUESTED:          0 ISSUED:          0 USEFUL:          0 USELESS:          0
cpu0_DTLB AVERAGE MISS LATENCY: 15.15 cycles
cpu0_ITLB TOTAL        ACCESS:    1396028 HIT:    1396028 MISS:          0
cpu0_ITLB LOAD         ACCESS:    1396028 HIT:    1396028 MISS:          0
cpu0_ITLB RFO          ACCESS:          0 HIT:          0 MISS:          0
cpu0_ITLB PREFETCH     ACCESS:          0 HIT:          0 MISS:          0
cpu0_ITLB WRITE        ACCESS:          0 HIT:          0 MISS:          0
cpu0_ITLB TRANSLATION  ACCESS:          0 HIT:          0 MISS:          0
cpu0_ITLB PREFETCH REQUESTED:          0 ISSUED:          0 USEFUL:          0 USELESS:          0
cpu0_ITLB AVERAGE MISS LATENCY: -nan cycles
cpu0_L1D TOTAL        ACCESS:   35359349 HIT:   27403230 MISS:    7956119
cpu0_L1D LOAD         ACCESS:   17380137 HIT:   14178076 MISS:    3202061
cpu0_L1D RFO          ACCESS:          0 HIT:          0 MISS:          0
cpu0_L1D PREFETCH     ACCESS:   11289801 HIT:    7230226 MISS:    4059575
cpu0_L1D WRITE        ACCESS:    6649400 HIT:    5989016 MISS:     660384
cpu0_L1D TRANSLATION  ACCESS:      40011 HIT:       5912 MISS:      34099
cpu0_L1D PREFETCH REQUESTED:   23739017 ISSUED:   11289809 USEFUL:     505230 USELESS:     266925
cpu0_L1D AVERAGE MISS LATENCY: 18.35 cycles
cpu0_L1I TOTAL        ACCESS:    2136856 HIT:    2129375 MISS:       7481
cpu0_L1I LOAD         ACCESS:     598743 HIT:     597005 MISS:       1738
cpu0_L1I RFO          ACCESS:          0 HIT:          0 MISS:          0
cpu0_L1I PREFETCH     ACCESS:    1538113 HIT:    1532370 MISS:       5743
cpu0_L1I WRITE        ACCESS:          0 HIT:          0 MISS:          0
cpu0_L1I TRANSLATION  ACCESS:          0 HIT:          0 MISS:          0
cpu0_L1I PREFETCH REQUESTED:    2808481 ISSUED:    1538113 USEFUL:       4485 USELESS:        679
cpu0_L1I AVERAGE MISS LATENCY: 226 cycles
cpu0_L2C TOTAL        ACCESS:   11163315 HIT:    8640519 MISS:    2522796
cpu0_L2C LOAD         ACCESS:    2023159 HIT:    1442919 MISS:     580240
cpu0_L2C RFO          ACCESS:     277240 HIT:      97978 MISS:     179262
cpu0_L2C PREFETCH     ACCESS:    8197960 HIT:    6460230 MISS:    1737730
cpu0_L2C WRITE        ACCESS:     630960 HIT:     630663 MISS:        297
cpu0_L2C TRANSLATION  ACCESS:      33996 HIT:       8729 MISS:      25267
cpu0_L2C PREFETCH REQUESTED:    5624130 ISSUED:    4615850 USEFUL:     332524 USELESS:     345516
cpu0_L2C AVERAGE MISS LATENCY: 86.72 cycles
cpu0_STLB TOTAL        ACCESS:     297594 HIT:     268605 MISS:      28989
cpu0_STLB LOAD         ACCESS:     297594 HIT:     268605 MISS:      28989
cpu0_STLB RFO          ACCESS:          0 HIT:          0 MISS:          0
cpu0_STLB PREFETCH     ACCESS:          0 HIT:          0 MISS:          0
cpu0_STLB WRITE        ACCESS:          0 HIT:          0 MISS:          0
cpu0_STLB TRANSLATION  ACCESS:          0 HIT:          0 MISS:          0
cpu0_STLB PREFETCH REQUESTED:          0 ISSUED:          0 USEFUL:          0 USELESS:          0
cpu0_STLB AVERAGE MISS LATENCY: 223.3 cycles

DRAM Statistics

Channel 0 RQ ROW_BUFFER_HIT:      94104
  ROW_BUFFER_MISS:     293611
 AVG DBUS CONGESTED CYCLE: 3.88
WQ ROW_BUFFER_HIT: Channel 0 
  ROW_BUFFER_MISS:      19567
  FULL:      97887

Channel 1 RQ ROW_BUFFER_HIT:      93321
  ROW_BUFFER_MISS:     288498
 AVG DBUS CONGESTED CYCLE: 3.876
WQ ROW_BUFFER_HIT: Channel 1 
  ROW_BUFFER_MISS:      19099
  FULL:      97261
BERTI TO_L1: 14472922 TO_L2: 17131931 TO_L2_BC_MSHR: 1453026
BERTI AVG_LAT: 43.8508 NUM_TRACK_LATENCY: 3609313 NUM_CANT_TRACK_LATENCY: 31
BERTI CROSS_PAGE 8215474 NO_CROSS_PAGE: 23389379
BERTI FOUND_BERTI: 11933995 NO_FOUND_BERTI: 11556188
BERTI AVERAGE_ISSUED: 3.95431
CPU 0 L1I Entangling prefetcher final stats
IP accesses: 3ebe faf80 17577 / 601687
IP misses: 46a1 11a840 245 / 4682
IP hits: 0 0 0 / 0
IP late: 253c 94f00 24 / 1011
IP wrong: 3f78 fde00 16 / 675
miss rate: 0.00778146
coverage: 0
coverage_late: 0.215934
accuracy: 0
accuracy_late: 0.599645
discarded: 0
evicts entangled j table: 0
evicts entangled k table: 204
max bb size: 18
formats: 67 0 200 37 21 62 0 
hist_lookups: 69 100 118 94 73 80 74 62 60 36 35 28 20 9 5 0 0 581 
hist_lookups_evict: 0 %
hist_lookups_shortlat: 40.2355 %
bb_found_hist: 0 85604 71120 47156 46883 20826 18221 15554 14478 15084 16 14883 4569 2865 0 0 2040 0 3240 0 0 0 0 0 0 0 0 0 0 0 0 0 0 0 0 0 0 0 0 0 0 0 0 0 0 0 0 0 0 0 0 0 0 0 0 0 0 0 0 0 0 0 0 0 
bb_found_summary: 1477664 362539 4.07588
entangled_found_hist: 0 55438 37743 67789 3488 3781 0 0 
entangled_found_summary: 367148 168239 2.18231
bb_ent_found_hist: 0 112893 67816 36103 27344 23833 1238 6379 6919 15688 0 0 6269 0 0 0 2197 0 1272 0 0 0 0 0 0 0 0 0 0 0 0 0 0 0 0 0 0 0 0 0 0 0 0 0 0 0 0 0 0 0 0 0 0 0 0 0 0 0 0 0 0 0 0 0 
bb_ent_found_summary: 967276 307951 3.14101
