WARNING: physical memory size is smaller than virtual memory size.

*** ChampSim Multicore Out-of-Order Simulator ***
Warmup Instructions: 30000000
Simulation Instructions: 100000000
Number of CPUs: 1
Page size: 4096

BTB:
Basic BTB sets: 1024 ways: 8
Indirect:
history lengths: 0 0 10 16 27 44 60 96 109 219 449 487 714 1313 2146 3881 
ITTAGE tables: 64768 bytes;Region table: 240 bytes;IUM: 384 bytes;Total Storage= 65392 bytes;
RAS:
RAS size: 64
[LLC] Demand IPV: 1 2 2 1 4 Prefetch IPV: 1 2 1 1 4
Berti Prefetcher
CPU 0 Entangling prefetcher
Off-chip DRAM Size: 8 GiB Channels: 2 Width: 64-bit Data Race: 6400 MT/s
Heartbeat CPU 0 instructions: 10000003 cycles: 1667504 heartbeat IPC: 5.997 cumulative IPC: 5.997 (Simulation time: 00 hr 00 min 40 sec)
Heartbeat CPU 0 instructions: 20000001 cycles: 3334643 heartbeat IPC: 5.998 cumulative IPC: 5.998 (Simulation time: 00 hr 01 min 19 sec)
Heartbeat CPU 0 instructions: 30000005 cycles: 5002037 heartbeat IPC: 5.997 cumulative IPC: 5.998 (Simulation time: 00 hr 02 min 03 sec)
Warmup finished CPU 0 instructions: 30000005 cycles: 5002038 cumulative IPC: 5.998 (Simulation time: 00 hr 02 min 03 sec)
Warmup complete CPU 0 instructions: 30000005 cycles: 5002038 cumulative IPC: 5.998 (Simulation time: 00 hr 02 min 03 sec)
*** Reached end of trace: (0, "../traces/public_traces/compute_int/compute_int_33.champsimtrace.xz")
Heartbeat CPU 0 instructions: 40000010 cycles: 6997927 heartbeat IPC: 5.01 cumulative IPC: 5.01 (Simulation time: 00 hr 02 min 56 sec)
Heartbeat CPU 0 instructions: 50000008 cycles: 8974195 heartbeat IPC: 5.06 cumulative IPC: 5.035 (Simulation time: 00 hr 03 min 43 sec)
Heartbeat CPU 0 instructions: 60000006 cycles: 10960872 heartbeat IPC: 5.034 cumulative IPC: 5.035 (Simulation time: 00 hr 04 min 29 sec)
*** Reached end of trace: (0, "../traces/public_traces/compute_int/compute_int_33.champsimtrace.xz")
Heartbeat CPU 0 instructions: 70000011 cycles: 12933564 heartbeat IPC: 5.069 cumulative IPC: 5.043 (Simulation time: 00 hr 05 min 16 sec)
Heartbeat CPU 0 instructions: 80000005 cycles: 14901194 heartbeat IPC: 5.082 cumulative IPC: 5.051 (Simulation time: 00 hr 06 min 02 sec)
Heartbeat CPU 0 instructions: 90000000 cycles: 16875473 heartbeat IPC: 5.065 cumulative IPC: 5.053 (Simulation time: 00 hr 06 min 48 sec)
*** Reached end of trace: (0, "../traces/public_traces/compute_int/compute_int_33.champsimtrace.xz")
Heartbeat CPU 0 instructions: 100000001 cycles: 18824974 heartbeat IPC: 5.13 cumulative IPC: 5.064 (Simulation time: 00 hr 07 min 35 sec)
Heartbeat CPU 0 instructions: 110000002 cycles: 20788587 heartbeat IPC: 5.093 cumulative IPC: 5.068 (Simulation time: 00 hr 08 min 21 sec)
Heartbeat CPU 0 instructions: 120000011 cycles: 22748957 heartbeat IPC: 5.101 cumulative IPC: 5.071 (Simulation time: 00 hr 09 min 07 sec)
*** Reached end of trace: (0, "../traces/public_traces/compute_int/compute_int_33.champsimtrace.xz")
Heartbeat CPU 0 instructions: 130000005 cycles: 24697605 heartbeat IPC: 5.132 cumulative IPC: 5.077 (Simulation time: 00 hr 09 min 54 sec)
Simulation finished CPU 0 instructions: 100000000 cycles: 19695568 cumulative IPC: 5.077 (Simulation time: 00 hr 09 min 54 sec)
Simulation complete CPU 0 instructions: 100000000 cycles: 19695568 cumulative IPC: 5.077 (Simulation time: 00 hr 09 min 54 sec)

ChampSim completed all CPUs

=== Simulation ===
CPU 0 runs ../traces/public_traces/compute_int/compute_int_33.champsimtrace.xz
Region of Interest Statistics

CPU 0 cumulative IPC: 5.077 instructions: 100000000 cycles: 19695568
CPU 0 Branch Prediction Accuracy: 96.78% MPKI: 1.804 Average ROB Occupancy at Mispredict: 36.91
Branch type MPKI
BRANCH_DIRECT_JUMP: 0
BRANCH_INDIRECT: 0.975
BRANCH_CONDITIONAL: 0.739
BRANCH_DIRECT_CALL: 0
BRANCH_INDIRECT_CALL: 0.0901
BRANCH_RETURN: 0.00012

LLC TOTAL        ACCESS:        204 HIT:          0 MISS:        204
LLC LOAD         ACCESS:          0 HIT:          0 MISS:          0
LLC RFO          ACCESS:          8 HIT:          0 MISS:          8
LLC PREFETCH     ACCESS:        192 HIT:          0 MISS:        192
LLC WRITE        ACCESS:          0 HIT:          0 MISS:          0
LLC TRANSLATION  ACCESS:          4 HIT:          0 MISS:          4
LLC PREFETCH REQUESTED:          0 ISSUED:          0 USEFUL:          0 USELESS:          0
LLC AVERAGE MISS LATENCY: 438.6 cycles
cpu0_DTLB TOTAL        ACCESS:   12703930 HIT:   12687519 MISS:      16411
cpu0_DTLB LOAD         ACCESS:   12703930 HIT:   12687519 MISS:      16411
cpu0_DTLB RFO          ACCESS:          0 HIT:          0 MISS:          0
cpu0_DTLB PREFETCH     ACCESS:          0 HIT:          0 MISS:          0
cpu0_DTLB WRITE        ACCESS:          0 HIT:          0 MISS:          0
cpu0_DTLB TRANSLATION  ACCESS:          0 HIT:          0 MISS:          0
cpu0_DTLB PREFETCH REQUESTED:          0 ISSUED:          0 USEFUL:          0 USELESS:          0
cpu0_DTLB AVERAGE MISS LATENCY: 4.885 cycles
cpu0_ITLB TOTAL        ACCESS:    5665475 HIT:    5665469 MISS:          6
cpu0_ITLB LOAD         ACCESS:    5665475 HIT:    5665469 MISS:          6
cpu0_ITLB RFO          ACCESS:          0 HIT:          0 MISS:          0
cpu0_ITLB PREFETCH     ACCESS:          0 HIT:          0 MISS:          0
cpu0_ITLB WRITE        ACCESS:          0 HIT:          0 MISS:          0
cpu0_ITLB TRANSLATION  ACCESS:          0 HIT:          0 MISS:          0
cpu0_ITLB PREFETCH REQUESTED:          0 ISSUED:          0 USEFUL:          0 USELESS:          0
cpu0_ITLB AVERAGE MISS LATENCY: 377 cycles
cpu0_L1D TOTAL        ACCESS:   21778212 HIT:   21689925 MISS:      88287
cpu0_L1D LOAD         ACCESS:   12923789 HIT:   12901432 MISS:      22357
cpu0_L1D RFO          ACCESS:          0 HIT:          0 MISS:          0
cpu0_L1D PREFETCH     ACCESS:     893784 HIT:     856397 MISS:      37387
cpu0_L1D WRITE        ACCESS:    7960634 HIT:    7932096 MISS:      28538
cpu0_L1D TRANSLATION  ACCESS:          5 HIT:          0 MISS:          5
cpu0_L1D PREFETCH REQUESTED:    7754920 ISSUED:     893784 USEFUL:       3460 USELESS:        463
cpu0_L1D AVERAGE MISS LATENCY: 3.189 cycles
cpu0_L1I TOTAL        ACCESS:    8924052 HIT:    8406094 MISS:     517958
cpu0_L1I LOAD         ACCESS:    3122169 HIT:    2976222 MISS:     145947
cpu0_L1I RFO          ACCESS:          0 HIT:          0 MISS:          0
cpu0_L1I PREFETCH     ACCESS:    5801883 HIT:    5429872 MISS:     372011
cpu0_L1I WRITE        ACCESS:          0 HIT:          0 MISS:          0
cpu0_L1I TRANSLATION  ACCESS:          0 HIT:          0 MISS:          0
cpu0_L1I PREFETCH REQUESTED:   19470638 ISSUED:    5801883 USEFUL:     292314 USELESS:      65207
cpu0_L1I AVERAGE MISS LATENCY: 9.45 cycles
cpu0_L2C TOTAL        ACCESS:    1016877 HIT:    1016667 MISS:        210
cpu0_L2C LOAD         ACCESS:     104485 HIT:     104485 MISS:          0
cpu0_L2C RFO          ACCESS:      14743 HIT:      14735 MISS:          8
cpu0_L2C PREFETCH     ACCESS:     878425 HIT:     878227 MISS:        198
cpu0_L2C WRITE        ACCESS:      19219 HIT:      19219 MISS:          0
cpu0_L2C TRANSLATION  ACCESS:          5 HIT:          1 MISS:          4
cpu0_L2C PREFETCH REQUESTED:     498601 ISSUED:     484309 USEFUL:         23 USELESS:          0
cpu0_L2C AVERAGE MISS LATENCY: 446.4 cycles
cpu0_STLB TOTAL        ACCESS:      11720 HIT:      11715 MISS:          5
cpu0_STLB LOAD         ACCESS:      11720 HIT:      11715 MISS:          5
cpu0_STLB RFO          ACCESS:          0 HIT:          0 MISS:          0
cpu0_STLB PREFETCH     ACCESS:          0 HIT:          0 MISS:          0
cpu0_STLB WRITE        ACCESS:          0 HIT:          0 MISS:          0
cpu0_STLB TRANSLATION  ACCESS:          0 HIT:          0 MISS:          0
cpu0_STLB PREFETCH REQUESTED:          0 ISSUED:          0 USEFUL:          0 USELESS:          0
cpu0_STLB AVERAGE MISS LATENCY: 443.4 cycles

DRAM Statistics

Channel 0 RQ ROW_BUFFER_HIT:         28
  ROW_BUFFER_MISS:         66
 AVG DBUS CONGESTED CYCLE: 3.944
WQ ROW_BUFFER_HIT: Channel 0 
  ROW_BUFFER_MISS:          0
  FULL:          0

Channel 1 RQ ROW_BUFFER_HIT:         37
  ROW_BUFFER_MISS:         73
 AVG DBUS CONGESTED CYCLE: 3.715
WQ ROW_BUFFER_HIT: Channel 1 
  ROW_BUFFER_MISS:          0
  FULL:          0
BERTI TO_L1: 6865122 TO_L2: 3256114 TO_L2_BC_MSHR: 261
BERTI AVG_LAT: 14.1627 NUM_TRACK_LATENCY: 22840 NUM_CANT_TRACK_LATENCY: 0
BERTI CROSS_PAGE 996354 NO_CROSS_PAGE: 9124882
BERTI FOUND_BERTI: 1539050 NO_FOUND_BERTI: 15416938
BERTI AVERAGE_ISSUED: 2.51049
CPU 0 L1I Entangling prefetcher final stats
IP accesses: 88a 22280 45770 / 3123410
IP misses: 5c0 17000 4493 / 147188
IP hits: 0 0 0 / 0
IP late: 5c0 17000 845 / 54575
IP wrong: 10cb 432c0 730 / 64301
miss rate: 0.0471242
coverage: 0
coverage_late: 0.370785
accuracy: 0
accuracy_late: 0.459092
discarded: 0
evicts entangled j table: 0
evicts entangled k table: 3284
max bb size: 54
formats: 18 0 1637 2242 459 737 0 
hist_lookups: 6993 8083 4879 3851 2135 1086 940 587 480 395 231 127 49 16 11 0 0 476 
hist_lookups_evict: 0 %
hist_lookups_shortlat: 1.56894 %
bb_found_hist: 0 278154 162811 165731 83371 103476 47648 55749 46929 42801 39237 32999 14431 32363 39404 9166 6290 6542 7871 18174 31162 9495 17695 12785 2430 2826 0 0 0 0 0 0 0 1967 0 0 1781 0 0 0 0 0 2157 0 0 0 0 0 0 0 0 3659 1841 1696 3832 0 0 0 0 0 0 0 0 0 
bb_found_summary: 8559567 1286473 6.65352
entangled_found_hist: 0 186678 140247 137155 225341 3607 507 0 
entangled_found_summary: 1801078 693535 2.59696
bb_ent_found_hist: 0 430235 305311 123642 96027 90640 59422 91673 67795 52699 17844 36595 11639 6919 21209 11882 27122 4315 2552 0 16829 31614 45482 3771 0 17425 0 0 0 0 0 0 0 4479 0 0 0 0 0 0 0 0 1379 0 0 0 0 0 0 0 0 1980 0 0 11465 0 0 0 0 0 0 0 0 0 
bb_ent_found_summary: 9552235 1591945 6.00036
