WARNING: physical memory size is smaller than virtual memory size.

*** ChampSim Multicore Out-of-Order Simulator ***
Warmup Instructions: 30000000
Simulation Instructions: 100000000
Number of CPUs: 1
Page size: 4096

BTB:
Basic BTB sets: 1024 ways: 8
Indirect:
history lengths: 0 0 10 16 27 44 60 96 109 219 449 487 714 1313 2146 3881 
ITTAGE tables: 64768 bytes;Region table: 240 bytes;IUM: 384 bytes;Total Storage= 65392 bytes;
RAS:
RAS size: 64
[LLC] Demand IPV: 1 2 2 1 4 Prefetch IPV: 1 2 1 1 4
Berti Prefetcher
CPU 0 Entangling prefetcher
Off-chip DRAM Size: 8 GiB Channels: 2 Width: 64-bit Data Race: 6400 MT/s
Heartbeat CPU 0 instructions: 10000011 cycles: 1667752 heartbeat IPC: 5.996 cumulative IPC: 5.996 (Simulation time: 00 hr 00 min 49 sec)
Heartbeat CPU 0 instructions: 20000011 cycles: 3334502 heartbeat IPC: 6 cumulative IPC: 5.998 (Simulation time: 00 hr 01 min 36 sec)
Heartbeat CPU 0 instructions: 30000003 cycles: 6588877 heartbeat IPC: 3.073 cumulative IPC: 4.553 (Simulation time: 00 hr 03 min 03 sec)
Warmup finished CPU 0 instructions: 30000003 cycles: 6588878 cumulative IPC: 4.553 (Simulation time: 00 hr 03 min 03 sec)
Warmup complete CPU 0 instructions: 30000003 cycles: 6588878 cumulative IPC: 4.553 (Simulation time: 00 hr 03 min 03 sec)
*** Reached end of trace: (0, "../traces/public_traces/compute_int/compute_int_37.champsimtrace.xz")
Heartbeat CPU 0 instructions: 40000006 cycles: 32394968 heartbeat IPC: 0.3875 cumulative IPC: 0.3875 (Simulation time: 00 hr 09 min 11 sec)
Heartbeat CPU 0 instructions: 50000001 cycles: 61996193 heartbeat IPC: 0.3378 cumulative IPC: 0.361 (Simulation time: 00 hr 15 min 48 sec)
Heartbeat CPU 0 instructions: 60000001 cycles: 93204133 heartbeat IPC: 0.3204 cumulative IPC: 0.3464 (Simulation time: 00 hr 23 min 01 sec)
*** Reached end of trace: (0, "../traces/public_traces/compute_int/compute_int_37.champsimtrace.xz")
Heartbeat CPU 0 instructions: 70000006 cycles: 119140626 heartbeat IPC: 0.3856 cumulative IPC: 0.3554 (Simulation time: 00 hr 29 min 12 sec)
Heartbeat CPU 0 instructions: 80000008 cycles: 148702927 heartbeat IPC: 0.3383 cumulative IPC: 0.3518 (Simulation time: 00 hr 35 min 49 sec)
Heartbeat CPU 0 instructions: 90000005 cycles: 179871156 heartbeat IPC: 0.3208 cumulative IPC: 0.3463 (Simulation time: 00 hr 44 min 03 sec)
*** Reached end of trace: (0, "../traces/public_traces/compute_int/compute_int_37.champsimtrace.xz")
Heartbeat CPU 0 instructions: 100000006 cycles: 205969779 heartbeat IPC: 0.3832 cumulative IPC: 0.3511 (Simulation time: 00 hr 50 min 10 sec)
Heartbeat CPU 0 instructions: 110000006 cycles: 235620676 heartbeat IPC: 0.3373 cumulative IPC: 0.3493 (Simulation time: 00 hr 57 min 00 sec)
Heartbeat CPU 0 instructions: 120000001 cycles: 266789325 heartbeat IPC: 0.3208 cumulative IPC: 0.3459 (Simulation time: 01 hr 04 min 41 sec)
*** Reached end of trace: (0, "../traces/public_traces/compute_int/compute_int_37.champsimtrace.xz")
Heartbeat CPU 0 instructions: 130000000 cycles: 292880858 heartbeat IPC: 0.3833 cumulative IPC: 0.3493 (Simulation time: 01 hr 10 min 39 sec)
Simulation finished CPU 0 instructions: 100000000 cycles: 286292115 cumulative IPC: 0.3493 (Simulation time: 01 hr 10 min 39 sec)
Simulation complete CPU 0 instructions: 100000000 cycles: 286292115 cumulative IPC: 0.3493 (Simulation time: 01 hr 10 min 39 sec)

ChampSim completed all CPUs

=== Simulation ===
CPU 0 runs ../traces/public_traces/compute_int/compute_int_37.champsimtrace.xz
Region of Interest Statistics

CPU 0 cumulative IPC: 0.3493 instructions: 100000000 cycles: 286292115
CPU 0 Branch Prediction Accuracy: 99.89% MPKI: 0.1924 Average ROB Occupancy at Mispredict: 135.8
Branch type MPKI
BRANCH_DIRECT_JUMP: 0
BRANCH_INDIRECT: 0.192
BRANCH_CONDITIONAL: 0.00038
BRANCH_DIRECT_CALL: 0
BRANCH_INDIRECT_CALL: 0
BRANCH_RETURN: 0

LLC TOTAL        ACCESS:   15934356 HIT:     805886 MISS:   15128470
LLC LOAD         ACCESS:    7287902 HIT:     233160 MISS:    7054742
LLC RFO          ACCESS:     264348 HIT:      22763 MISS:     241585
LLC PREFETCH     ACCESS:    3997473 HIT:     255692 MISS:    3741781
LLC WRITE        ACCESS:    2153364 HIT:     174798 MISS:    1978566
LLC TRANSLATION  ACCESS:    2231269 HIT:     119473 MISS:    2111796
LLC PREFETCH REQUESTED:          0 ISSUED:          0 USEFUL:          0 USELESS:          0
LLC AVERAGE MISS LATENCY: 303.5 cycles
cpu0_DTLB TOTAL        ACCESS:   19932239 HIT:   14288828 MISS:    5643411
cpu0_DTLB LOAD         ACCESS:   19932239 HIT:   14288828 MISS:    5643411
cpu0_DTLB RFO          ACCESS:          0 HIT:          0 MISS:          0
cpu0_DTLB PREFETCH     ACCESS:          0 HIT:          0 MISS:          0
cpu0_DTLB WRITE        ACCESS:          0 HIT:          0 MISS:          0
cpu0_DTLB TRANSLATION  ACCESS:          0 HIT:          0 MISS:          0
cpu0_DTLB PREFETCH REQUESTED:          0 ISSUED:          0 USEFUL:          0 USELESS:          0
cpu0_DTLB AVERAGE MISS LATENCY: 228.2 cycles
cpu0_ITLB TOTAL        ACCESS:      56810 HIT:      56810 MISS:          0
cpu0_ITLB LOAD         ACCESS:      56810 HIT:      56810 MISS:          0
cpu0_ITLB RFO          ACCESS:          0 HIT:          0 MISS:          0
cpu0_ITLB PREFETCH     ACCESS:          0 HIT:          0 MISS:          0
cpu0_ITLB WRITE        ACCESS:          0 HIT:          0 MISS:          0
cpu0_ITLB TRANSLATION  ACCESS:          0 HIT:          0 MISS:          0
cpu0_ITLB PREFETCH REQUESTED:          0 ISSUED:          0 USEFUL:          0 USELESS:          0
cpu0_ITLB AVERAGE MISS LATENCY: -nan cycles
cpu0_L1D TOTAL        ACCESS:   32915236 HIT:   12725516 MISS:   20189720
cpu0_L1D LOAD         ACCESS:   18909231 HIT:    7688954 MISS:   11220277
cpu0_L1D RFO          ACCESS:          0 HIT:          0 MISS:          0
cpu0_L1D PREFETCH     ACCESS:    8240624 HIT:    2357159 MISS:    5883465
cpu0_L1D WRITE        ACCESS:    2822047 HIT:    2153919 MISS:     668128
cpu0_L1D TRANSLATION  ACCESS:    2943334 HIT:     525484 MISS:    2417850
cpu0_L1D PREFETCH REQUESTED:  178252116 ISSUED:    8240610 USEFUL:     119116 USELESS:      33499
cpu0_L1D AVERAGE MISS LATENCY: 171.1 cycles
cpu0_L1I TOTAL        ACCESS:      71116 HIT:      70415 MISS:        701
cpu0_L1I LOAD         ACCESS:      34888 HIT:      34511 MISS:        377
cpu0_L1I RFO          ACCESS:          0 HIT:          0 MISS:          0
cpu0_L1I PREFETCH     ACCESS:      36228 HIT:      35904 MISS:        324
cpu0_L1I WRITE        ACCESS:          0 HIT:          0 MISS:          0
cpu0_L1I TRANSLATION  ACCESS:          0 HIT:          0 MISS:          0
cpu0_L1I PREFETCH REQUESTED:      36662 ISSUED:      36228 USEFUL:        238 USELESS:          0
cpu0_L1I AVERAGE MISS LATENCY: 196.7 cycles
cpu0_L2C TOTAL        ACCESS:   34621616 HIT:   15368332 MISS:   19253284
cpu0_L2C LOAD         ACCESS:    9587114 HIT:    2011178 MISS:    7575936
cpu0_L2C RFO          ACCESS:     393948 HIT:     129598 MISS:     264350
cpu0_L2C PREFETCH     ACCESS:   19999678 HIT:   10818005 MISS:    9181673
cpu0_L2C WRITE        ACCESS:    2237472 HIT:    2237438 MISS:         34
cpu0_L2C TRANSLATION  ACCESS:    2403404 HIT:     172113 MISS:    2231291
cpu0_L2C PREFETCH REQUESTED:   14868630 ISSUED:   14784637 USEFUL:     901232 USELESS:    2752989
cpu0_L2C AVERAGE MISS LATENCY: 252.2 cycles
cpu0_STLB TOTAL        ACCESS:    3057731 HIT:     654288 MISS:    2403443
cpu0_STLB LOAD         ACCESS:    3057731 HIT:     654288 MISS:    2403443
cpu0_STLB RFO          ACCESS:          0 HIT:          0 MISS:          0
cpu0_STLB PREFETCH     ACCESS:          0 HIT:          0 MISS:          0
cpu0_STLB WRITE        ACCESS:          0 HIT:          0 MISS:          0
cpu0_STLB TRANSLATION  ACCESS:          0 HIT:          0 MISS:          0
cpu0_STLB PREFETCH REQUESTED:          0 ISSUED:          0 USEFUL:          0 USELESS:          0
cpu0_STLB AVERAGE MISS LATENCY: 563 cycles

DRAM Statistics

Channel 0 RQ ROW_BUFFER_HIT:    2996565
  ROW_BUFFER_MISS:    3590884
 AVG DBUS CONGESTED CYCLE: 3.934
WQ ROW_BUFFER_HIT: Channel 0 
  ROW_BUFFER_MISS:      29047
  FULL:     975406

Channel 1 RQ ROW_BUFFER_HIT:    2992260
  ROW_BUFFER_MISS:    3570046
 AVG DBUS CONGESTED CYCLE: 3.916
WQ ROW_BUFFER_HIT: Channel 1 
  ROW_BUFFER_MISS:      28283
  FULL:     975789
BERTI TO_L1: 4334282 TO_L2: 190516899 TO_L2_BC_MSHR: 49411784
BERTI AVG_LAT: 212.188 NUM_TRACK_LATENCY: 12840861 NUM_CANT_TRACK_LATENCY: 3177
BERTI CROSS_PAGE 46174809 NO_CROSS_PAGE: 148676372
BERTI FOUND_BERTI: 62486334 NO_FOUND_BERTI: 15489729
BERTI AVERAGE_ISSUED: 3.83101
CPU 0 L1I Entangling prefetcher final stats
IP accesses: 68 1a00 11395 / 34888
IP misses: 3f12 fc480 16 / 377
IP hits: 0 0 0 / 0
IP late: 15b3 56cc0 3 / 190
IP wrong: 0 0 0 / 0
miss rate: 0.0108061
coverage: 0
coverage_late: 0.503979
accuracy: 0
accuracy_late: 1
discarded: 0
evicts entangled j table: 0
evicts entangled k table: 12
max bb size: 9
formats: 8 0 18 7 1 3 0 
hist_lookups: 2 3 7 13 8 2 6 7 5 4 7 2 1 0 0 0 0 279 
hist_lookups_evict: 0 %
hist_lookups_shortlat: 80.6359 %
bb_found_hist: 0 974 2189 164 3140 18 3 0 0 3 0 0 0 0 0 0 0 0 0 0 0 0 0 0 0 0 0 0 0 0 0 0 0 0 0 0 0 0 0 0 0 0 0 0 0 0 0 0 0 0 0 0 0 0 0 0 0 0 0 0 0 0 0 0 
bb_found_summary: 18539 6491 2.85611
entangled_found_hist: 0 2129 135 2185 17 3 0 0 
entangled_found_summary: 9037 4469 2.02216
bb_ent_found_hist: 0 2461 286 2087 6 18 3 0 0 3 0 0 0 0 0 0 0 0 0 0 0 0 0 0 0 0 0 0 0 0 0 0 0 0 0 0 0 0 0 0 0 0 0 0 0 0 0 0 0 0 0 0 0 0 0 0 0 0 0 0 0 0 0 0 
bb_ent_found_summary: 9453 4864 1.94347
