WARNING: physical memory size is smaller than virtual memory size.

*** ChampSim Multicore Out-of-Order Simulator ***
Warmup Instructions: 30000000
Simulation Instructions: 100000000
Number of CPUs: 1
Page size: 4096

BTB:
Basic BTB sets: 1024 ways: 8
Indirect:
history lengths: 0 0 10 16 27 44 60 96 109 219 449 487 714 1313 2146 3881 
ITTAGE tables: 64768 bytes;Region table: 240 bytes;IUM: 384 bytes;Total Storage= 65392 bytes;
RAS:
RAS size: 64
[LLC] Demand IPV: 1 2 2 1 4 Prefetch IPV: 1 2 1 1 4
Berti Prefetcher
CPU 0 Entangling prefetcher
Off-chip DRAM Size: 8 GiB Channels: 2 Width: 64-bit Data Race: 6400 MT/s
Heartbeat CPU 0 instructions: 10000010 cycles: 1666863 heartbeat IPC: 5.999 cumulative IPC: 5.999 (Simulation time: 00 hr 00 min 51 sec)
Heartbeat CPU 0 instructions: 20000000 cycles: 3333528 heartbeat IPC: 6 cumulative IPC: 6 (Simulation time: 00 hr 01 min 37 sec)
Heartbeat CPU 0 instructions: 30000004 cycles: 5000194 heartbeat IPC: 6 cumulative IPC: 6 (Simulation time: 00 hr 02 min 21 sec)
Warmup finished CPU 0 instructions: 30000004 cycles: 5000195 cumulative IPC: 6 (Simulation time: 00 hr 02 min 21 sec)
Warmup complete CPU 0 instructions: 30000004 cycles: 5000195 cumulative IPC: 6 (Simulation time: 00 hr 02 min 21 sec)
*** Reached end of trace: (0, "../traces/public_traces/compute_int/compute_int_8.champsimtrace.xz")
Heartbeat CPU 0 instructions: 40000000 cycles: 6680007 heartbeat IPC: 5.953 cumulative IPC: 5.953 (Simulation time: 00 hr 03 min 11 sec)
Heartbeat CPU 0 instructions: 50000001 cycles: 8354273 heartbeat IPC: 5.973 cumulative IPC: 5.963 (Simulation time: 00 hr 03 min 58 sec)
Heartbeat CPU 0 instructions: 60000011 cycles: 10183850 heartbeat IPC: 5.466 cumulative IPC: 5.787 (Simulation time: 00 hr 04 min 45 sec)
*** Reached end of trace: (0, "../traces/public_traces/compute_int/compute_int_8.champsimtrace.xz")
Heartbeat CPU 0 instructions: 70000000 cycles: 11861711 heartbeat IPC: 5.96 cumulative IPC: 5.83 (Simulation time: 00 hr 05 min 31 sec)
Heartbeat CPU 0 instructions: 80000009 cycles: 13531370 heartbeat IPC: 5.989 cumulative IPC: 5.861 (Simulation time: 00 hr 06 min 23 sec)
Heartbeat CPU 0 instructions: 90000002 cycles: 15345104 heartbeat IPC: 5.513 cumulative IPC: 5.8 (Simulation time: 00 hr 07 min 19 sec)
*** Reached end of trace: (0, "../traces/public_traces/compute_int/compute_int_8.champsimtrace.xz")
Heartbeat CPU 0 instructions: 100000003 cycles: 17023385 heartbeat IPC: 5.958 cumulative IPC: 5.822 (Simulation time: 00 hr 08 min 11 sec)
Heartbeat CPU 0 instructions: 110000002 cycles: 18695643 heartbeat IPC: 5.98 cumulative IPC: 5.841 (Simulation time: 00 hr 09 min 03 sec)
Heartbeat CPU 0 instructions: 120000003 cycles: 20463885 heartbeat IPC: 5.655 cumulative IPC: 5.82 (Simulation time: 00 hr 09 min 58 sec)
*** Reached end of trace: (0, "../traces/public_traces/compute_int/compute_int_8.champsimtrace.xz")
Heartbeat CPU 0 instructions: 130000010 cycles: 22140123 heartbeat IPC: 5.966 cumulative IPC: 5.834 (Simulation time: 00 hr 10 min 51 sec)
Simulation finished CPU 0 instructions: 100000006 cycles: 17139929 cumulative IPC: 5.834 (Simulation time: 00 hr 10 min 51 sec)
Simulation complete CPU 0 instructions: 100000006 cycles: 17139929 cumulative IPC: 5.834 (Simulation time: 00 hr 10 min 51 sec)

ChampSim completed all CPUs

=== Simulation ===
CPU 0 runs ../traces/public_traces/compute_int/compute_int_8.champsimtrace.xz
Region of Interest Statistics

CPU 0 cumulative IPC: 5.834 instructions: 100000006 cycles: 17139929
CPU 0 Branch Prediction Accuracy: 100% MPKI: 7e-05 Average ROB Occupancy at Mispredict: 227
Branch type MPKI
BRANCH_DIRECT_JUMP: 0
BRANCH_INDIRECT: 0
BRANCH_CONDITIONAL: 7e-05
BRANCH_DIRECT_CALL: 0
BRANCH_INDIRECT_CALL: 0
BRANCH_RETURN: 0

LLC TOTAL        ACCESS:     595253 HIT:     291595 MISS:     303658
LLC LOAD         ACCESS:       1547 HIT:       1290 MISS:        257
LLC RFO          ACCESS:     273919 HIT:     149192 MISS:     124727
LLC PREFETCH     ACCESS:      26102 HIT:       3170 MISS:      22932
LLC WRITE        ACCESS:     293683 HIT:     137943 MISS:     155740
LLC TRANSLATION  ACCESS:          2 HIT:          0 MISS:          2
LLC PREFETCH REQUESTED:          0 ISSUED:          0 USEFUL:          0 USELESS:          0
LLC AVERAGE MISS LATENCY: 209.4 cycles
cpu0_DTLB TOTAL        ACCESS:   16612496 HIT:   16603940 MISS:       8556
cpu0_DTLB LOAD         ACCESS:   16612496 HIT:   16603940 MISS:       8556
cpu0_DTLB RFO          ACCESS:          0 HIT:          0 MISS:          0
cpu0_DTLB PREFETCH     ACCESS:          0 HIT:          0 MISS:          0
cpu0_DTLB WRITE        ACCESS:          0 HIT:          0 MISS:          0
cpu0_DTLB TRANSLATION  ACCESS:          0 HIT:          0 MISS:          0
cpu0_DTLB PREFETCH REQUESTED:          0 ISSUED:          0 USEFUL:          0 USELESS:          0
cpu0_DTLB AVERAGE MISS LATENCY: 3.108 cycles
cpu0_ITLB TOTAL        ACCESS:       7923 HIT:       7923 MISS:          0
cpu0_ITLB LOAD         ACCESS:       7923 HIT:       7923 MISS:          0
cpu0_ITLB RFO          ACCESS:          0 HIT:          0 MISS:          0
cpu0_ITLB PREFETCH     ACCESS:          0 HIT:          0 MISS:          0
cpu0_ITLB WRITE        ACCESS:          0 HIT:          0 MISS:          0
cpu0_ITLB TRANSLATION  ACCESS:          0 HIT:          0 MISS:          0
cpu0_ITLB PREFETCH REQUESTED:          0 ISSUED:          0 USEFUL:          0 USELESS:          0
cpu0_ITLB AVERAGE MISS LATENCY: -nan cycles
cpu0_L1D TOTAL        ACCESS:   28479217 HIT:   21749158 MISS:    6730059
cpu0_L1D LOAD         ACCESS:   15231275 HIT:   15064741 MISS:     166534
cpu0_L1D RFO          ACCESS:          0 HIT:          0 MISS:          0
cpu0_L1D PREFETCH     ACCESS:     241633 HIT:     165190 MISS:      76443
cpu0_L1D WRITE        ACCESS:   13006304 HIT:    6519224 MISS:    6487080
cpu0_L1D TRANSLATION  ACCESS:          5 HIT:          3 MISS:          2
cpu0_L1D PREFETCH REQUESTED:   24625447 ISSUED:     241633 USEFUL:       6327 USELESS:       4819
cpu0_L1D AVERAGE MISS LATENCY: 5.709 cycles
cpu0_L1I TOTAL        ACCESS:      11484 HIT:      11484 MISS:          0
cpu0_L1I LOAD         ACCESS:       6698 HIT:       6698 MISS:          0
cpu0_L1I RFO          ACCESS:          0 HIT:          0 MISS:          0
cpu0_L1I PREFETCH     ACCESS:       4786 HIT:       4786 MISS:          0
cpu0_L1I WRITE        ACCESS:          0 HIT:          0 MISS:          0
cpu0_L1I TRANSLATION  ACCESS:          0 HIT:          0 MISS:          0
cpu0_L1I PREFETCH REQUESTED:       7552 ISSUED:       4786 USEFUL:          0 USELESS:          0
cpu0_L1I AVERAGE MISS LATENCY: -nan cycles
cpu0_L2C TOTAL        ACCESS:     993048 HIT:     666432 MISS:     326616
cpu0_L2C LOAD         ACCESS:     137852 HIT:     136078 MISS:       1774
cpu0_L2C RFO          ACCESS:     293015 HIT:      18892 MISS:     274123
cpu0_L2C PREFETCH     ACCESS:     268526 HIT:     217809 MISS:      50717
cpu0_L2C WRITE        ACCESS:     293653 HIT:     293653 MISS:          0
cpu0_L2C TRANSLATION  ACCESS:          2 HIT:          0 MISS:          2
cpu0_L2C PREFETCH REQUESTED:     203205 ISSUED:     203173 USEFUL:      10315 USELESS:       1588
cpu0_L2C AVERAGE MISS LATENCY: 213.1 cycles
cpu0_STLB TOTAL        ACCESS:       5267 HIT:       5262 MISS:          5
cpu0_STLB LOAD         ACCESS:       5267 HIT:       5262 MISS:          5
cpu0_STLB RFO          ACCESS:          0 HIT:          0 MISS:          0
cpu0_STLB PREFETCH     ACCESS:          0 HIT:          0 MISS:          0
cpu0_STLB WRITE        ACCESS:          0 HIT:          0 MISS:          0
cpu0_STLB TRANSLATION  ACCESS:          0 HIT:          0 MISS:          0
cpu0_STLB PREFETCH REQUESTED:          0 ISSUED:          0 USEFUL:          0 USELESS:          0
cpu0_STLB AVERAGE MISS LATENCY: 233.4 cycles

DRAM Statistics

Channel 0 RQ ROW_BUFFER_HIT:      40627
  ROW_BUFFER_MISS:      33367
 AVG DBUS CONGESTED CYCLE: 3.964
WQ ROW_BUFFER_HIT: Channel 0 
  ROW_BUFFER_MISS:      16338
  FULL:      61870

Channel 1 RQ ROW_BUFFER_HIT:      40706
  ROW_BUFFER_MISS:      33218
 AVG DBUS CONGESTED CYCLE: 3.963
WQ ROW_BUFFER_HIT: Channel 1 
  ROW_BUFFER_MISS:      16148
  FULL:      61915
BERTI TO_L1: 16461702 TO_L2: 18453787 TO_L2_BC_MSHR: 1123989
BERTI AVG_LAT: 196.569 NUM_TRACK_LATENCY: 194552 NUM_CANT_TRACK_LATENCY: 35
BERTI CROSS_PAGE 4252696 NO_CROSS_PAGE: 30662793
BERTI FOUND_BERTI: 12116227 NO_FOUND_BERTI: 9244040
BERTI AVERAGE_ISSUED: 3.38508
CPU 0 L1I Entangling prefetcher final stats
IP accesses: 124 4900 261 / 6698
IP misses: 0 0 0 / 0
IP hits: 0 0 0 / 0
IP late: 0 0 0 / 0
IP wrong: 0 0 0 / 0
miss rate: 0
coverage: -nan
coverage_late: -nan
accuracy: -nan
accuracy_late: -nan
discarded: 0
evicts entangled j table: 0
evicts entangled k table: 0
max bb size: 11
formats: 0 0 0 0 0 0 0 
hist_lookups: 0 0 0 0 0 0 0 0 0 0 0 0 0 0 0 0 0 134 
hist_lookups_evict: 0 %
hist_lookups_shortlat: 100 %
bb_found_hist: 0 1177 465 197 40 20 50 0 0 0 0 80 0 0 0 0 0 0 0 0 0 0 0 0 0 0 0 0 0 0 0 0 0 0 0 0 0 0 0 0 0 0 0 0 0 0 0 0 0 0 0 0 0 0 0 0 0 0 0 0 0 0 0 0 
bb_found_summary: 4138 2029 2.03943
entangled_found_hist: 0 660 127 160 40 0 0 0 
entangled_found_summary: 1554 987 1.57447
bb_ent_found_hist: 0 500 290 90 0 20 50 0 0 0 0 10 0 0 0 0 0 0 0 0 0 0 0 0 0 0 0 0 0 0 0 0 0 0 0 0 0 0 0 0 0 0 0 0 0 0 0 0 0 0 0 0 0 0 0 0 0 0 0 0 0 0 0 0 
bb_ent_found_summary: 1860 960 1.9375
