WARNING: physical memory size is smaller than virtual memory size.

*** ChampSim Multicore Out-of-Order Simulator ***
Warmup Instructions: 30000000
Simulation Instructions: 100000000
Number of CPUs: 1
Page size: 4096

BTB:
Basic BTB sets: 1024 ways: 8
Indirect:
history lengths: 0 0 10 16 27 44 60 96 109 219 449 487 714 1313 2146 3881 
ITTAGE tables: 64768 bytes;Region table: 240 bytes;IUM: 384 bytes;Total Storage= 65392 bytes;
RAS:
RAS size: 64
[LLC] Demand IPV: 1 2 2 1 4 Prefetch IPV: 1 2 1 1 4
Berti Prefetcher
CPU 0 Entangling prefetcher
Off-chip DRAM Size: 8 GiB Channels: 2 Width: 64-bit Data Race: 6400 MT/s
Heartbeat CPU 0 instructions: 10000002 cycles: 2094489 heartbeat IPC: 4.774 cumulative IPC: 4.774 (Simulation time: 00 hr 01 min 00 sec)
Heartbeat CPU 0 instructions: 20000000 cycles: 4205676 heartbeat IPC: 4.737 cumulative IPC: 4.755 (Simulation time: 00 hr 02 min 00 sec)
Heartbeat CPU 0 instructions: 30000003 cycles: 6313845 heartbeat IPC: 4.743 cumulative IPC: 4.751 (Simulation time: 00 hr 02 min 54 sec)
Warmup finished CPU 0 instructions: 30000003 cycles: 6313846 cumulative IPC: 4.751 (Simulation time: 00 hr 02 min 54 sec)
Warmup complete CPU 0 instructions: 30000003 cycles: 6313846 cumulative IPC: 4.751 (Simulation time: 00 hr 02 min 54 sec)
*** Reached end of trace: (0, "../traces/public_traces/compute_int/compute_int_34.champsimtrace.xz")
Heartbeat CPU 0 instructions: 40000010 cycles: 17829986 heartbeat IPC: 0.8683 cumulative IPC: 0.8683 (Simulation time: 00 hr 05 min 55 sec)
Heartbeat CPU 0 instructions: 50000001 cycles: 30252638 heartbeat IPC: 0.805 cumulative IPC: 0.8355 (Simulation time: 00 hr 08 min 59 sec)
Heartbeat CPU 0 instructions: 60000008 cycles: 38843408 heartbeat IPC: 1.164 cumulative IPC: 0.9222 (Simulation time: 00 hr 11 min 01 sec)
*** Reached end of trace: (0, "../traces/public_traces/compute_int/compute_int_34.champsimtrace.xz")
Heartbeat CPU 0 instructions: 70000008 cycles: 51029985 heartbeat IPC: 0.8206 cumulative IPC: 0.8945 (Simulation time: 00 hr 14 min 02 sec)
Heartbeat CPU 0 instructions: 80000002 cycles: 63315989 heartbeat IPC: 0.8139 cumulative IPC: 0.8772 (Simulation time: 00 hr 16 min 48 sec)
Heartbeat CPU 0 instructions: 90000010 cycles: 71845119 heartbeat IPC: 1.172 cumulative IPC: 0.9156 (Simulation time: 00 hr 18 min 48 sec)
*** Reached end of trace: (0, "../traces/public_traces/compute_int/compute_int_34.champsimtrace.xz")
Heartbeat CPU 0 instructions: 100000007 cycles: 84021489 heartbeat IPC: 0.8213 cumulative IPC: 0.9008 (Simulation time: 00 hr 21 min 59 sec)
Heartbeat CPU 0 instructions: 110000009 cycles: 96355633 heartbeat IPC: 0.8108 cumulative IPC: 0.8885 (Simulation time: 00 hr 24 min 47 sec)
Heartbeat CPU 0 instructions: 120000008 cycles: 105000183 heartbeat IPC: 1.157 cumulative IPC: 0.912 (Simulation time: 00 hr 26 min 59 sec)
*** Reached end of trace: (0, "../traces/public_traces/compute_int/compute_int_34.champsimtrace.xz")
Heartbeat CPU 0 instructions: 130000010 cycles: 117197839 heartbeat IPC: 0.8198 cumulative IPC: 0.9018 (Simulation time: 00 hr 29 min 58 sec)
Simulation finished CPU 0 instructions: 100000007 cycles: 110883994 cumulative IPC: 0.9018 (Simulation time: 00 hr 29 min 58 sec)
Simulation complete CPU 0 instructions: 100000007 cycles: 110883994 cumulative IPC: 0.9018 (Simulation time: 00 hr 29 min 58 sec)

ChampSim completed all CPUs

=== Simulation ===
CPU 0 runs ../traces/public_traces/compute_int/compute_int_34.champsimtrace.xz
Region of Interest Statistics

CPU 0 cumulative IPC: 0.9018 instructions: 100000007 cycles: 110883994
CPU 0 Branch Prediction Accuracy: 97.48% MPKI: 3.2 Average ROB Occupancy at Mispredict: 80.72
Branch type MPKI
BRANCH_DIRECT_JUMP: 0
BRANCH_INDIRECT: 2.6
BRANCH_CONDITIONAL: 0.602
BRANCH_DIRECT_CALL: 0
BRANCH_INDIRECT_CALL: 0
BRANCH_RETURN: 0

LLC TOTAL        ACCESS:    9397241 HIT:    1773124 MISS:    7624117
LLC LOAD         ACCESS:    2568664 HIT:     676528 MISS:    1892136
LLC RFO          ACCESS:     524206 HIT:      80425 MISS:     443781
LLC PREFETCH     ACCESS:    5618990 HIT:     913653 MISS:    4705337
LLC WRITE        ACCESS:     676533 HIT:     101563 MISS:     574970
LLC TRANSLATION  ACCESS:       8848 HIT:        955 MISS:       7893
LLC PREFETCH REQUESTED:          0 ISSUED:          0 USEFUL:          0 USELESS:          0
LLC AVERAGE MISS LATENCY: 357.8 cycles
cpu0_DTLB TOTAL        ACCESS:   26309283 HIT:   25945274 MISS:     364009
cpu0_DTLB LOAD         ACCESS:   26309283 HIT:   25945274 MISS:     364009
cpu0_DTLB RFO          ACCESS:          0 HIT:          0 MISS:          0
cpu0_DTLB PREFETCH     ACCESS:          0 HIT:          0 MISS:          0
cpu0_DTLB WRITE        ACCESS:          0 HIT:          0 MISS:          0
cpu0_DTLB TRANSLATION  ACCESS:          0 HIT:          0 MISS:          0
cpu0_DTLB PREFETCH REQUESTED:          0 ISSUED:          0 USEFUL:          0 USELESS:          0
cpu0_DTLB AVERAGE MISS LATENCY: 13.06 cycles
cpu0_ITLB TOTAL        ACCESS:      65129 HIT:      65129 MISS:          0
cpu0_ITLB LOAD         ACCESS:      65129 HIT:      65129 MISS:          0
cpu0_ITLB RFO          ACCESS:          0 HIT:          0 MISS:          0
cpu0_ITLB PREFETCH     ACCESS:          0 HIT:          0 MISS:          0
cpu0_ITLB WRITE        ACCESS:          0 HIT:          0 MISS:          0
cpu0_ITLB TRANSLATION  ACCESS:          0 HIT:          0 MISS:          0
cpu0_ITLB PREFETCH REQUESTED:          0 ISSUED:          0 USEFUL:          0 USELESS:          0
cpu0_ITLB AVERAGE MISS LATENCY: -nan cycles
cpu0_L1D TOTAL        ACCESS:   50319455 HIT:   35112099 MISS:   15207356
cpu0_L1D LOAD         ACCESS:   19390074 HIT:   15064619 MISS:    4325455
cpu0_L1D RFO          ACCESS:          0 HIT:          0 MISS:          0
cpu0_L1D PREFETCH     ACCESS:   14358174 HIT:    5424648 MISS:    8933526
cpu0_L1D WRITE        ACCESS:   16518751 HIT:   14596345 MISS:    1922406
cpu0_L1D TRANSLATION  ACCESS:      52456 HIT:      26487 MISS:      25969
cpu0_L1D PREFETCH REQUESTED:  230189902 ISSUED:   14358174 USEFUL:    1744251 USELESS:     166102
cpu0_L1D AVERAGE MISS LATENCY: 74.07 cycles
cpu0_L1I TOTAL        ACCESS:      90700 HIT:      90214 MISS:        486
cpu0_L1I LOAD         ACCESS:      37640 HIT:      37385 MISS:        255
cpu0_L1I RFO          ACCESS:          0 HIT:          0 MISS:          0
cpu0_L1I PREFETCH     ACCESS:      53060 HIT:      52829 MISS:        231
cpu0_L1I WRITE        ACCESS:          0 HIT:          0 MISS:          0
cpu0_L1I TRANSLATION  ACCESS:          0 HIT:          0 MISS:          0
cpu0_L1I PREFETCH REQUESTED:      54181 ISSUED:      53060 USEFUL:        160 USELESS:          0
cpu0_L1I AVERAGE MISS LATENCY: 135.2 cycles
cpu0_L2C TOTAL        ACCESS:   25010268 HIT:   11002182 MISS:   14008086
cpu0_L2C LOAD         ACCESS:    3754999 HIT:     788511 MISS:    2966488
cpu0_L2C RFO          ACCESS:     554288 HIT:      28280 MISS:     526008
cpu0_L2C PREFETCH     ACCESS:   19936373 HIT:    9430503 MISS:   10505870
cpu0_L2C WRITE        ACCESS:     738646 HIT:     737774 MISS:        872
cpu0_L2C TRANSLATION  ACCESS:      25962 HIT:      17114 MISS:       8848
cpu0_L2C PREFETCH REQUESTED:   14422995 ISSUED:   11476687 USEFUL:     991774 USELESS:    2196390
cpu0_L2C AVERAGE MISS LATENCY: 201.6 cycles
cpu0_STLB TOTAL        ACCESS:     181592 HIT:     129389 MISS:      52203
cpu0_STLB LOAD         ACCESS:     181592 HIT:     129389 MISS:      52203
cpu0_STLB RFO          ACCESS:          0 HIT:          0 MISS:          0
cpu0_STLB PREFETCH     ACCESS:          0 HIT:          0 MISS:          0
cpu0_STLB WRITE        ACCESS:          0 HIT:          0 MISS:          0
cpu0_STLB TRANSLATION  ACCESS:          0 HIT:          0 MISS:          0
cpu0_STLB PREFETCH REQUESTED:          0 ISSUED:          0 USEFUL:          0 USELESS:          0
cpu0_STLB AVERAGE MISS LATENCY: 115.9 cycles

DRAM Statistics

Channel 0 RQ ROW_BUFFER_HIT:    2521829
  ROW_BUFFER_MISS:    1002257
 AVG DBUS CONGESTED CYCLE: 3.954
WQ ROW_BUFFER_HIT: Channel 0 
  ROW_BUFFER_MISS:      83117
  FULL:     206123

Channel 1 RQ ROW_BUFFER_HIT:    2525836
  ROW_BUFFER_MISS:     999013
 AVG DBUS CONGESTED CYCLE: 3.952
WQ ROW_BUFFER_HIT: Channel 1 
  ROW_BUFFER_MISS:      86286
  FULL:     202511
BERTI TO_L1: 10098834 TO_L2: 234764767 TO_L2_BC_MSHR: 110185682
BERTI AVG_LAT: 172.983 NUM_TRACK_LATENCY: 7280330 NUM_CANT_TRACK_LATENCY: 498
BERTI CROSS_PAGE 59858598 NO_CROSS_PAGE: 185005003
BERTI FOUND_BERTI: 52371482 NO_FOUND_BERTI: 8682818
BERTI AVERAGE_ISSUED: 3.40452
CPU 0 L1I Entangling prefetcher final stats
IP accesses: 90 2400 5863 / 37640
IP misses: 3f12 fc480 13 / 255
IP hits: 0 0 0 / 0
IP late: 86 2180 3 / 150
IP wrong: 0 0 0 / 0
miss rate: 0.00677471
coverage: 0
coverage_late: 0.588236
accuracy: 0
accuracy_late: 1
discarded: 0
evicts entangled j table: 0
evicts entangled k table: 2
max bb size: 9
formats: 4 0 15 2 0 3 0 
hist_lookups: 1 1 7 2 2 0 2 3 3 4 4 4 2 0 0 0 0 240 
hist_lookups_evict: 0 %
hist_lookups_shortlat: 87.2728 %
bb_found_hist: 0 6133 1479 995 1384 128 42 3 0 3 0 0 0 0 0 0 0 0 0 0 0 0 0 0 0 0 0 0 0 0 0 0 0 0 0 0 0 0 0 0 0 0 0 0 0 0 0 0 0 0 0 0 0 0 0 0 0 0 0 0 0 0 0 0 
bb_found_summary: 18552 10167 1.82473
entangled_found_hist: 0 4388 1788 1900 117 0 3 0 
entangled_found_summary: 14150 8196 1.72646
bb_ent_found_hist: 0 3666 1087 2387 8 161 3 1113 0 3 0 0 0 0 0 0 0 0 0 0 0 0 0 0 0 0 0 0 0 0 0 0 0 0 0 0 0 0 0 0 0 0 0 0 0 0 0 0 0 0 0 0 0 0 0 0 0 0 0 0 0 0 0 0 
bb_ent_found_summary: 21674 8428 2.57167
