WARNING: physical memory size is smaller than virtual memory size.

*** ChampSim Multicore Out-of-Order Simulator ***
Warmup Instructions: 30000000
Simulation Instructions: 100000000
Number of CPUs: 1
Page size: 4096

BTB:
Basic BTB sets: 1024 ways: 8
Indirect:
history lengths: 0 0 10 16 27 44 60 96 109 219 449 487 714 1313 2146 3881 
ITTAGE tables: 64768 bytes;Region table: 240 bytes;IUM: 384 bytes;Total Storage= 65392 bytes;
RAS:
RAS size: 64
[LLC] Demand IPV: 1 2 2 1 4 Prefetch IPV: 1 2 1 1 4
Berti Prefetcher
CPU 0 Entangling prefetcher
Off-chip DRAM Size: 8 GiB Channels: 2 Width: 64-bit Data Race: 6400 MT/s
Heartbeat CPU 0 instructions: 10000007 cycles: 1666757 heartbeat IPC: 6 cumulative IPC: 6 (Simulation time: 00 hr 00 min 43 sec)
Heartbeat CPU 0 instructions: 20000007 cycles: 3339782 heartbeat IPC: 5.977 cumulative IPC: 5.988 (Simulation time: 00 hr 01 min 28 sec)
Heartbeat CPU 0 instructions: 30000001 cycles: 5012422 heartbeat IPC: 5.979 cumulative IPC: 5.985 (Simulation time: 00 hr 02 min 13 sec)
Warmup finished CPU 0 instructions: 30000001 cycles: 5012423 cumulative IPC: 5.985 (Simulation time: 00 hr 02 min 13 sec)
Warmup complete CPU 0 instructions: 30000001 cycles: 5012423 cumulative IPC: 5.985 (Simulation time: 00 hr 02 min 13 sec)
*** Reached end of trace: (0, "../traces/public_traces/compute_int/compute_int_1.champsimtrace.xz")
Heartbeat CPU 0 instructions: 40000005 cycles: 9247669 heartbeat IPC: 2.361 cumulative IPC: 2.361 (Simulation time: 00 hr 03 min 32 sec)
Heartbeat CPU 0 instructions: 50000010 cycles: 14508412 heartbeat IPC: 1.901 cumulative IPC: 2.106 (Simulation time: 00 hr 05 min 00 sec)
Heartbeat CPU 0 instructions: 60000007 cycles: 19832182 heartbeat IPC: 1.878 cumulative IPC: 2.024 (Simulation time: 00 hr 06 min 29 sec)
*** Reached end of trace: (0, "../traces/public_traces/compute_int/compute_int_1.champsimtrace.xz")
Heartbeat CPU 0 instructions: 70000002 cycles: 24114421 heartbeat IPC: 2.335 cumulative IPC: 2.094 (Simulation time: 00 hr 07 min 56 sec)
Heartbeat CPU 0 instructions: 80000007 cycles: 29177208 heartbeat IPC: 1.975 cumulative IPC: 2.069 (Simulation time: 00 hr 09 min 35 sec)
Heartbeat CPU 0 instructions: 90000000 cycles: 34340281 heartbeat IPC: 1.937 cumulative IPC: 2.046 (Simulation time: 00 hr 11 min 04 sec)
*** Reached end of trace: (0, "../traces/public_traces/compute_int/compute_int_1.champsimtrace.xz")
Heartbeat CPU 0 instructions: 100000003 cycles: 38635029 heartbeat IPC: 2.328 cumulative IPC: 2.082 (Simulation time: 00 hr 12 min 25 sec)
Heartbeat CPU 0 instructions: 110000010 cycles: 43558583 heartbeat IPC: 2.031 cumulative IPC: 2.075 (Simulation time: 00 hr 13 min 51 sec)
Heartbeat CPU 0 instructions: 120000005 cycles: 48683973 heartbeat IPC: 1.951 cumulative IPC: 2.061 (Simulation time: 00 hr 15 min 23 sec)
*** Reached end of trace: (0, "../traces/public_traces/compute_int/compute_int_1.champsimtrace.xz")
Heartbeat CPU 0 instructions: 130000002 cycles: 52988704 heartbeat IPC: 2.323 cumulative IPC: 2.084 (Simulation time: 00 hr 16 min 47 sec)
Simulation finished CPU 0 instructions: 100000001 cycles: 47976282 cumulative IPC: 2.084 (Simulation time: 00 hr 16 min 47 sec)
Simulation complete CPU 0 instructions: 100000001 cycles: 47976282 cumulative IPC: 2.084 (Simulation time: 00 hr 16 min 47 sec)

ChampSim completed all CPUs

=== Simulation ===
CPU 0 runs ../traces/public_traces/compute_int/compute_int_1.champsimtrace.xz
Region of Interest Statistics

CPU 0 cumulative IPC: 2.084 instructions: 100000001 cycles: 47976282
CPU 0 Branch Prediction Accuracy: 99.3% MPKI: 1.289 Average ROB Occupancy at Mispredict: 195.5
Branch type MPKI
BRANCH_DIRECT_JUMP: 0
BRANCH_INDIRECT: 1.19
BRANCH_CONDITIONAL: 0.0985
BRANCH_DIRECT_CALL: 0
BRANCH_INDIRECT_CALL: 1e-05
BRANCH_RETURN: 0.00276

LLC TOTAL        ACCESS:    1122807 HIT:     199346 MISS:     923461
LLC LOAD         ACCESS:     475118 HIT:      79137 MISS:     395981
LLC RFO          ACCESS:       1437 HIT:       1303 MISS:        134
LLC PREFETCH     ACCESS:     601424 HIT:      93372 MISS:     508052
LLC WRITE        ACCESS:      19230 HIT:      17817 MISS:       1413
LLC TRANSLATION  ACCESS:      25598 HIT:       7717 MISS:      17881
LLC PREFETCH REQUESTED:          0 ISSUED:          0 USEFUL:          0 USELESS:          0
LLC AVERAGE MISS LATENCY: 174.7 cycles
cpu0_DTLB TOTAL        ACCESS:   17170923 HIT:   16774237 MISS:     396686
cpu0_DTLB LOAD         ACCESS:   17170923 HIT:   16774237 MISS:     396686
cpu0_DTLB RFO          ACCESS:          0 HIT:          0 MISS:          0
cpu0_DTLB PREFETCH     ACCESS:          0 HIT:          0 MISS:          0
cpu0_DTLB WRITE        ACCESS:          0 HIT:          0 MISS:          0
cpu0_DTLB TRANSLATION  ACCESS:          0 HIT:          0 MISS:          0
cpu0_DTLB PREFETCH REQUESTED:          0 ISSUED:          0 USEFUL:          0 USELESS:          0
cpu0_DTLB AVERAGE MISS LATENCY: 13.11 cycles
cpu0_ITLB TOTAL        ACCESS:      78166 HIT:      78166 MISS:          0
cpu0_ITLB LOAD         ACCESS:      78166 HIT:      78166 MISS:          0
cpu0_ITLB RFO          ACCESS:          0 HIT:          0 MISS:          0
cpu0_ITLB PREFETCH     ACCESS:          0 HIT:          0 MISS:          0
cpu0_ITLB WRITE        ACCESS:          0 HIT:          0 MISS:          0
cpu0_ITLB TRANSLATION  ACCESS:          0 HIT:          0 MISS:          0
cpu0_ITLB PREFETCH REQUESTED:          0 ISSUED:          0 USEFUL:          0 USELESS:          0
cpu0_ITLB AVERAGE MISS LATENCY: -nan cycles
cpu0_L1D TOTAL        ACCESS:   23479156 HIT:   20574643 MISS:    2904513
cpu0_L1D LOAD         ACCESS:   18843156 HIT:   16271800 MISS:    2571356
cpu0_L1D RFO          ACCESS:          0 HIT:          0 MISS:          0
cpu0_L1D PREFETCH     ACCESS:     395251 HIT:     124759 MISS:     270492
cpu0_L1D WRITE        ACCESS:    4190639 HIT:    4171133 MISS:      19506
cpu0_L1D TRANSLATION  ACCESS:      50110 HIT:       6951 MISS:      43159
cpu0_L1D PREFETCH REQUESTED:     463959 ISSUED:     395251 USEFUL:       9340 USELESS:      24506
cpu0_L1D AVERAGE MISS LATENCY: 30.05 cycles
cpu0_L1I TOTAL        ACCESS:     116807 HIT:     115621 MISS:       1186
cpu0_L1I LOAD         ACCESS:      33941 HIT:      33415 MISS:        526
cpu0_L1I RFO          ACCESS:          0 HIT:          0 MISS:          0
cpu0_L1I PREFETCH     ACCESS:      82866 HIT:      82206 MISS:        660
cpu0_L1I WRITE        ACCESS:          0 HIT:          0 MISS:          0
cpu0_L1I TRANSLATION  ACCESS:          0 HIT:          0 MISS:          0
cpu0_L1I PREFETCH REQUESTED:      84878 ISSUED:      82866 USEFUL:        488 USELESS:         14
cpu0_L1I AVERAGE MISS LATENCY: 131.7 cycles
cpu0_L2C TOTAL        ACCESS:    2154145 HIT:     773754 MISS:    1380391
cpu0_L2C LOAD         ACCESS:     769415 HIT:     259809 MISS:     509606
cpu0_L2C RFO          ACCESS:       6116 HIT:       4679 MISS:       1437
cpu0_L2C PREFETCH     ACCESS:    1283953 HIT:     440339 MISS:     843614
cpu0_L2C WRITE        ACCESS:      51591 HIT:      51455 MISS:        136
cpu0_L2C TRANSLATION  ACCESS:      43070 HIT:      17472 MISS:      25598
cpu0_L2C PREFETCH REQUESTED:    1041730 ISSUED:    1025265 USEFUL:     193526 USELESS:     320250
cpu0_L2C AVERAGE MISS LATENCY: 132.2 cycles
cpu0_STLB TOTAL        ACCESS:     139668 HIT:      91058 MISS:      48610
cpu0_STLB LOAD         ACCESS:     139668 HIT:      91058 MISS:      48610
cpu0_STLB RFO          ACCESS:          0 HIT:          0 MISS:          0
cpu0_STLB PREFETCH     ACCESS:          0 HIT:          0 MISS:          0
cpu0_STLB WRITE        ACCESS:          0 HIT:          0 MISS:          0
cpu0_STLB TRANSLATION  ACCESS:          0 HIT:          0 MISS:          0
cpu0_STLB PREFETCH REQUESTED:          0 ISSUED:          0 USEFUL:          0 USELESS:          0
cpu0_STLB AVERAGE MISS LATENCY: 112.5 cycles

DRAM Statistics

Channel 0 RQ ROW_BUFFER_HIT:     130096
  ROW_BUFFER_MISS:     343233
 AVG DBUS CONGESTED CYCLE: 3.846
WQ ROW_BUFFER_HIT: Channel 0 
  ROW_BUFFER_MISS:        503
  FULL:        285

Channel 1 RQ ROW_BUFFER_HIT:     126468
  ROW_BUFFER_MISS:     322250
 AVG DBUS CONGESTED CYCLE: 3.831
WQ ROW_BUFFER_HIT: Channel 1 
  ROW_BUFFER_MISS:        374
  FULL:        285
BERTI TO_L1: 164849 TO_L2: 556970 TO_L2_BC_MSHR: 31820
BERTI AVG_LAT: 91.8637 NUM_TRACK_LATENCY: 1052637 NUM_CANT_TRACK_LATENCY: 0
BERTI CROSS_PAGE 128476 NO_CROSS_PAGE: 593343
BERTI FOUND_BERTI: 9579223 NO_FOUND_BERTI: 15290652
BERTI AVERAGE_ISSUED: 2.99824
CPU 0 L1I Entangling prefetcher final stats
IP accesses: 46a9 11aa40 1513 / 33941
IP misses: 30aa c2a80 12 / 526
IP hits: 0 0 0 / 0
IP late: 24a 9280 6 / 342
IP wrong: 46ef 11bbc0 3 / 14
miss rate: 0.0154975
coverage: 0
coverage_late: 0.650191
accuracy: 0
accuracy_late: 0.960675
discarded: 0
evicts entangled j table: 0
evicts entangled k table: 12
max bb size: 11
formats: 10 0 10 4 5 8 0 
hist_lookups: 3 4 5 5 15 10 11 4 5 3 4 1 0 2 1 0 15 449 
hist_lookups_evict: 2.7933 %
hist_lookups_shortlat: 83.6127 %
bb_found_hist: 0 8190 3840 3700 613 764 813 0 0 0 0 6 0 0 0 0 0 0 0 0 0 0 0 0 0 0 0 0 0 0 0 0 0 0 0 0 0 0 0 0 0 0 0 0 0 0 0 0 0 0 0 0 0 0 0 0 0 0 0 0 0 0 0 0 
bb_found_summary: 38186 17926 2.13021
entangled_found_hist: 0 6515 1621 1872 772 247 78 0 
entangled_found_summary: 20164 11105 1.81576
bb_ent_found_hist: 0 2355 6993 2301 36 688 38 0 0 0 0 6 0 0 0 0 0 0 0 0 0 0 0 0 0 0 0 0 0 0 0 0 0 0 0 0 0 0 0 0 0 0 0 0 0 0 0 0 0 0 0 0 0 0 0 0 0 0 0 0 0 0 0 0 
bb_ent_found_summary: 27122 12417 2.18427
