WARNING: physical memory size is smaller than virtual memory size.

*** ChampSim Multicore Out-of-Order Simulator ***
Warmup Instructions: 30000000
Simulation Instructions: 100000000
Number of CPUs: 1
Page size: 4096

BTB:
Basic BTB sets: 1024 ways: 8
Indirect:
history lengths: 0 0 10 16 27 44 60 96 109 219 449 487 714 1313 2146 3881 
ITTAGE tables: 64768 bytes;Region table: 240 bytes;IUM: 384 bytes;Total Storage= 65392 bytes;
RAS:
RAS size: 64
[LLC] Demand IPV: 1 2 2 1 4 Prefetch IPV: 1 2 1 1 4
Berti Prefetcher
CPU 0 Entangling prefetcher
Off-chip DRAM Size: 8 GiB Channels: 2 Width: 64-bit Data Race: 6400 MT/s
Heartbeat CPU 0 instructions: 10000003 cycles: 1667190 heartbeat IPC: 5.998 cumulative IPC: 5.998 (Simulation time: 00 hr 00 min 38 sec)
Heartbeat CPU 0 instructions: 20000002 cycles: 3339842 heartbeat IPC: 5.979 cumulative IPC: 5.988 (Simulation time: 00 hr 01 min 14 sec)
Heartbeat CPU 0 instructions: 30000001 cycles: 5010224 heartbeat IPC: 5.987 cumulative IPC: 5.988 (Simulation time: 00 hr 01 min 48 sec)
Warmup finished CPU 0 instructions: 30000001 cycles: 5010225 cumulative IPC: 5.988 (Simulation time: 00 hr 01 min 48 sec)
Warmup complete CPU 0 instructions: 30000001 cycles: 5010225 cumulative IPC: 5.988 (Simulation time: 00 hr 01 min 48 sec)
*** Reached end of trace: (0, "../traces/public_traces/compute_int/compute_int_44.champsimtrace.xz")
Heartbeat CPU 0 instructions: 40000005 cycles: 9956938 heartbeat IPC: 2.022 cumulative IPC: 2.022 (Simulation time: 00 hr 02 min 44 sec)
Heartbeat CPU 0 instructions: 50000005 cycles: 14265100 heartbeat IPC: 2.321 cumulative IPC: 2.161 (Simulation time: 00 hr 03 min 38 sec)
Heartbeat CPU 0 instructions: 60000006 cycles: 18372079 heartbeat IPC: 2.435 cumulative IPC: 2.245 (Simulation time: 00 hr 04 min 33 sec)
*** Reached end of trace: (0, "../traces/public_traces/compute_int/compute_int_44.champsimtrace.xz")
Heartbeat CPU 0 instructions: 70000000 cycles: 23219285 heartbeat IPC: 2.063 cumulative IPC: 2.197 (Simulation time: 00 hr 05 min 34 sec)
Heartbeat CPU 0 instructions: 80000004 cycles: 27464972 heartbeat IPC: 2.355 cumulative IPC: 2.227 (Simulation time: 00 hr 06 min 34 sec)
Heartbeat CPU 0 instructions: 90000007 cycles: 31471753 heartbeat IPC: 2.496 cumulative IPC: 2.267 (Simulation time: 00 hr 07 min 30 sec)
*** Reached end of trace: (0, "../traces/public_traces/compute_int/compute_int_44.champsimtrace.xz")
Heartbeat CPU 0 instructions: 100000006 cycles: 36383926 heartbeat IPC: 2.036 cumulative IPC: 2.231 (Simulation time: 00 hr 08 min 27 sec)
Heartbeat CPU 0 instructions: 110000009 cycles: 40709005 heartbeat IPC: 2.312 cumulative IPC: 2.241 (Simulation time: 00 hr 09 min 30 sec)
Heartbeat CPU 0 instructions: 120000001 cycles: 44580616 heartbeat IPC: 2.583 cumulative IPC: 2.274 (Simulation time: 00 hr 10 min 42 sec)
*** Reached end of trace: (0, "../traces/public_traces/compute_int/compute_int_44.champsimtrace.xz")
Heartbeat CPU 0 instructions: 130000008 cycles: 49435175 heartbeat IPC: 2.06 cumulative IPC: 2.251 (Simulation time: 00 hr 11 min 51 sec)
Simulation finished CPU 0 instructions: 100000007 cycles: 44424951 cumulative IPC: 2.251 (Simulation time: 00 hr 11 min 51 sec)
Simulation complete CPU 0 instructions: 100000007 cycles: 44424951 cumulative IPC: 2.251 (Simulation time: 00 hr 11 min 51 sec)

ChampSim completed all CPUs

=== Simulation ===
CPU 0 runs ../traces/public_traces/compute_int/compute_int_44.champsimtrace.xz
Region of Interest Statistics

CPU 0 cumulative IPC: 2.251 instructions: 100000007 cycles: 44424951
CPU 0 Branch Prediction Accuracy: 94.54% MPKI: 9.039 Average ROB Occupancy at Mispredict: 27.81
Branch type MPKI
BRANCH_DIRECT_JUMP: 0
BRANCH_INDIRECT: 1.21
BRANCH_CONDITIONAL: 7.83
BRANCH_DIRECT_CALL: 0
BRANCH_INDIRECT_CALL: 9e-05
BRANCH_RETURN: 6e-05

LLC TOTAL        ACCESS:     544743 HIT:     369232 MISS:     175511
LLC LOAD         ACCESS:     158732 HIT:     118089 MISS:      40643
LLC RFO          ACCESS:      36064 HIT:      24711 MISS:      11353
LLC PREFETCH     ACCESS:     174676 HIT:      86501 MISS:      88175
LLC WRITE        ACCESS:     165492 HIT:     135306 MISS:      30186
LLC TRANSLATION  ACCESS:       9779 HIT:       4625 MISS:       5154
LLC PREFETCH REQUESTED:          0 ISSUED:          0 USEFUL:          0 USELESS:          0
LLC AVERAGE MISS LATENCY: 139.8 cycles
cpu0_DTLB TOTAL        ACCESS:   16992338 HIT:   16418089 MISS:     574249
cpu0_DTLB LOAD         ACCESS:   16992338 HIT:   16418089 MISS:     574249
cpu0_DTLB RFO          ACCESS:          0 HIT:          0 MISS:          0
cpu0_DTLB PREFETCH     ACCESS:          0 HIT:          0 MISS:          0
cpu0_DTLB WRITE        ACCESS:          0 HIT:          0 MISS:          0
cpu0_DTLB TRANSLATION  ACCESS:          0 HIT:          0 MISS:          0
cpu0_DTLB PREFETCH REQUESTED:          0 ISSUED:          0 USEFUL:          0 USELESS:          0
cpu0_DTLB AVERAGE MISS LATENCY: 9.47 cycles
cpu0_ITLB TOTAL        ACCESS:    1807958 HIT:    1807958 MISS:          0
cpu0_ITLB LOAD         ACCESS:    1807958 HIT:    1807958 MISS:          0
cpu0_ITLB RFO          ACCESS:          0 HIT:          0 MISS:          0
cpu0_ITLB PREFETCH     ACCESS:          0 HIT:          0 MISS:          0
cpu0_ITLB WRITE        ACCESS:          0 HIT:          0 MISS:          0
cpu0_ITLB TRANSLATION  ACCESS:          0 HIT:          0 MISS:          0
cpu0_ITLB PREFETCH REQUESTED:          0 ISSUED:          0 USEFUL:          0 USELESS:          0
cpu0_ITLB AVERAGE MISS LATENCY: -nan cycles
cpu0_L1D TOTAL        ACCESS:   24761659 HIT:   23631678 MISS:    1129981
cpu0_L1D LOAD         ACCESS:   19307443 HIT:   18554769 MISS:     752674
cpu0_L1D RFO          ACCESS:          0 HIT:          0 MISS:          0
cpu0_L1D PREFETCH     ACCESS:     832600 HIT:     700850 MISS:     131750
cpu0_L1D WRITE        ACCESS:    4556027 HIT:    4370371 MISS:     185656
cpu0_L1D TRANSLATION  ACCESS:      65589 HIT:       5688 MISS:      59901
cpu0_L1D PREFETCH REQUESTED:    1493365 ISSUED:     832600 USEFUL:       6760 USELESS:       1507
cpu0_L1D AVERAGE MISS LATENCY: 16.75 cycles
cpu0_L1I TOTAL        ACCESS:    2933486 HIT:    2928615 MISS:       4871
cpu0_L1I LOAD         ACCESS:     738220 HIT:     736324 MISS:       1896
cpu0_L1I RFO          ACCESS:          0 HIT:          0 MISS:          0
cpu0_L1I PREFETCH     ACCESS:    2195266 HIT:    2192291 MISS:       2975
cpu0_L1I WRITE        ACCESS:          0 HIT:          0 MISS:          0
cpu0_L1I TRANSLATION  ACCESS:          0 HIT:          0 MISS:          0
cpu0_L1I PREFETCH REQUESTED:    5291856 ISSUED:    2195233 USEFUL:       2266 USELESS:        115
cpu0_L1I AVERAGE MISS LATENCY: 163.2 cycles
cpu0_L2C TOTAL        ACCESS:    1761155 HIT:    1350717 MISS:     410438
cpu0_L2C LOAD         ACCESS:     468631 HIT:     308043 MISS:     160588
cpu0_L2C RFO          ACCESS:     115342 HIT:      79273 MISS:      36069
cpu0_L2C PREFETCH     ACCESS:     707681 HIT:     503792 MISS:     203889
cpu0_L2C WRITE        ACCESS:     409674 HIT:     409561 MISS:        113
cpu0_L2C TRANSLATION  ACCESS:      59827 HIT:      50048 MISS:       9779
cpu0_L2C PREFETCH REQUESTED:     594746 ISSUED:     581566 USEFUL:      33698 USELESS:     134057
cpu0_L2C AVERAGE MISS LATENCY: 78.37 cycles
cpu0_STLB TOTAL        ACCESS:     437345 HIT:     371898 MISS:      65447
cpu0_STLB LOAD         ACCESS:     437345 HIT:     371898 MISS:      65447
cpu0_STLB RFO          ACCESS:          0 HIT:          0 MISS:          0
cpu0_STLB PREFETCH     ACCESS:          0 HIT:          0 MISS:          0
cpu0_STLB WRITE        ACCESS:          0 HIT:          0 MISS:          0
cpu0_STLB TRANSLATION  ACCESS:          0 HIT:          0 MISS:          0
cpu0_STLB PREFETCH REQUESTED:          0 ISSUED:          0 USEFUL:          0 USELESS:          0
cpu0_STLB AVERAGE MISS LATENCY: 33.89 cycles

DRAM Statistics

Channel 0 RQ ROW_BUFFER_HIT:       6638
  ROW_BUFFER_MISS:      66869
 AVG DBUS CONGESTED CYCLE: 3.72
WQ ROW_BUFFER_HIT: Channel 0 
  ROW_BUFFER_MISS:       3410
  FULL:      13440

Channel 1 RQ ROW_BUFFER_HIT:       6571
  ROW_BUFFER_MISS:      65242
 AVG DBUS CONGESTED CYCLE: 3.721
WQ ROW_BUFFER_HIT: Channel 1 
  ROW_BUFFER_MISS:       3214
  FULL:      12823
BERTI TO_L1: 1307439 TO_L2: 664153 TO_L2_BC_MSHR: 36958
BERTI AVG_LAT: 26.2745 NUM_TRACK_LATENCY: 617077 NUM_CANT_TRACK_LATENCY: 0
BERTI CROSS_PAGE 176298 NO_CROSS_PAGE: 1795294
BERTI FOUND_BERTI: 8582599 NO_FOUND_BERTI: 16551531
BERTI AVERAGE_ISSUED: 2.84583
CPU 0 L1I Entangling prefetcher final stats
IP accesses: 2df b7c0 19183 / 742598
IP misses: 4fc4 13f100 398 / 6274
IP hits: 0 0 0 / 0
IP late: 40 1000 17 / 1061
IP wrong: 43 10c0 11 / 114
miss rate: 0.00844872
coverage: 0
coverage_late: 0.169111
accuracy: 0
accuracy_late: 0.902979
discarded: 0
evicts entangled j table: 0
evicts entangled k table: 151
max bb size: 22
formats: 31 0 163 44 32 72 0 
hist_lookups: 76 86 76 75 66 68 53 59 60 40 36 28 24 15 11 0 0 719 
hist_lookups_evict: 0 %
hist_lookups_shortlat: 48.1904 %
bb_found_hist: 0 81988 73693 67011 59991 37084 46181 15495 25367 30007 19410 17929 12612 4900 2792 1764 1728 1881 0 6720 2936 0 10729 0 0 0 0 0 0 0 0 0 0 0 0 0 0 0 0 0 0 0 0 0 0 0 0 0 0 0 0 0 0 0 0 0 0 0 0 0 0 0 0 0 
bb_found_summary: 2868315 520218 5.51368
entangled_found_hist: 0 75206 52695 19004 14518 6377 5939 0 
entangled_found_summary: 363199 173739 2.09049
bb_ent_found_hist: 0 41134 39907 13959 34538 14510 45331 14654 18210 5414 2019 25555 10405 14857 8379 10701 0 0 0 3076 5167 0 2833 0 0 0 0 0 0 0 0 0 0 0 0 0 0 0 0 0 0 0 0 0 0 0 0 0 0 0 0 0 0 0 0 0 0 0 0 0 0 0 0 0 
bb_ent_found_summary: 2063724 310649 6.64327
