WARNING: physical memory size is smaller than virtual memory size.

*** ChampSim Multicore Out-of-Order Simulator ***
Warmup Instructions: 30000000
Simulation Instructions: 100000000
Number of CPUs: 1
Page size: 4096

BTB:
Basic BTB sets: 1024 ways: 8
Indirect:
history lengths: 0 0 10 16 27 44 60 96 109 219 449 487 714 1313 2146 3881 
ITTAGE tables: 64768 bytes;Region table: 240 bytes;IUM: 384 bytes;Total Storage= 65392 bytes;
RAS:
RAS size: 64
[LLC] Demand IPV: 1 2 2 1 4 Prefetch IPV: 1 2 1 1 4
Berti Prefetcher
CPU 0 Entangling prefetcher
Off-chip DRAM Size: 8 GiB Channels: 2 Width: 64-bit Data Race: 6400 MT/s
Heartbeat CPU 0 instructions: 10000008 cycles: 1667374 heartbeat IPC: 5.997 cumulative IPC: 5.997 (Simulation time: 00 hr 00 min 41 sec)
Heartbeat CPU 0 instructions: 20000001 cycles: 3334543 heartbeat IPC: 5.998 cumulative IPC: 5.998 (Simulation time: 00 hr 01 min 21 sec)
Heartbeat CPU 0 instructions: 30000008 cycles: 5001777 heartbeat IPC: 5.998 cumulative IPC: 5.998 (Simulation time: 00 hr 02 min 02 sec)
Warmup finished CPU 0 instructions: 30000008 cycles: 5001778 cumulative IPC: 5.998 (Simulation time: 00 hr 02 min 02 sec)
Warmup complete CPU 0 instructions: 30000008 cycles: 5001778 cumulative IPC: 5.998 (Simulation time: 00 hr 02 min 02 sec)
*** Reached end of trace: (0, "../traces/public_traces/compute_int/compute_int_46.champsimtrace.xz")
Heartbeat CPU 0 instructions: 40000000 cycles: 13196988 heartbeat IPC: 1.22 cumulative IPC: 1.22 (Simulation time: 00 hr 03 min 34 sec)
Heartbeat CPU 0 instructions: 50000010 cycles: 17974823 heartbeat IPC: 2.093 cumulative IPC: 1.542 (Simulation time: 00 hr 04 min 42 sec)
Heartbeat CPU 0 instructions: 60000001 cycles: 24184168 heartbeat IPC: 1.61 cumulative IPC: 1.564 (Simulation time: 00 hr 05 min 59 sec)
*** Reached end of trace: (0, "../traces/public_traces/compute_int/compute_int_46.champsimtrace.xz")
Heartbeat CPU 0 instructions: 70000001 cycles: 32170629 heartbeat IPC: 1.252 cumulative IPC: 1.472 (Simulation time: 00 hr 07 min 29 sec)
Heartbeat CPU 0 instructions: 80000005 cycles: 36801979 heartbeat IPC: 2.159 cumulative IPC: 1.572 (Simulation time: 00 hr 08 min 36 sec)
Heartbeat CPU 0 instructions: 90000004 cycles: 43021662 heartbeat IPC: 1.608 cumulative IPC: 1.578 (Simulation time: 00 hr 09 min 58 sec)
*** Reached end of trace: (0, "../traces/public_traces/compute_int/compute_int_46.champsimtrace.xz")
Heartbeat CPU 0 instructions: 100000005 cycles: 50896472 heartbeat IPC: 1.27 cumulative IPC: 1.525 (Simulation time: 00 hr 11 min 40 sec)
Heartbeat CPU 0 instructions: 110000000 cycles: 55490697 heartbeat IPC: 2.177 cumulative IPC: 1.585 (Simulation time: 00 hr 12 min 49 sec)
Heartbeat CPU 0 instructions: 120000001 cycles: 61688857 heartbeat IPC: 1.613 cumulative IPC: 1.588 (Simulation time: 00 hr 14 min 00 sec)
*** Reached end of trace: (0, "../traces/public_traces/compute_int/compute_int_46.champsimtrace.xz")
Heartbeat CPU 0 instructions: 130000002 cycles: 69389726 heartbeat IPC: 1.299 cumulative IPC: 1.553 (Simulation time: 00 hr 15 min 29 sec)
Simulation finished CPU 0 instructions: 100000000 cycles: 64387961 cumulative IPC: 1.553 (Simulation time: 00 hr 15 min 29 sec)
Simulation complete CPU 0 instructions: 100000000 cycles: 64387961 cumulative IPC: 1.553 (Simulation time: 00 hr 15 min 29 sec)

ChampSim completed all CPUs

=== Simulation ===
CPU 0 runs ../traces/public_traces/compute_int/compute_int_46.champsimtrace.xz
Region of Interest Statistics

CPU 0 cumulative IPC: 1.553 instructions: 100000000 cycles: 64387961
CPU 0 Branch Prediction Accuracy: 95.66% MPKI: 7.323 Average ROB Occupancy at Mispredict: 34.06
Branch type MPKI
BRANCH_DIRECT_JUMP: 0
BRANCH_INDIRECT: 0.563
BRANCH_CONDITIONAL: 6.76
BRANCH_DIRECT_CALL: 0
BRANCH_INDIRECT_CALL: 0.00012
BRANCH_RETURN: 0

LLC TOTAL        ACCESS:    1017196 HIT:     437566 MISS:     579630
LLC LOAD         ACCESS:     289946 HIT:     154021 MISS:     135925
LLC RFO          ACCESS:      21242 HIT:      17276 MISS:       3966
LLC PREFETCH     ACCESS:     307735 HIT:      80869 MISS:     226866
LLC WRITE        ACCESS:     214452 HIT:     168909 MISS:      45543
LLC TRANSLATION  ACCESS:     183821 HIT:      16491 MISS:     167330
LLC PREFETCH REQUESTED:          0 ISSUED:          0 USEFUL:          0 USELESS:          0
LLC AVERAGE MISS LATENCY: 158.8 cycles
cpu0_DTLB TOTAL        ACCESS:   16564642 HIT:   15956886 MISS:     607756
cpu0_DTLB LOAD         ACCESS:   16564642 HIT:   15956886 MISS:     607756
cpu0_DTLB RFO          ACCESS:          0 HIT:          0 MISS:          0
cpu0_DTLB PREFETCH     ACCESS:          0 HIT:          0 MISS:          0
cpu0_DTLB WRITE        ACCESS:          0 HIT:          0 MISS:          0
cpu0_DTLB TRANSLATION  ACCESS:          0 HIT:          0 MISS:          0
cpu0_DTLB PREFETCH REQUESTED:          0 ISSUED:          0 USEFUL:          0 USELESS:          0
cpu0_DTLB AVERAGE MISS LATENCY: 64.33 cycles
cpu0_ITLB TOTAL        ACCESS:     920849 HIT:     920849 MISS:          0
cpu0_ITLB LOAD         ACCESS:     920849 HIT:     920849 MISS:          0
cpu0_ITLB RFO          ACCESS:          0 HIT:          0 MISS:          0
cpu0_ITLB PREFETCH     ACCESS:          0 HIT:          0 MISS:          0
cpu0_ITLB WRITE        ACCESS:          0 HIT:          0 MISS:          0
cpu0_ITLB TRANSLATION  ACCESS:          0 HIT:          0 MISS:          0
cpu0_ITLB PREFETCH REQUESTED:          0 ISSUED:          0 USEFUL:          0 USELESS:          0
cpu0_ITLB AVERAGE MISS LATENCY: -nan cycles
cpu0_L1D TOTAL        ACCESS:   23247030 HIT:   21960391 MISS:    1286639
cpu0_L1D LOAD         ACCESS:   19273920 HIT:   18373782 MISS:     900138
cpu0_L1D RFO          ACCESS:          0 HIT:          0 MISS:          0
cpu0_L1D PREFETCH     ACCESS:     319183 HIT:     260735 MISS:      58448
cpu0_L1D WRITE        ACCESS:    3357111 HIT:    3269599 MISS:      87512
cpu0_L1D TRANSLATION  ACCESS:     296816 HIT:      56275 MISS:     240541
cpu0_L1D PREFETCH REQUESTED:     487462 ISSUED:     319183 USEFUL:       2422 USELESS:       1157
cpu0_L1D AVERAGE MISS LATENCY: 55.08 cycles
cpu0_L1I TOTAL        ACCESS:    1513523 HIT:    1509272 MISS:       4251
cpu0_L1I LOAD         ACCESS:     307017 HIT:     305393 MISS:       1624
cpu0_L1I RFO          ACCESS:          0 HIT:          0 MISS:          0
cpu0_L1I PREFETCH     ACCESS:    1206506 HIT:    1203879 MISS:       2627
cpu0_L1I WRITE        ACCESS:          0 HIT:          0 MISS:          0
cpu0_L1I TRANSLATION  ACCESS:          0 HIT:          0 MISS:          0
cpu0_L1I PREFETCH REQUESTED:    1693543 ISSUED:    1206506 USEFUL:       2135 USELESS:         38
cpu0_L1I AVERAGE MISS LATENCY: 105.7 cycles
cpu0_L2C TOTAL        ACCESS:    1835602 HIT:    1022111 MISS:     813491
cpu0_L2C LOAD         ACCESS:     534028 HIT:     243385 MISS:     290643
cpu0_L2C RFO          ACCESS:      61457 HIT:      40208 MISS:      21249
cpu0_L2C PREFETCH     ACCESS:     639614 HIT:     321970 MISS:     317644
cpu0_L2C WRITE        ACCESS:     360392 HIT:     360259 MISS:        133
cpu0_L2C TRANSLATION  ACCESS:     240111 HIT:      56289 MISS:     183822
cpu0_L2C PREFETCH REQUESTED:     589410 ISSUED:     584727 USEFUL:      31550 USELESS:     269265
cpu0_L2C AVERAGE MISS LATENCY: 133.5 cycles
cpu0_STLB TOTAL        ACCESS:     405560 HIT:     204856 MISS:     200704
cpu0_STLB LOAD         ACCESS:     405560 HIT:     204856 MISS:     200704
cpu0_STLB RFO          ACCESS:          0 HIT:          0 MISS:          0
cpu0_STLB PREFETCH     ACCESS:          0 HIT:          0 MISS:          0
cpu0_STLB WRITE        ACCESS:          0 HIT:          0 MISS:          0
cpu0_STLB TRANSLATION  ACCESS:          0 HIT:          0 MISS:          0
cpu0_STLB PREFETCH REQUESTED:          0 ISSUED:          0 USEFUL:          0 USELESS:          0
cpu0_STLB AVERAGE MISS LATENCY: 180.3 cycles

DRAM Statistics

Channel 0 RQ ROW_BUFFER_HIT:      39085
  ROW_BUFFER_MISS:     228375
 AVG DBUS CONGESTED CYCLE: 3.655
WQ ROW_BUFFER_HIT: Channel 0 
  ROW_BUFFER_MISS:       8794
  FULL:      14987

Channel 1 RQ ROW_BUFFER_HIT:      38838
  ROW_BUFFER_MISS:     227787
 AVG DBUS CONGESTED CYCLE: 3.656
WQ ROW_BUFFER_HIT: Channel 1 
  ROW_BUFFER_MISS:       8622
  FULL:      14886
BERTI TO_L1: 356871 TO_L2: 262026 TO_L2_BC_MSHR: 579
BERTI AVG_LAT: 53.6317 NUM_TRACK_LATENCY: 692649 NUM_CANT_TRACK_LATENCY: 0
BERTI CROSS_PAGE 81939 NO_CROSS_PAGE: 536958
BERTI FOUND_BERTI: 7972700 NO_FOUND_BERTI: 17031891
BERTI AVERAGE_ISSUED: 2.57765
CPU 0 L1I Entangling prefetcher final stats
IP accesses: 2e0 b800 26662 / 307834
IP misses: 5032 140c80 106 / 2441
IP hits: 0 0 0 / 0
IP late: 2ae ab80 7 / 831
IP wrong: 80 2000 7 / 38
miss rate: 0.0079296
coverage: 0
coverage_late: 0.340435
accuracy: 0
accuracy_late: 0.956272
discarded: 0
evicts entangled j table: 0
evicts entangled k table: 33
max bb size: 22
formats: 22 0 32 20 6 18 0 
hist_lookups: 26 41 23 19 10 15 13 18 21 14 12 7 5 4 0 0 0 724 
hist_lookups_evict: 0 %
hist_lookups_shortlat: 76.0505 %
bb_found_hist: 0 21256 38057 27853 24132 5688 23705 5810 20542 15669 335 4447 1551 1114 372 188 0 0 0 0 5891 0 5470 0 0 0 0 0 0 0 0 0 0 0 0 0 0 0 0 0 0 0 0 0 0 0 0 0 0 0 0 0 0 0 0 0 0 0 0 0 0 0 0 0 
bb_found_summary: 1125703 202080 5.57059
entangled_found_hist: 0 34411 24826 1516 5096 1559 0 0 
entangled_found_summary: 116790 67408 1.73259
bb_ent_found_hist: 0 19921 29339 4080 3185 6427 20552 5433 812 247 33 2123 707 5593 864 0 0 0 0 0 0 0 1496 0 0 0 0 0 0 0 0 0 0 0 0 0 0 0 0 0 0 0 0 0 0 0 0 0 0 0 0 0 0 0 0 0 0 0 0 0 0 0 0 0 
bb_ent_found_summary: 455660 100812 4.5199
