WARNING: physical memory size is smaller than virtual memory size.

*** ChampSim Multicore Out-of-Order Simulator ***
Warmup Instructions: 30000000
Simulation Instructions: 100000000
Number of CPUs: 1
Page size: 4096

BTB:
Basic BTB sets: 1024 ways: 8
Indirect:
history lengths: 0 0 10 16 27 44 60 96 109 219 449 487 714 1313 2146 3881 
ITTAGE tables: 64768 bytes;Region table: 240 bytes;IUM: 384 bytes;Total Storage= 65392 bytes;
RAS:
RAS size: 64
[LLC] Demand IPV: 1 2 2 1 4 Prefetch IPV: 1 2 1 1 4
Berti Prefetcher
CPU 0 Entangling prefetcher
Off-chip DRAM Size: 8 GiB Channels: 2 Width: 64-bit Data Race: 6400 MT/s
Heartbeat CPU 0 instructions: 10000003 cycles: 1832249 heartbeat IPC: 5.458 cumulative IPC: 5.458 (Simulation time: 00 hr 00 min 45 sec)
Heartbeat CPU 0 instructions: 20000001 cycles: 3575068 heartbeat IPC: 5.738 cumulative IPC: 5.594 (Simulation time: 00 hr 01 min 27 sec)
Heartbeat CPU 0 instructions: 30000003 cycles: 5298862 heartbeat IPC: 5.801 cumulative IPC: 5.662 (Simulation time: 00 hr 02 min 10 sec)
Warmup finished CPU 0 instructions: 30000003 cycles: 5298863 cumulative IPC: 5.662 (Simulation time: 00 hr 02 min 10 sec)
Warmup complete CPU 0 instructions: 30000003 cycles: 5298863 cumulative IPC: 5.662 (Simulation time: 00 hr 02 min 10 sec)
*** Reached end of trace: (0, "../traces/public_traces/compute_int/compute_int_25.champsimtrace.xz")
Heartbeat CPU 0 instructions: 40000003 cycles: 7648673 heartbeat IPC: 4.256 cumulative IPC: 4.256 (Simulation time: 00 hr 03 min 14 sec)
Heartbeat CPU 0 instructions: 50000003 cycles: 9968129 heartbeat IPC: 4.311 cumulative IPC: 4.283 (Simulation time: 00 hr 04 min 20 sec)
Heartbeat CPU 0 instructions: 60000007 cycles: 12280068 heartbeat IPC: 4.325 cumulative IPC: 4.297 (Simulation time: 00 hr 05 min 30 sec)
*** Reached end of trace: (0, "../traces/public_traces/compute_int/compute_int_25.champsimtrace.xz")
Heartbeat CPU 0 instructions: 70000004 cycles: 14600243 heartbeat IPC: 4.31 cumulative IPC: 4.3 (Simulation time: 00 hr 06 min 33 sec)
Heartbeat CPU 0 instructions: 80000004 cycles: 16910745 heartbeat IPC: 4.328 cumulative IPC: 4.306 (Simulation time: 00 hr 07 min 38 sec)
Heartbeat CPU 0 instructions: 90000002 cycles: 19219570 heartbeat IPC: 4.331 cumulative IPC: 4.31 (Simulation time: 00 hr 08 min 41 sec)
Heartbeat CPU 0 instructions: 100000004 cycles: 21536969 heartbeat IPC: 4.315 cumulative IPC: 4.311 (Simulation time: 00 hr 09 min 42 sec)
*** Reached end of trace: (0, "../traces/public_traces/compute_int/compute_int_25.champsimtrace.xz")
Heartbeat CPU 0 instructions: 110000002 cycles: 23843660 heartbeat IPC: 4.335 cumulative IPC: 4.314 (Simulation time: 00 hr 10 min 47 sec)
Heartbeat CPU 0 instructions: 120000001 cycles: 26155784 heartbeat IPC: 4.325 cumulative IPC: 4.315 (Simulation time: 00 hr 11 min 53 sec)
Heartbeat CPU 0 instructions: 130000001 cycles: 28467651 heartbeat IPC: 4.326 cumulative IPC: 4.316 (Simulation time: 00 hr 12 min 56 sec)
Simulation finished CPU 0 instructions: 100000001 cycles: 23168790 cumulative IPC: 4.316 (Simulation time: 00 hr 12 min 56 sec)
Simulation complete CPU 0 instructions: 100000001 cycles: 23168790 cumulative IPC: 4.316 (Simulation time: 00 hr 12 min 56 sec)

ChampSim completed all CPUs

=== Simulation ===
CPU 0 runs ../traces/public_traces/compute_int/compute_int_25.champsimtrace.xz
Region of Interest Statistics

CPU 0 cumulative IPC: 4.316 instructions: 100000001 cycles: 23168790
CPU 0 Branch Prediction Accuracy: 99.94% MPKI: 0.1281 Average ROB Occupancy at Mispredict: 174.2
Branch type MPKI
BRANCH_DIRECT_JUMP: 0
BRANCH_INDIRECT: 0.0175
BRANCH_CONDITIONAL: 0.0707
BRANCH_DIRECT_CALL: 6e-05
BRANCH_INDIRECT_CALL: 5e-05
BRANCH_RETURN: 0.0397

LLC TOTAL        ACCESS:     195511 HIT:     187732 MISS:       7779
LLC LOAD         ACCESS:      11061 HIT:      10023 MISS:       1038
LLC RFO          ACCESS:      71752 HIT:      71071 MISS:        681
LLC PREFETCH     ACCESS:      28835 HIT:      23900 MISS:       4935
LLC WRITE        ACCESS:      83577 HIT:      82642 MISS:        935
LLC TRANSLATION  ACCESS:        286 HIT:         96 MISS:        190
LLC PREFETCH REQUESTED:          0 ISSUED:          0 USEFUL:          0 USELESS:          0
LLC AVERAGE MISS LATENCY: 141.5 cycles
cpu0_DTLB TOTAL        ACCESS:   20702137 HIT:   20616303 MISS:      85834
cpu0_DTLB LOAD         ACCESS:   20702137 HIT:   20616303 MISS:      85834
cpu0_DTLB RFO          ACCESS:          0 HIT:          0 MISS:          0
cpu0_DTLB PREFETCH     ACCESS:          0 HIT:          0 MISS:          0
cpu0_DTLB WRITE        ACCESS:          0 HIT:          0 MISS:          0
cpu0_DTLB TRANSLATION  ACCESS:          0 HIT:          0 MISS:          0
cpu0_DTLB PREFETCH REQUESTED:          0 ISSUED:          0 USEFUL:          0 USELESS:          0
cpu0_DTLB AVERAGE MISS LATENCY: 3.233 cycles
cpu0_ITLB TOTAL        ACCESS:    1146153 HIT:    1146153 MISS:          0
cpu0_ITLB LOAD         ACCESS:    1146153 HIT:    1146153 MISS:          0
cpu0_ITLB RFO          ACCESS:          0 HIT:          0 MISS:          0
cpu0_ITLB PREFETCH     ACCESS:          0 HIT:          0 MISS:          0
cpu0_ITLB WRITE        ACCESS:          0 HIT:          0 MISS:          0
cpu0_ITLB TRANSLATION  ACCESS:          0 HIT:          0 MISS:          0
cpu0_ITLB PREFETCH REQUESTED:          0 ISSUED:          0 USEFUL:          0 USELESS:          0
cpu0_ITLB AVERAGE MISS LATENCY: -nan cycles
cpu0_L1D TOTAL        ACCESS:   37306970 HIT:   26910268 MISS:   10396702
cpu0_L1D LOAD         ACCESS:   18765887 HIT:   11717582 MISS:    7048305
cpu0_L1D RFO          ACCESS:          0 HIT:          0 MISS:          0
cpu0_L1D PREFETCH     ACCESS:   17483458 HIT:   14571926 MISS:    2911532
cpu0_L1D WRITE        ACCESS:    1057238 HIT:     620755 MISS:     436483
cpu0_L1D TRANSLATION  ACCESS:        387 HIT:          5 MISS:        382
cpu0_L1D PREFETCH REQUESTED:   36384129 ISSUED:   17483434 USEFUL:     725338 USELESS:      88109
cpu0_L1D AVERAGE MISS LATENCY: 1.979 cycles
cpu0_L1I TOTAL        ACCESS:    1674438 HIT:    1632848 MISS:      41590
cpu0_L1I LOAD         ACCESS:     823449 HIT:     798181 MISS:      25268
cpu0_L1I RFO          ACCESS:          0 HIT:          0 MISS:          0
cpu0_L1I PREFETCH     ACCESS:     850989 HIT:     834667 MISS:      16322
cpu0_L1I WRITE        ACCESS:          0 HIT:          0 MISS:          0
cpu0_L1I TRANSLATION  ACCESS:          0 HIT:          0 MISS:          0
cpu0_L1I PREFETCH REQUESTED:    2418735 ISSUED:     850989 USEFUL:      12543 USELESS:       2133
cpu0_L1I AVERAGE MISS LATENCY: 8.456 cycles
cpu0_L2C TOTAL        ACCESS:    7307680 HIT:    7175598 MISS:     132082
cpu0_L2C LOAD         ACCESS:    1582262 HIT:    1570524 MISS:      11738
cpu0_L2C RFO          ACCESS:     108165 HIT:      36317 MISS:      71848
cpu0_L2C PREFETCH     ACCESS:    5461240 HIT:    5413030 MISS:      48210
cpu0_L2C WRITE        ACCESS:     155634 HIT:     155634 MISS:          0
cpu0_L2C TRANSLATION  ACCESS:        379 HIT:         93 MISS:        286
cpu0_L2C PREFETCH REQUESTED:    4052605 ISSUED:    2992785 USEFUL:       5698 USELESS:       6932
cpu0_L2C AVERAGE MISS LATENCY: 25.96 cycles
cpu0_STLB TOTAL        ACCESS:      40107 HIT:      39807 MISS:        300
cpu0_STLB LOAD         ACCESS:      40107 HIT:      39807 MISS:        300
cpu0_STLB RFO          ACCESS:          0 HIT:          0 MISS:          0
cpu0_STLB PREFETCH     ACCESS:          0 HIT:          0 MISS:          0
cpu0_STLB WRITE        ACCESS:          0 HIT:          0 MISS:          0
cpu0_STLB TRANSLATION  ACCESS:          0 HIT:          0 MISS:          0
cpu0_STLB PREFETCH REQUESTED:          0 ISSUED:          0 USEFUL:          0 USELESS:          0
cpu0_STLB AVERAGE MISS LATENCY: 230 cycles

DRAM Statistics

Channel 0 RQ ROW_BUFFER_HIT:       1389
  ROW_BUFFER_MISS:       2384
 AVG DBUS CONGESTED CYCLE: 3.637
WQ ROW_BUFFER_HIT: Channel 0 
  ROW_BUFFER_MISS:         50
  FULL:        424

Channel 1 RQ ROW_BUFFER_HIT:       1298
  ROW_BUFFER_MISS:       1773
 AVG DBUS CONGESTED CYCLE: 3.737
WQ ROW_BUFFER_HIT: Channel 1 
  ROW_BUFFER_MISS:         21
  FULL:        340
BERTI TO_L1: 31925034 TO_L2: 18739637 TO_L2_BC_MSHR: 89980
BERTI AVG_LAT: 20.2171 NUM_TRACK_LATENCY: 3161080 NUM_CANT_TRACK_LATENCY: 0
BERTI CROSS_PAGE 10110152 NO_CROSS_PAGE: 40554519
BERTI FOUND_BERTI: 15517058 NO_FOUND_BERTI: 8409406
BERTI AVERAGE_ISSUED: 4.27231
CPU 0 L1I Entangling prefetcher final stats
IP accesses: 538f 14e3c0 37692 / 823645
IP misses: 5364 14d900 3180 / 25464
IP hits: 0 0 0 / 0
IP late: 5fa3 17e8c0 672 / 8470
IP wrong: 9123 2448c0 363 / 2114
miss rate: 0.0309163
coverage: 0
coverage_late: 0.332627
accuracy: 0
accuracy_late: 0.800265
discarded: 0
evicts entangled j table: 0
evicts entangled k table: 405
max bb size: 14
formats: 36 0 723 125 60 133 0 
hist_lookups: 865 1897 1351 775 1525 1203 570 486 503 88 62 121 34 11 16 0 33 2342 
hist_lookups_evict: 0.277732 %
hist_lookups_shortlat: 19.7105 %
bb_found_hist: 0 180813 113226 35415 10496 887 8632 2499 3981 3997 0 9 0 928 1861 0 0 0 0 0 0 0 0 0 0 0 0 0 0 0 0 0 0 0 0 0 0 0 0 0 0 0 0 0 0 0 0 0 0 0 0 0 0 0 0 0 0 0 0 0 0 0 0 0 
bb_found_summary: 735252 362744 2.02692
entangled_found_hist: 0 101445 67257 163908 5462 78 0 0 
entangled_found_summary: 749921 338150 2.21772
bb_ent_found_hist: 0 221623 142748 58675 23496 2134 192 5468 2 5396 0 0 0 2618 3930 0 0 0 0 0 0 0 0 0 0 0 0 0 0 0 0 0 0 0 0 0 0 0 0 0 0 0 0 0 0 0 0 0 0 0 0 0 0 0 0 0 0 0 0 0 0 0 0 0 
bb_ent_found_summary: 964860 466282 2.06927
