WARNING: physical memory size is smaller than virtual memory size.

*** ChampSim Multicore Out-of-Order Simulator ***
Warmup Instructions: 30000000
Simulation Instructions: 100000000
Number of CPUs: 1
Page size: 4096

BTB:
Basic BTB sets: 1024 ways: 8
Indirect:
history lengths: 0 0 10 16 27 44 60 96 109 219 449 487 714 1313 2146 3881 
ITTAGE tables: 64768 bytes;Region table: 240 bytes;IUM: 384 bytes;Total Storage= 65392 bytes;
RAS:
RAS size: 64
[LLC] Demand IPV: 1 2 2 1 4 Prefetch IPV: 1 2 1 1 4
Berti Prefetcher
CPU 0 Entangling prefetcher
Off-chip DRAM Size: 8 GiB Channels: 2 Width: 64-bit Data Race: 6400 MT/s
Heartbeat CPU 0 instructions: 10000003 cycles: 2026710 heartbeat IPC: 4.934 cumulative IPC: 4.934 (Simulation time: 00 hr 00 min 49 sec)
Heartbeat CPU 0 instructions: 20000007 cycles: 4092114 heartbeat IPC: 4.842 cumulative IPC: 4.887 (Simulation time: 00 hr 01 min 35 sec)
Heartbeat CPU 0 instructions: 30000006 cycles: 6120364 heartbeat IPC: 4.93 cumulative IPC: 4.902 (Simulation time: 00 hr 02 min 23 sec)
Warmup finished CPU 0 instructions: 30000006 cycles: 6120365 cumulative IPC: 4.902 (Simulation time: 00 hr 02 min 23 sec)
Warmup complete CPU 0 instructions: 30000006 cycles: 6120365 cumulative IPC: 4.902 (Simulation time: 00 hr 02 min 23 sec)
*** Reached end of trace: (0, "../traces/public_traces/compute_int/compute_int_7.champsimtrace.xz")
Heartbeat CPU 0 instructions: 40000009 cycles: 11557378 heartbeat IPC: 1.839 cumulative IPC: 1.839 (Simulation time: 00 hr 04 min 16 sec)
Heartbeat CPU 0 instructions: 50000001 cycles: 15931147 heartbeat IPC: 2.286 cumulative IPC: 2.039 (Simulation time: 00 hr 05 min 45 sec)
Heartbeat CPU 0 instructions: 60000001 cycles: 20941786 heartbeat IPC: 1.996 cumulative IPC: 2.024 (Simulation time: 00 hr 07 min 27 sec)
*** Reached end of trace: (0, "../traces/public_traces/compute_int/compute_int_7.champsimtrace.xz")
Heartbeat CPU 0 instructions: 70000001 cycles: 26819196 heartbeat IPC: 1.701 cumulative IPC: 1.932 (Simulation time: 00 hr 09 min 25 sec)
Heartbeat CPU 0 instructions: 80000006 cycles: 31374423 heartbeat IPC: 2.195 cumulative IPC: 1.98 (Simulation time: 00 hr 10 min 53 sec)
Heartbeat CPU 0 instructions: 90000000 cycles: 35831019 heartbeat IPC: 2.244 cumulative IPC: 2.019 (Simulation time: 00 hr 12 min 24 sec)
*** Reached end of trace: (0, "../traces/public_traces/compute_int/compute_int_7.champsimtrace.xz")
Heartbeat CPU 0 instructions: 100000000 cycles: 41586150 heartbeat IPC: 1.738 cumulative IPC: 1.974 (Simulation time: 00 hr 14 min 19 sec)
Heartbeat CPU 0 instructions: 110000002 cycles: 46797243 heartbeat IPC: 1.919 cumulative IPC: 1.967 (Simulation time: 00 hr 15 min 59 sec)
Heartbeat CPU 0 instructions: 120000005 cycles: 51198567 heartbeat IPC: 2.272 cumulative IPC: 1.997 (Simulation time: 00 hr 17 min 20 sec)
*** Reached end of trace: (0, "../traces/public_traces/compute_int/compute_int_7.champsimtrace.xz")
Heartbeat CPU 0 instructions: 130000000 cycles: 56408605 heartbeat IPC: 1.919 cumulative IPC: 1.989 (Simulation time: 00 hr 19 min 00 sec)
Simulation finished CPU 0 instructions: 100000006 cycles: 50288242 cumulative IPC: 1.989 (Simulation time: 00 hr 19 min 00 sec)
Simulation complete CPU 0 instructions: 100000006 cycles: 50288242 cumulative IPC: 1.989 (Simulation time: 00 hr 19 min 00 sec)

ChampSim completed all CPUs

=== Simulation ===
CPU 0 runs ../traces/public_traces/compute_int/compute_int_7.champsimtrace.xz
Region of Interest Statistics

CPU 0 cumulative IPC: 1.989 instructions: 100000006 cycles: 50288242
CPU 0 Branch Prediction Accuracy: 98.71% MPKI: 1.656 Average ROB Occupancy at Mispredict: 70.09
Branch type MPKI
BRANCH_DIRECT_JUMP: 0
BRANCH_INDIRECT: 0.839
BRANCH_CONDITIONAL: 0.817
BRANCH_DIRECT_CALL: 0
BRANCH_INDIRECT_CALL: 0
BRANCH_RETURN: 0

LLC TOTAL        ACCESS:    6574499 HIT:    3064963 MISS:    3509536
LLC LOAD         ACCESS:    2969291 HIT:    1972842 MISS:     996449
LLC RFO          ACCESS:        219 HIT:         90 MISS:        129
LLC PREFETCH     ACCESS:    3449977 HIT:    1068302 MISS:    2381675
LLC WRITE        ACCESS:     151222 HIT:      23611 MISS:     127611
LLC TRANSLATION  ACCESS:       3790 HIT:        118 MISS:       3672
LLC PREFETCH REQUESTED:          0 ISSUED:          0 USEFUL:          0 USELESS:          0
LLC AVERAGE MISS LATENCY: 223.5 cycles
cpu0_DTLB TOTAL        ACCESS:   22165477 HIT:   21877061 MISS:     288416
cpu0_DTLB LOAD         ACCESS:   22165477 HIT:   21877061 MISS:     288416
cpu0_DTLB RFO          ACCESS:          0 HIT:          0 MISS:          0
cpu0_DTLB PREFETCH     ACCESS:          0 HIT:          0 MISS:          0
cpu0_DTLB WRITE        ACCESS:          0 HIT:          0 MISS:          0
cpu0_DTLB TRANSLATION  ACCESS:          0 HIT:          0 MISS:          0
cpu0_DTLB PREFETCH REQUESTED:          0 ISSUED:          0 USEFUL:          0 USELESS:          0
cpu0_DTLB AVERAGE MISS LATENCY: 7.265 cycles
cpu0_ITLB TOTAL        ACCESS:       9825 HIT:       9825 MISS:          0
cpu0_ITLB LOAD         ACCESS:       9825 HIT:       9825 MISS:          0
cpu0_ITLB RFO          ACCESS:          0 HIT:          0 MISS:          0
cpu0_ITLB PREFETCH     ACCESS:          0 HIT:          0 MISS:          0
cpu0_ITLB WRITE        ACCESS:          0 HIT:          0 MISS:          0
cpu0_ITLB TRANSLATION  ACCESS:          0 HIT:          0 MISS:          0
cpu0_ITLB PREFETCH REQUESTED:          0 ISSUED:          0 USEFUL:          0 USELESS:          0
cpu0_ITLB AVERAGE MISS LATENCY: -nan cycles
cpu0_L1D TOTAL        ACCESS:   44700837 HIT:   35956430 MISS:    8744407
cpu0_L1D LOAD         ACCESS:   14889747 HIT:   11036967 MISS:    3852780
cpu0_L1D RFO          ACCESS:          0 HIT:          0 MISS:          0
cpu0_L1D PREFETCH     ACCESS:   13177879 HIT:    8297316 MISS:    4880563
cpu0_L1D WRITE        ACCESS:   16612683 HIT:   16611637 MISS:       1046
cpu0_L1D TRANSLATION  ACCESS:      20528 HIT:      10510 MISS:      10018
cpu0_L1D PREFETCH REQUESTED:  241559738 ISSUED:   13177864 USEFUL:     993361 USELESS:      60533
cpu0_L1D AVERAGE MISS LATENCY: 45.31 cycles
cpu0_L1I TOTAL        ACCESS:      13894 HIT:      13894 MISS:          0
cpu0_L1I LOAD         ACCESS:       7066 HIT:       7066 MISS:          0
cpu0_L1I RFO          ACCESS:          0 HIT:          0 MISS:          0
cpu0_L1I PREFETCH     ACCESS:       6828 HIT:       6828 MISS:          0
cpu0_L1I WRITE        ACCESS:          0 HIT:          0 MISS:          0
cpu0_L1I TRANSLATION  ACCESS:          0 HIT:          0 MISS:          0
cpu0_L1I PREFETCH REQUESTED:       8253 ISSUED:       6828 USEFUL:          0 USELESS:          0
cpu0_L1I AVERAGE MISS LATENCY: -nan cycles
cpu0_L2C TOTAL        ACCESS:   16422641 HIT:    8423201 MISS:    7999440
cpu0_L2C LOAD         ACCESS:    3467508 HIT:     392228 MISS:    3075280
cpu0_L2C RFO          ACCESS:        308 HIT:         84 MISS:        224
cpu0_L2C PREFETCH     ACCESS:   12777986 HIT:    7858215 MISS:    4919771
cpu0_L2C WRITE        ACCESS:     166823 HIT:     166448 MISS:        375
cpu0_L2C TRANSLATION  ACCESS:      10016 HIT:       6226 MISS:       3790
cpu0_L2C PREFETCH REQUESTED:    8320074 ISSUED:    7988349 USEFUL:     523751 USELESS:    1880714
cpu0_L2C AVERAGE MISS LATENCY: 113.9 cycles
cpu0_STLB TOTAL        ACCESS:     143636 HIT:     123212 MISS:      20424
cpu0_STLB LOAD         ACCESS:     143636 HIT:     123212 MISS:      20424
cpu0_STLB RFO          ACCESS:          0 HIT:          0 MISS:          0
cpu0_STLB PREFETCH     ACCESS:          0 HIT:          0 MISS:          0
cpu0_STLB WRITE        ACCESS:          0 HIT:          0 MISS:          0
cpu0_STLB TRANSLATION  ACCESS:          0 HIT:          0 MISS:          0
cpu0_STLB PREFETCH REQUESTED:          0 ISSUED:          0 USEFUL:          0 USELESS:          0
cpu0_STLB AVERAGE MISS LATENCY: 96.05 cycles

DRAM Statistics

Channel 0 RQ ROW_BUFFER_HIT:    1393947
  ROW_BUFFER_MISS:     287663
 AVG DBUS CONGESTED CYCLE: 3.956
WQ ROW_BUFFER_HIT: Channel 0 
  ROW_BUFFER_MISS:      10240
  FULL:      45917

Channel 1 RQ ROW_BUFFER_HIT:    1418924
  ROW_BUFFER_MISS:     281046
 AVG DBUS CONGESTED CYCLE: 3.968
WQ ROW_BUFFER_HIT: Channel 1 
  ROW_BUFFER_MISS:      11455
  FULL:      59877
BERTI TO_L1: 15063416 TO_L2: 242189959 TO_L2_BC_MSHR: 156234420
BERTI AVG_LAT: 90.9196 NUM_TRACK_LATENCY: 5895465 NUM_CANT_TRACK_LATENCY: 139
BERTI CROSS_PAGE 82936668 NO_CROSS_PAGE: 174316707
BERTI FOUND_BERTI: 37063679 NO_FOUND_BERTI: 1796637
BERTI AVERAGE_ISSUED: 3.02414
CPU 0 L1I Entangling prefetcher final stats
IP accesses: 92 2480 272 / 7066
IP misses: 0 0 0 / 0
IP hits: 0 0 0 / 0
IP late: 0 0 0 / 0
IP wrong: 0 0 0 / 0
miss rate: 0
coverage: -nan
coverage_late: -nan
accuracy: -nan
accuracy_late: -nan
discarded: 0
evicts entangled j table: 0
evicts entangled k table: 0
max bb size: 11
formats: 0 0 0 0 0 0 0 
hist_lookups: 0 0 0 0 0 0 0 0 0 0 0 0 0 0 0 0 0 92 
hist_lookups_evict: 0 %
hist_lookups_shortlat: 100 %
bb_found_hist: 0 1307 450 355 40 20 50 0 0 0 0 10 0 0 0 0 0 0 0 0 0 0 0 0 0 0 0 0 0 0 0 0 0 0 0 0 0 0 0 0 0 0 0 0 0 0 0 0 0 0 0 0 0 0 0 0 0 0 0 0 0 0 0 0 
bb_found_summary: 3942 2232 1.76613
entangled_found_hist: 0 534 321 200 50 10 0 0 
entangled_found_summary: 2026 1115 1.81705
bb_ent_found_hist: 0 725 270 180 20 10 40 0 0 0 0 10 0 0 0 0 0 0 0 0 0 0 0 0 0 0 0 0 0 0 0 0 0 0 0 0 0 0 0 0 0 0 0 0 0 0 0 0 0 0 0 0 0 0 0 0 0 0 0 0 0 0 0 0 
bb_ent_found_summary: 2285 1255 1.82072
