WARNING: physical memory size is smaller than virtual memory size.

*** ChampSim Multicore Out-of-Order Simulator ***
Warmup Instructions: 30000000
Simulation Instructions: 100000000
Number of CPUs: 1
Page size: 4096

BTB:
Basic BTB sets: 1024 ways: 8
Indirect:
history lengths: 0 0 10 16 27 44 60 96 109 219 449 487 714 1313 2146 3881 
ITTAGE tables: 64768 bytes;Region table: 240 bytes;IUM: 384 bytes;Total Storage= 65392 bytes;
RAS:
RAS size: 64
[LLC] Demand IPV: 1 2 2 1 4 Prefetch IPV: 1 2 1 1 4
Berti Prefetcher
CPU 0 Entangling prefetcher
Off-chip DRAM Size: 8 GiB Channels: 2 Width: 64-bit Data Race: 6400 MT/s
Heartbeat CPU 0 instructions: 10000001 cycles: 1666927 heartbeat IPC: 5.999 cumulative IPC: 5.999 (Simulation time: 00 hr 00 min 49 sec)
Heartbeat CPU 0 instructions: 20000002 cycles: 3333595 heartbeat IPC: 6 cumulative IPC: 6 (Simulation time: 00 hr 01 min 39 sec)
Heartbeat CPU 0 instructions: 30000006 cycles: 5000343 heartbeat IPC: 6 cumulative IPC: 6 (Simulation time: 00 hr 02 min 30 sec)
Warmup finished CPU 0 instructions: 30000006 cycles: 5000344 cumulative IPC: 6 (Simulation time: 00 hr 02 min 30 sec)
Warmup complete CPU 0 instructions: 30000006 cycles: 5000344 cumulative IPC: 6 (Simulation time: 00 hr 02 min 30 sec)
*** Reached end of trace: (0, "../traces/public_traces/compute_int/compute_int_23.champsimtrace.xz")
Heartbeat CPU 0 instructions: 40000009 cycles: 18258349 heartbeat IPC: 0.7543 cumulative IPC: 0.7543 (Simulation time: 00 hr 04 min 55 sec)
Heartbeat CPU 0 instructions: 50000005 cycles: 33496093 heartbeat IPC: 0.6563 cumulative IPC: 0.7019 (Simulation time: 00 hr 07 min 53 sec)
Heartbeat CPU 0 instructions: 60000006 cycles: 49901955 heartbeat IPC: 0.6095 cumulative IPC: 0.6681 (Simulation time: 00 hr 10 min 49 sec)
*** Reached end of trace: (0, "../traces/public_traces/compute_int/compute_int_23.champsimtrace.xz")
Heartbeat CPU 0 instructions: 70000005 cycles: 63258985 heartbeat IPC: 0.7487 cumulative IPC: 0.6866 (Simulation time: 00 hr 13 min 22 sec)
Heartbeat CPU 0 instructions: 80000005 cycles: 78343798 heartbeat IPC: 0.6629 cumulative IPC: 0.6817 (Simulation time: 00 hr 16 min 04 sec)
Heartbeat CPU 0 instructions: 90000003 cycles: 94647800 heartbeat IPC: 0.6133 cumulative IPC: 0.6693 (Simulation time: 00 hr 19 min 08 sec)
*** Reached end of trace: (0, "../traces/public_traces/compute_int/compute_int_23.champsimtrace.xz")
Heartbeat CPU 0 instructions: 100000004 cycles: 108355929 heartbeat IPC: 0.7295 cumulative IPC: 0.6773 (Simulation time: 00 hr 21 min 47 sec)
Heartbeat CPU 0 instructions: 110000006 cycles: 123332581 heartbeat IPC: 0.6677 cumulative IPC: 0.6761 (Simulation time: 00 hr 24 min 25 sec)
Heartbeat CPU 0 instructions: 120000010 cycles: 139348785 heartbeat IPC: 0.6244 cumulative IPC: 0.6699 (Simulation time: 00 hr 27 min 16 sec)
*** Reached end of trace: (0, "../traces/public_traces/compute_int/compute_int_23.champsimtrace.xz")
Heartbeat CPU 0 instructions: 130000000 cycles: 153459747 heartbeat IPC: 0.7087 cumulative IPC: 0.6736 (Simulation time: 00 hr 29 min 56 sec)
Simulation finished CPU 0 instructions: 100000007 cycles: 148459410 cumulative IPC: 0.6736 (Simulation time: 00 hr 29 min 56 sec)
Simulation complete CPU 0 instructions: 100000007 cycles: 148459410 cumulative IPC: 0.6736 (Simulation time: 00 hr 29 min 56 sec)

ChampSim completed all CPUs

=== Simulation ===
CPU 0 runs ../traces/public_traces/compute_int/compute_int_23.champsimtrace.xz
Region of Interest Statistics

CPU 0 cumulative IPC: 0.6736 instructions: 100000007 cycles: 148459410
CPU 0 Branch Prediction Accuracy: 91.01% MPKI: 13.94 Average ROB Occupancy at Mispredict: 88.68
Branch type MPKI
BRANCH_DIRECT_JUMP: 0
BRANCH_INDIRECT: 12.3
BRANCH_CONDITIONAL: 1.61
BRANCH_DIRECT_CALL: 0
BRANCH_INDIRECT_CALL: 0
BRANCH_RETURN: 0

LLC TOTAL        ACCESS:    5041278 HIT:     636578 MISS:    4404700
LLC LOAD         ACCESS:     417449 HIT:      76456 MISS:     340993
LLC RFO          ACCESS:      80192 HIT:       4587 MISS:      75605
LLC PREFETCH     ACCESS:    3514746 HIT:     296346 MISS:    3218400
LLC WRITE        ACCESS:     981220 HIT:     257189 MISS:     724031
LLC TRANSLATION  ACCESS:      47671 HIT:       2000 MISS:      45671
LLC PREFETCH REQUESTED:          0 ISSUED:          0 USEFUL:          0 USELESS:          0
LLC AVERAGE MISS LATENCY: 355.3 cycles
cpu0_DTLB TOTAL        ACCESS:   27803701 HIT:   26997902 MISS:     805799
cpu0_DTLB LOAD         ACCESS:   27803701 HIT:   26997902 MISS:     805799
cpu0_DTLB RFO          ACCESS:          0 HIT:          0 MISS:          0
cpu0_DTLB PREFETCH     ACCESS:          0 HIT:          0 MISS:          0
cpu0_DTLB WRITE        ACCESS:          0 HIT:          0 MISS:          0
cpu0_DTLB TRANSLATION  ACCESS:          0 HIT:          0 MISS:          0
cpu0_DTLB PREFETCH REQUESTED:          0 ISSUED:          0 USEFUL:          0 USELESS:          0
cpu0_DTLB AVERAGE MISS LATENCY: 30.83 cycles
cpu0_ITLB TOTAL        ACCESS:       8216 HIT:       8216 MISS:          0
cpu0_ITLB LOAD         ACCESS:       8216 HIT:       8216 MISS:          0
cpu0_ITLB RFO          ACCESS:          0 HIT:          0 MISS:          0
cpu0_ITLB PREFETCH     ACCESS:          0 HIT:          0 MISS:          0
cpu0_ITLB WRITE        ACCESS:          0 HIT:          0 MISS:          0
cpu0_ITLB TRANSLATION  ACCESS:          0 HIT:          0 MISS:          0
cpu0_ITLB PREFETCH REQUESTED:          0 ISSUED:          0 USEFUL:          0 USELESS:          0
cpu0_ITLB AVERAGE MISS LATENCY: -nan cycles
cpu0_L1D TOTAL        ACCESS:   44225152 HIT:   31781616 MISS:   12443536
cpu0_L1D LOAD         ACCESS:   16798710 HIT:   14566864 MISS:    2231846
cpu0_L1D RFO          ACCESS:          0 HIT:          0 MISS:          0
cpu0_L1D PREFETCH     ACCESS:   14878722 HIT:    4873394 MISS:   10005328
cpu0_L1D WRITE        ACCESS:   12246917 HIT:   12134202 MISS:     112715
cpu0_L1D TRANSLATION  ACCESS:     300803 HIT:     207156 MISS:      93647
cpu0_L1D PREFETCH REQUESTED:   15672268 ISSUED:   14878714 USEFUL:     725664 USELESS:     201254
cpu0_L1D AVERAGE MISS LATENCY: 28.78 cycles
cpu0_L1I TOTAL        ACCESS:      11866 HIT:      11866 MISS:          0
cpu0_L1I LOAD         ACCESS:       5945 HIT:       5945 MISS:          0
cpu0_L1I RFO          ACCESS:          0 HIT:          0 MISS:          0
cpu0_L1I PREFETCH     ACCESS:       5921 HIT:       5921 MISS:          0
cpu0_L1I WRITE        ACCESS:          0 HIT:          0 MISS:          0
cpu0_L1I TRANSLATION  ACCESS:          0 HIT:          0 MISS:          0
cpu0_L1I PREFETCH REQUESTED:       6853 ISSUED:       5921 USEFUL:          0 USELESS:          0
cpu0_L1I AVERAGE MISS LATENCY: -nan cycles
cpu0_L2C TOTAL        ACCESS:   22113404 HIT:   12966709 MISS:    9146695
cpu0_L2C LOAD         ACCESS:    1311673 HIT:     686861 MISS:     624812
cpu0_L2C RFO          ACCESS:      88873 HIT:       8609 MISS:      80264
cpu0_L2C PREFETCH     ACCESS:   19629949 HIT:   11236011 MISS:    8393938
cpu0_L2C WRITE        ACCESS:     997789 HIT:     997780 MISS:          9
cpu0_L2C TRANSLATION  ACCESS:      85120 HIT:      37448 MISS:      47672
cpu0_L2C PREFETCH REQUESTED:   10648550 ISSUED:   10349791 USEFUL:     739054 USELESS:    1162804
cpu0_L2C AVERAGE MISS LATENCY: 175.3 cycles
cpu0_STLB TOTAL        ACCESS:     571224 HIT:     274456 MISS:     296768
cpu0_STLB LOAD         ACCESS:     571224 HIT:     274456 MISS:     296768
cpu0_STLB RFO          ACCESS:          0 HIT:          0 MISS:          0
cpu0_STLB PREFETCH     ACCESS:          0 HIT:          0 MISS:          0
cpu0_STLB WRITE        ACCESS:          0 HIT:          0 MISS:          0
cpu0_STLB TRANSLATION  ACCESS:          0 HIT:          0 MISS:          0
cpu0_STLB PREFETCH REQUESTED:          0 ISSUED:          0 USEFUL:          0 USELESS:          0
cpu0_STLB AVERAGE MISS LATENCY: 83.9 cycles

DRAM Statistics

Channel 0 RQ ROW_BUFFER_HIT:     787909
  ROW_BUFFER_MISS:    1104723
 AVG DBUS CONGESTED CYCLE: 3.949
WQ ROW_BUFFER_HIT: Channel 0 
  ROW_BUFFER_MISS:       6246
  FULL:     397738

Channel 1 RQ ROW_BUFFER_HIT:     755583
  ROW_BUFFER_MISS:    1032404
 AVG DBUS CONGESTED CYCLE: 3.918
WQ ROW_BUFFER_HIT: Channel 1 
  ROW_BUFFER_MISS:      26359
  FULL:     298003
BERTI TO_L1: 3725266 TO_L2: 15704828 TO_L2_BC_MSHR: 380755
BERTI AVG_LAT: 123.736 NUM_TRACK_LATENCY: 2917366 NUM_CANT_TRACK_LATENCY: 7
BERTI CROSS_PAGE 11637808 NO_CROSS_PAGE: 7792286
BERTI FOUND_BERTI: 14122921 NO_FOUND_BERTI: 7681554
BERTI AVERAGE_ISSUED: 2.66091
CPU 0 L1I Entangling prefetcher final stats
IP accesses: 46d8 11b600 70 / 5945
IP misses: 0 0 0 / 0
IP hits: 0 0 0 / 0
IP late: 0 0 0 / 0
IP wrong: 0 0 0 / 0
miss rate: 0
coverage: -nan
coverage_late: -nan
accuracy: -nan
accuracy_late: -nan
discarded: 0
evicts entangled j table: 0
evicts entangled k table: 0
max bb size: 11
formats: 0 0 0 0 0 0 0 
hist_lookups: 0 0 0 0 0 0 0 0 0 0 0 0 0 0 0 0 0 135 
hist_lookups_evict: 0 %
hist_lookups_shortlat: 100 %
bb_found_hist: 0 1150 480 172 80 13 50 13 0 0 0 10 0 0 0 0 0 0 0 0 0 0 0 0 0 0 0 0 0 0 0 0 0 0 0 0 0 0 0 0 0 0 0 0 0 0 0 0 0 0 0 0 0 0 0 0 0 0 0 0 0 0 0 0 
bb_found_summary: 3512 1968 1.78456
entangled_found_hist: 0 529 149 176 30 0 0 0 
entangled_found_summary: 1475 884 1.66856
bb_ent_found_hist: 0 423 295 111 0 32 60 0 0 0 0 0 0 0 0 0 0 0 0 0 0 0 0 0 0 0 0 0 0 0 0 0 0 0 0 0 0 0 0 0 0 0 0 0 0 0 0 0 0 0 0 0 0 0 0 0 0 0 0 0 0 0 0 0 
bb_ent_found_summary: 1866 921 2.02606
