WARNING: physical memory size is smaller than virtual memory size.

*** ChampSim Multicore Out-of-Order Simulator ***
Warmup Instructions: 30000000
Simulation Instructions: 100000000
Number of CPUs: 1
Page size: 4096

BTB:
Basic BTB sets: 1024 ways: 8
Indirect:
history lengths: 0 0 10 16 27 44 60 96 109 219 449 487 714 1313 2146 3881 
ITTAGE tables: 64768 bytes;Region table: 240 bytes;IUM: 384 bytes;Total Storage= 65392 bytes;
RAS:
RAS size: 64
[LLC] Demand IPV: 1 2 2 1 4 Prefetch IPV: 1 2 1 1 4
Berti Prefetcher
CPU 0 Entangling prefetcher
Off-chip DRAM Size: 8 GiB Channels: 2 Width: 64-bit Data Race: 6400 MT/s
Heartbeat CPU 0 instructions: 10000006 cycles: 1724563 heartbeat IPC: 5.799 cumulative IPC: 5.799 (Simulation time: 00 hr 00 min 47 sec)
Heartbeat CPU 0 instructions: 20000000 cycles: 3493319 heartbeat IPC: 5.654 cumulative IPC: 5.725 (Simulation time: 00 hr 01 min 37 sec)
Heartbeat CPU 0 instructions: 30000001 cycles: 5255592 heartbeat IPC: 5.674 cumulative IPC: 5.708 (Simulation time: 00 hr 02 min 25 sec)
Warmup finished CPU 0 instructions: 30000001 cycles: 5255593 cumulative IPC: 5.708 (Simulation time: 00 hr 02 min 25 sec)
Warmup complete CPU 0 instructions: 30000001 cycles: 5255593 cumulative IPC: 5.708 (Simulation time: 00 hr 02 min 25 sec)
*** Reached end of trace: (0, "../traces/public_traces/compute_int/compute_int_18.champsimtrace.xz")
Heartbeat CPU 0 instructions: 40000007 cycles: 7475603 heartbeat IPC: 4.504 cumulative IPC: 4.504 (Simulation time: 00 hr 03 min 22 sec)
Heartbeat CPU 0 instructions: 50000001 cycles: 9973889 heartbeat IPC: 4.003 cumulative IPC: 4.239 (Simulation time: 00 hr 04 min 32 sec)
Heartbeat CPU 0 instructions: 60000003 cycles: 12405106 heartbeat IPC: 4.113 cumulative IPC: 4.196 (Simulation time: 00 hr 05 min 33 sec)
*** Reached end of trace: (0, "../traces/public_traces/compute_int/compute_int_18.champsimtrace.xz")
Heartbeat CPU 0 instructions: 70000010 cycles: 14590015 heartbeat IPC: 4.577 cumulative IPC: 4.285 (Simulation time: 00 hr 06 min 29 sec)
Heartbeat CPU 0 instructions: 80000000 cycles: 17019661 heartbeat IPC: 4.116 cumulative IPC: 4.25 (Simulation time: 00 hr 07 min 33 sec)
Heartbeat CPU 0 instructions: 90000001 cycles: 19439520 heartbeat IPC: 4.132 cumulative IPC: 4.23 (Simulation time: 00 hr 08 min 33 sec)
*** Reached end of trace: (0, "../traces/public_traces/compute_int/compute_int_18.champsimtrace.xz")
Heartbeat CPU 0 instructions: 100000004 cycles: 21619308 heartbeat IPC: 4.588 cumulative IPC: 4.278 (Simulation time: 00 hr 09 min 31 sec)
Heartbeat CPU 0 instructions: 110000005 cycles: 24002497 heartbeat IPC: 4.196 cumulative IPC: 4.267 (Simulation time: 00 hr 10 min 41 sec)
Heartbeat CPU 0 instructions: 120000000 cycles: 26418469 heartbeat IPC: 4.139 cumulative IPC: 4.253 (Simulation time: 00 hr 11 min 48 sec)
*** Reached end of trace: (0, "../traces/public_traces/compute_int/compute_int_18.champsimtrace.xz")
Heartbeat CPU 0 instructions: 130000003 cycles: 28582639 heartbeat IPC: 4.621 cumulative IPC: 4.287 (Simulation time: 00 hr 12 min 39 sec)
Simulation finished CPU 0 instructions: 100000002 cycles: 23327047 cumulative IPC: 4.287 (Simulation time: 00 hr 12 min 39 sec)
Simulation complete CPU 0 instructions: 100000002 cycles: 23327047 cumulative IPC: 4.287 (Simulation time: 00 hr 12 min 39 sec)

ChampSim completed all CPUs

=== Simulation ===
CPU 0 runs ../traces/public_traces/compute_int/compute_int_18.champsimtrace.xz
Region of Interest Statistics

CPU 0 cumulative IPC: 4.287 instructions: 100000002 cycles: 23327047
CPU 0 Branch Prediction Accuracy: 98.99% MPKI: 2.25 Average ROB Occupancy at Mispredict: 48.5
Branch type MPKI
BRANCH_DIRECT_JUMP: 0.00211
BRANCH_INDIRECT: 1.64
BRANCH_CONDITIONAL: 0.602
BRANCH_DIRECT_CALL: 0.00331
BRANCH_INDIRECT_CALL: 0.00235
BRANCH_RETURN: 0.0013

LLC TOTAL        ACCESS:     149351 HIT:     143762 MISS:       5589
LLC LOAD         ACCESS:      25892 HIT:      25821 MISS:         71
LLC RFO          ACCESS:      27484 HIT:      27309 MISS:        175
LLC PREFETCH     ACCESS:      53693 HIT:      48423 MISS:       5270
LLC WRITE        ACCESS:      42151 HIT:      42120 MISS:         31
LLC TRANSLATION  ACCESS:        131 HIT:         89 MISS:         42
LLC PREFETCH REQUESTED:          0 ISSUED:          0 USEFUL:          0 USELESS:          0
LLC AVERAGE MISS LATENCY: 165.2 cycles
cpu0_DTLB TOTAL        ACCESS:   15487579 HIT:   15356891 MISS:     130688
cpu0_DTLB LOAD         ACCESS:   15487579 HIT:   15356891 MISS:     130688
cpu0_DTLB RFO          ACCESS:          0 HIT:          0 MISS:          0
cpu0_DTLB PREFETCH     ACCESS:          0 HIT:          0 MISS:          0
cpu0_DTLB WRITE        ACCESS:          0 HIT:          0 MISS:          0
cpu0_DTLB TRANSLATION  ACCESS:          0 HIT:          0 MISS:          0
cpu0_DTLB PREFETCH REQUESTED:          0 ISSUED:          0 USEFUL:          0 USELESS:          0
cpu0_DTLB AVERAGE MISS LATENCY: 2.994 cycles
cpu0_ITLB TOTAL        ACCESS:   12213899 HIT:   12213541 MISS:        358
cpu0_ITLB LOAD         ACCESS:   12213899 HIT:   12213541 MISS:        358
cpu0_ITLB RFO          ACCESS:          0 HIT:          0 MISS:          0
cpu0_ITLB PREFETCH     ACCESS:          0 HIT:          0 MISS:          0
cpu0_ITLB WRITE        ACCESS:          0 HIT:          0 MISS:          0
cpu0_ITLB TRANSLATION  ACCESS:          0 HIT:          0 MISS:          0
cpu0_ITLB PREFETCH REQUESTED:          0 ISSUED:          0 USEFUL:          0 USELESS:          0
cpu0_ITLB AVERAGE MISS LATENCY: 17.54 cycles
cpu0_L1D TOTAL        ACCESS:   24533307 HIT:   22983505 MISS:    1549802
cpu0_L1D LOAD         ACCESS:   14075383 HIT:   12965494 MISS:    1109889
cpu0_L1D RFO          ACCESS:          0 HIT:          0 MISS:          0
cpu0_L1D PREFETCH     ACCESS:     738690 HIT:     498109 MISS:     240581
cpu0_L1D WRITE        ACCESS:    9719084 HIT:    9519900 MISS:     199184
cpu0_L1D TRANSLATION  ACCESS:        150 HIT:          2 MISS:        148
cpu0_L1D PREFETCH REQUESTED:    1389358 ISSUED:     738667 USEFUL:      40566 USELESS:      20260
cpu0_L1D AVERAGE MISS LATENCY: 4.007 cycles
cpu0_L1I TOTAL        ACCESS:   18427893 HIT:   16676055 MISS:    1751838
cpu0_L1I LOAD         ACCESS:    7429582 HIT:    6493390 MISS:     936192
cpu0_L1I RFO          ACCESS:          0 HIT:          0 MISS:          0
cpu0_L1I PREFETCH     ACCESS:   10998311 HIT:   10182665 MISS:     815646
cpu0_L1I WRITE        ACCESS:          0 HIT:          0 MISS:          0
cpu0_L1I TRANSLATION  ACCESS:          0 HIT:          0 MISS:          0
cpu0_L1I PREFETCH REQUESTED:   58477978 ISSUED:   10998345 USEFUL:     389454 USELESS:     381369
cpu0_L1I AVERAGE MISS LATENCY: 8.686 cycles
cpu0_L2C TOTAL        ACCESS:    4640997 HIT:    4520831 MISS:     120166
cpu0_L2C LOAD         ACCESS:    1236971 HIT:    1210711 MISS:      26260
cpu0_L2C RFO          ACCESS:      91710 HIT:      63601 MISS:      28109
cpu0_L2C PREFETCH     ACCESS:    3140209 HIT:    3074546 MISS:      65663
cpu0_L2C WRITE        ACCESS:     171959 HIT:     171956 MISS:          3
cpu0_L2C TRANSLATION  ACCESS:        148 HIT:         17 MISS:        131
cpu0_L2C PREFETCH REQUESTED:    2225464 ISSUED:    2152522 USEFUL:      12048 USELESS:      23384
cpu0_L2C AVERAGE MISS LATENCY: 26.49 cycles
cpu0_STLB TOTAL        ACCESS:      70551 HIT:      70407 MISS:        144
cpu0_STLB LOAD         ACCESS:      70551 HIT:      70407 MISS:        144
cpu0_STLB RFO          ACCESS:          0 HIT:          0 MISS:          0
cpu0_STLB PREFETCH     ACCESS:          0 HIT:          0 MISS:          0
cpu0_STLB WRITE        ACCESS:          0 HIT:          0 MISS:          0
cpu0_STLB TRANSLATION  ACCESS:          0 HIT:          0 MISS:          0
cpu0_STLB PREFETCH REQUESTED:          0 ISSUED:          0 USEFUL:          0 USELESS:          0
cpu0_STLB AVERAGE MISS LATENCY: 140.3 cycles

DRAM Statistics

Channel 0 RQ ROW_BUFFER_HIT:       1325
  ROW_BUFFER_MISS:       1459
 AVG DBUS CONGESTED CYCLE: 3.8
WQ ROW_BUFFER_HIT: Channel 0 
  ROW_BUFFER_MISS:          4
  FULL:         18

Channel 1 RQ ROW_BUFFER_HIT:       1351
  ROW_BUFFER_MISS:       1423
 AVG DBUS CONGESTED CYCLE: 3.81
WQ ROW_BUFFER_HIT: Channel 1 
  ROW_BUFFER_MISS:          4
  FULL:         28
BERTI TO_L1: 1382112 TO_L2: 540957 TO_L2_BC_MSHR: 8278
BERTI AVG_LAT: 12.6608 NUM_TRACK_LATENCY: 719078 NUM_CANT_TRACK_LATENCY: 0
BERTI CROSS_PAGE 304896 NO_CROSS_PAGE: 1618173
BERTI FOUND_BERTI: 2516314 NO_FOUND_BERTI: 16165538
BERTI AVERAGE_ISSUED: 4.12564
CPU 0 L1I Entangling prefetcher final stats
IP accesses: 225a 89680 105423 / 7432075
IP misses: 9d5b 2756c0 7094 / 938685
IP hits: 0 0 0 / 0
IP late: 1fe2 7f880 3707 / 344174
IP wrong: 205c 81700 4920 / 370261
miss rate: 0.126302
coverage: 0
coverage_late: 0.366656
accuracy: 0
accuracy_late: 0.481743
discarded: 0
evicts entangled j table: 0
evicts entangled k table: 113124
max bb size: 14
formats: 51 0 68382 5614 24612 41088 0 
hist_lookups: 25830 60052 80887 99663 94703 77476 53866 36359 21778 12638 8029 5224 2845 1255 291 0 9 49296 
hist_lookups_evict: 0.00142812 %
hist_lookups_shortlat: 7.82227 %
bb_found_hist: 0 1756457 1074979 852500 582937 256104 118456 101302 58882 25226 10614 10049 1738 16431 128 0 0 0 0 0 0 0 0 0 0 0 0 0 0 0 0 0 0 0 0 0 0 0 0 0 0 0 0 0 0 0 0 0 0 0 0 0 0 0 0 0 0 0 0 0 0 0 0 0 
bb_found_summary: 12647053 4865803 2.59918
entangled_found_hist: 0 564947 656878 2307054 315391 763291 199045 0 
entangled_found_summary: 15072154 4806606 3.13572
bb_ent_found_hist: 0 4921296 2118624 2088817 1266120 796398 513900 151725 227027 36967 37373 24124 14415 42478 947 0 0 0 0 0 0 0 0 0 0 0 0 0 0 0 0 0 0 0 0 0 0 0 0 0 0 0 0 0 0 0 0 0 0 0 0 0 0 0 0 0 0 0 0 0 0 0 0 0 
bb_ent_found_summary: 32143405 12240211 2.62605
