WARNING: physical memory size is smaller than virtual memory size.

*** ChampSim Multicore Out-of-Order Simulator ***
Warmup Instructions: 30000000
Simulation Instructions: 100000000
Number of CPUs: 1
Page size: 4096

BTB:
Basic BTB sets: 1024 ways: 8
Indirect:
history lengths: 0 0 10 16 27 44 60 96 109 219 449 487 714 1313 2146 3881 
ITTAGE tables: 64768 bytes;Region table: 240 bytes;IUM: 384 bytes;Total Storage= 65392 bytes;
RAS:
RAS size: 64
[LLC] Demand IPV: 1 2 2 1 4 Prefetch IPV: 1 2 1 1 4
Berti Prefetcher
CPU 0 Entangling prefetcher
Off-chip DRAM Size: 8 GiB Channels: 2 Width: 64-bit Data Race: 6400 MT/s
Heartbeat CPU 0 instructions: 10000001 cycles: 1666811 heartbeat IPC: 5.999 cumulative IPC: 5.999 (Simulation time: 00 hr 00 min 46 sec)
Heartbeat CPU 0 instructions: 20000011 cycles: 3333480 heartbeat IPC: 6 cumulative IPC: 6 (Simulation time: 00 hr 01 min 32 sec)
Heartbeat CPU 0 instructions: 30000002 cycles: 5000189 heartbeat IPC: 6 cumulative IPC: 6 (Simulation time: 00 hr 02 min 18 sec)
Warmup finished CPU 0 instructions: 30000002 cycles: 5000190 cumulative IPC: 6 (Simulation time: 00 hr 02 min 18 sec)
Warmup complete CPU 0 instructions: 30000002 cycles: 5000190 cumulative IPC: 6 (Simulation time: 00 hr 02 min 18 sec)
*** Reached end of trace: (0, "../traces/public_traces/compute_int/compute_int_40.champsimtrace.xz")
Heartbeat CPU 0 instructions: 40000002 cycles: 7868803 heartbeat IPC: 3.486 cumulative IPC: 3.486 (Simulation time: 00 hr 03 min 18 sec)
Heartbeat CPU 0 instructions: 50000010 cycles: 10647968 heartbeat IPC: 3.598 cumulative IPC: 3.541 (Simulation time: 00 hr 04 min 16 sec)
Heartbeat CPU 0 instructions: 60000004 cycles: 13313564 heartbeat IPC: 3.752 cumulative IPC: 3.609 (Simulation time: 00 hr 05 min 16 sec)
*** Reached end of trace: (0, "../traces/public_traces/compute_int/compute_int_40.champsimtrace.xz")
Heartbeat CPU 0 instructions: 70000000 cycles: 16057854 heartbeat IPC: 3.644 cumulative IPC: 3.617 (Simulation time: 00 hr 06 min 22 sec)
Heartbeat CPU 0 instructions: 80000000 cycles: 18803814 heartbeat IPC: 3.642 cumulative IPC: 3.622 (Simulation time: 00 hr 07 min 26 sec)
Heartbeat CPU 0 instructions: 90000002 cycles: 21428281 heartbeat IPC: 3.81 cumulative IPC: 3.652 (Simulation time: 00 hr 08 min 24 sec)
*** Reached end of trace: (0, "../traces/public_traces/compute_int/compute_int_40.champsimtrace.xz")
Heartbeat CPU 0 instructions: 100000001 cycles: 24161673 heartbeat IPC: 3.658 cumulative IPC: 3.653 (Simulation time: 00 hr 09 min 23 sec)
Heartbeat CPU 0 instructions: 110000003 cycles: 26896890 heartbeat IPC: 3.656 cumulative IPC: 3.654 (Simulation time: 00 hr 10 min 19 sec)
Heartbeat CPU 0 instructions: 120000004 cycles: 29499100 heartbeat IPC: 3.843 cumulative IPC: 3.674 (Simulation time: 00 hr 11 min 14 sec)
*** Reached end of trace: (0, "../traces/public_traces/compute_int/compute_int_40.champsimtrace.xz")
Heartbeat CPU 0 instructions: 130000000 cycles: 32210915 heartbeat IPC: 3.688 cumulative IPC: 3.675 (Simulation time: 00 hr 12 min 21 sec)
Simulation finished CPU 0 instructions: 100000010 cycles: 27210727 cumulative IPC: 3.675 (Simulation time: 00 hr 12 min 21 sec)
Simulation complete CPU 0 instructions: 100000010 cycles: 27210727 cumulative IPC: 3.675 (Simulation time: 00 hr 12 min 21 sec)

ChampSim completed all CPUs

=== Simulation ===
CPU 0 runs ../traces/public_traces/compute_int/compute_int_40.champsimtrace.xz
Region of Interest Statistics

CPU 0 cumulative IPC: 3.675 instructions: 100000010 cycles: 27210727
CPU 0 Branch Prediction Accuracy: 96.11% MPKI: 4.283 Average ROB Occupancy at Mispredict: 43.45
Branch type MPKI
BRANCH_DIRECT_JUMP: 0
BRANCH_INDIRECT: 3.13
BRANCH_CONDITIONAL: 1.15
BRANCH_DIRECT_CALL: 0
BRANCH_INDIRECT_CALL: 0.00015
BRANCH_RETURN: 0.00028

LLC TOTAL        ACCESS:     149314 HIT:     142835 MISS:       6479
LLC LOAD         ACCESS:      42565 HIT:      41486 MISS:       1079
LLC RFO          ACCESS:        615 HIT:        607 MISS:          8
LLC PREFETCH     ACCESS:      36594 HIT:      34297 MISS:       2297
LLC WRITE        ACCESS:      35195 HIT:      34860 MISS:        335
LLC TRANSLATION  ACCESS:      34345 HIT:      31585 MISS:       2760
LLC PREFETCH REQUESTED:          0 ISSUED:          0 USEFUL:          0 USELESS:          0
LLC AVERAGE MISS LATENCY: 144.8 cycles
cpu0_DTLB TOTAL        ACCESS:   14193406 HIT:   14071699 MISS:     121707
cpu0_DTLB LOAD         ACCESS:   14193406 HIT:   14071699 MISS:     121707
cpu0_DTLB RFO          ACCESS:          0 HIT:          0 MISS:          0
cpu0_DTLB PREFETCH     ACCESS:          0 HIT:          0 MISS:          0
cpu0_DTLB WRITE        ACCESS:          0 HIT:          0 MISS:          0
cpu0_DTLB TRANSLATION  ACCESS:          0 HIT:          0 MISS:          0
cpu0_DTLB PREFETCH REQUESTED:          0 ISSUED:          0 USEFUL:          0 USELESS:          0
cpu0_DTLB AVERAGE MISS LATENCY: 16.49 cycles
cpu0_ITLB TOTAL        ACCESS:   15151160 HIT:   15151160 MISS:          0
cpu0_ITLB LOAD         ACCESS:   15151160 HIT:   15151160 MISS:          0
cpu0_ITLB RFO          ACCESS:          0 HIT:          0 MISS:          0
cpu0_ITLB PREFETCH     ACCESS:          0 HIT:          0 MISS:          0
cpu0_ITLB WRITE        ACCESS:          0 HIT:          0 MISS:          0
cpu0_ITLB TRANSLATION  ACCESS:          0 HIT:          0 MISS:          0
cpu0_ITLB PREFETCH REQUESTED:          0 ISSUED:          0 USEFUL:          0 USELESS:          0
cpu0_ITLB AVERAGE MISS LATENCY: -nan cycles
cpu0_L1D TOTAL        ACCESS:   20221982 HIT:   19868894 MISS:     353088
cpu0_L1D LOAD         ACCESS:   13828801 HIT:   13586887 MISS:     241914
cpu0_L1D RFO          ACCESS:          0 HIT:          0 MISS:          0
cpu0_L1D PREFETCH     ACCESS:        773 HIT:        439 MISS:        334
cpu0_L1D WRITE        ACCESS:    6343612 HIT:    6279324 MISS:      64288
cpu0_L1D TRANSLATION  ACCESS:      48796 HIT:       2244 MISS:      46552
cpu0_L1D PREFETCH REQUESTED:        773 ISSUED:        773 USEFUL:          0 USELESS:          0
cpu0_L1D AVERAGE MISS LATENCY: 10.64 cycles
cpu0_L1I TOTAL        ACCESS:   23831013 HIT:   22746814 MISS:    1084199
cpu0_L1I LOAD         ACCESS:    8441275 HIT:    7911468 MISS:     529807
cpu0_L1I RFO          ACCESS:          0 HIT:          0 MISS:          0
cpu0_L1I PREFETCH     ACCESS:   15389738 HIT:   14835346 MISS:     554392
cpu0_L1I WRITE        ACCESS:          0 HIT:          0 MISS:          0
cpu0_L1I TRANSLATION  ACCESS:          0 HIT:          0 MISS:          0
cpu0_L1I PREFETCH REQUESTED:  130924822 ISSUED:   15389704 USEFUL:     338921 USELESS:     168788
cpu0_L1I AVERAGE MISS LATENCY: 7.655 cycles
cpu0_L2C TOTAL        ACCESS:    2047860 HIT:    1924276 MISS:     123584
cpu0_L2C LOAD         ACCESS:     440128 HIT:     397462 MISS:      42666
cpu0_L2C RFO          ACCESS:      32193 HIT:      31560 MISS:        633
cpu0_L2C PREFETCH     ACCESS:    1454828 HIT:    1408934 MISS:      45894
cpu0_L2C WRITE        ACCESS:      74271 HIT:      74225 MISS:         46
cpu0_L2C TRANSLATION  ACCESS:      46440 HIT:      12095 MISS:      34345
cpu0_L2C PREFETCH REQUESTED:     948213 ISSUED:     946743 USEFUL:       4747 USELESS:      31027
cpu0_L2C AVERAGE MISS LATENCY: 26.08 cycles
cpu0_STLB TOTAL        ACCESS:      43820 HIT:      19188 MISS:      24632
cpu0_STLB LOAD         ACCESS:      43820 HIT:      19188 MISS:      24632
cpu0_STLB RFO          ACCESS:          0 HIT:          0 MISS:          0
cpu0_STLB PREFETCH     ACCESS:          0 HIT:          0 MISS:          0
cpu0_STLB WRITE        ACCESS:          0 HIT:          0 MISS:          0
cpu0_STLB TRANSLATION  ACCESS:          0 HIT:          0 MISS:          0
cpu0_STLB PREFETCH REQUESTED:          0 ISSUED:          0 USEFUL:          0 USELESS:          0
cpu0_STLB AVERAGE MISS LATENCY: 78.64 cycles

DRAM Statistics

Channel 0 RQ ROW_BUFFER_HIT:        348
  ROW_BUFFER_MISS:       2818
 AVG DBUS CONGESTED CYCLE: 3.766
WQ ROW_BUFFER_HIT: Channel 0 
  ROW_BUFFER_MISS:          1
  FULL:        106

Channel 1 RQ ROW_BUFFER_HIT:        319
  ROW_BUFFER_MISS:       2659
 AVG DBUS CONGESTED CYCLE: 3.869
WQ ROW_BUFFER_HIT: Channel 1 
  ROW_BUFFER_MISS:          6
  FULL:         88
BERTI TO_L1: 84 TO_L2: 1237 TO_L2_BC_MSHR: 0
BERTI AVG_LAT: 17.0259 NUM_TRACK_LATENCY: 130852 NUM_CANT_TRACK_LATENCY: 0
BERTI CROSS_PAGE 220 NO_CROSS_PAGE: 1101
BERTI FOUND_BERTI: 502650 NO_FOUND_BERTI: 17591825
BERTI AVERAGE_ISSUED: 1
CPU 0 L1I Entangling prefetcher final stats
IP accesses: 1d2 7480 104884 / 8441780
IP misses: 46a1 11a840 11426 / 530312
IP hits: 0 0 0 / 0
IP late: e7 39c0 3891 / 204598
IP wrong: 9d 2740 3355 / 165276
miss rate: 0.06282
coverage: 0
coverage_late: 0.385807
accuracy: 0
accuracy_late: 0.553156
discarded: 0
evicts entangled j table: 0
evicts entangled k table: 14188
max bb size: 61
formats: 7112 0 4248 1598 5815 2780 0 
hist_lookups: 13393 14398 20881 18711 12411 8447 6237 4630 3165 3320 1494 645 610 470 61 0 0 5515 
hist_lookups_evict: 0 %
hist_lookups_shortlat: 4.82131 %
bb_found_hist: 0 763794 589024 493554 464187 294885 200119 267684 309212 217988 201851 143724 114158 59513 60214 111029 84228 14181 1480 60518 49436 27144 42152 3139 2116 2121 0 1392 93 0 13907 0 0 3830 28259 2021 1763 2754 0 0 2081 0 0 25414 23556 0 0 0 0 0 25306 1640 0 0 27851 24250 0 0 2796 2941 0 3417 0 0 
bb_found_summary: 36666507 4770722 7.68574
entangled_found_hist: 0 1151847 576366 520997 436683 804131 153622 0 
entangled_found_summary: 10556689 3643646 2.89729
bb_ent_found_hist: 0 1850010 632402 2009307 986265 333309 274561 342758 471942 226105 18298 353541 338798 21670 30610 303173 173046 9176 51609 99833 103292 2 203977 420 0 0 0 42752 2 0 257152 0 0 0 0 1661 0 0 0 0 7467 0 0 4142 0 0 0 0 0 0 0 1549 0 0 0 450428 0 0 0 3322 0 3076 0 0 
bb_ent_found_summary: 84960412 9605655 8.84484
