WARNING: physical memory size is smaller than virtual memory size.

*** ChampSim Multicore Out-of-Order Simulator ***
Warmup Instructions: 30000000
Simulation Instructions: 100000000
Number of CPUs: 1
Page size: 4096

BTB:
Basic BTB sets: 1024 ways: 8
Indirect:
history lengths: 0 0 10 16 27 44 60 96 109 219 449 487 714 1313 2146 3881 
ITTAGE tables: 64768 bytes;Region table: 240 bytes;IUM: 384 bytes;Total Storage= 65392 bytes;
RAS:
RAS size: 64
[LLC] Demand IPV: 1 2 2 1 4 Prefetch IPV: 1 2 1 1 4
Berti Prefetcher
CPU 0 Entangling prefetcher
Off-chip DRAM Size: 8 GiB Channels: 2 Width: 64-bit Data Race: 6400 MT/s
Heartbeat CPU 0 instructions: 10000007 cycles: 1688946 heartbeat IPC: 5.921 cumulative IPC: 5.921 (Simulation time: 00 hr 00 min 45 sec)
Heartbeat CPU 0 instructions: 20000007 cycles: 3374824 heartbeat IPC: 5.932 cumulative IPC: 5.926 (Simulation time: 00 hr 01 min 35 sec)
Heartbeat CPU 0 instructions: 30000007 cycles: 5063802 heartbeat IPC: 5.921 cumulative IPC: 5.924 (Simulation time: 00 hr 02 min 37 sec)
Warmup finished CPU 0 instructions: 30000007 cycles: 5063803 cumulative IPC: 5.924 (Simulation time: 00 hr 02 min 37 sec)
Warmup complete CPU 0 instructions: 30000007 cycles: 5063803 cumulative IPC: 5.924 (Simulation time: 00 hr 02 min 37 sec)
*** Reached end of trace: (0, "../traces/public_traces/compute_int/compute_int_38.champsimtrace.xz")
Heartbeat CPU 0 instructions: 40000001 cycles: 13445957 heartbeat IPC: 1.193 cumulative IPC: 1.193 (Simulation time: 00 hr 04 min 48 sec)
Heartbeat CPU 0 instructions: 50000002 cycles: 22718937 heartbeat IPC: 1.078 cumulative IPC: 1.133 (Simulation time: 00 hr 07 min 01 sec)
Heartbeat CPU 0 instructions: 60000007 cycles: 31778359 heartbeat IPC: 1.104 cumulative IPC: 1.123 (Simulation time: 00 hr 09 min 12 sec)
*** Reached end of trace: (0, "../traces/public_traces/compute_int/compute_int_38.champsimtrace.xz")
Heartbeat CPU 0 instructions: 70000001 cycles: 40193360 heartbeat IPC: 1.188 cumulative IPC: 1.139 (Simulation time: 00 hr 11 min 08 sec)
Heartbeat CPU 0 instructions: 80000007 cycles: 49189063 heartbeat IPC: 1.112 cumulative IPC: 1.133 (Simulation time: 00 hr 13 min 11 sec)
Heartbeat CPU 0 instructions: 90000000 cycles: 58025337 heartbeat IPC: 1.132 cumulative IPC: 1.133 (Simulation time: 00 hr 15 min 20 sec)
*** Reached end of trace: (0, "../traces/public_traces/compute_int/compute_int_38.champsimtrace.xz")
Heartbeat CPU 0 instructions: 100000001 cycles: 66413012 heartbeat IPC: 1.192 cumulative IPC: 1.141 (Simulation time: 00 hr 17 min 25 sec)
Heartbeat CPU 0 instructions: 110000007 cycles: 75277446 heartbeat IPC: 1.128 cumulative IPC: 1.139 (Simulation time: 00 hr 19 min 33 sec)
Heartbeat CPU 0 instructions: 120000003 cycles: 84154063 heartbeat IPC: 1.127 cumulative IPC: 1.138 (Simulation time: 00 hr 21 min 46 sec)
*** Reached end of trace: (0, "../traces/public_traces/compute_int/compute_int_38.champsimtrace.xz")
Heartbeat CPU 0 instructions: 130000011 cycles: 92633489 heartbeat IPC: 1.179 cumulative IPC: 1.142 (Simulation time: 00 hr 23 min 54 sec)
Simulation finished CPU 0 instructions: 100000004 cycles: 87569687 cumulative IPC: 1.142 (Simulation time: 00 hr 23 min 54 sec)
Simulation complete CPU 0 instructions: 100000004 cycles: 87569687 cumulative IPC: 1.142 (Simulation time: 00 hr 23 min 54 sec)

ChampSim completed all CPUs

=== Simulation ===
CPU 0 runs ../traces/public_traces/compute_int/compute_int_38.champsimtrace.xz
Region of Interest Statistics

CPU 0 cumulative IPC: 1.142 instructions: 100000004 cycles: 87569687
CPU 0 Branch Prediction Accuracy: 98.39% MPKI: 3.239 Average ROB Occupancy at Mispredict: 90.56
Branch type MPKI
BRANCH_DIRECT_JUMP: 0
BRANCH_INDIRECT: 0.194
BRANCH_CONDITIONAL: 3.03
BRANCH_DIRECT_CALL: 0
BRANCH_INDIRECT_CALL: 0.0179
BRANCH_RETURN: 4e-05

LLC TOTAL        ACCESS:    2610725 HIT:     662537 MISS:    1948188
LLC LOAD         ACCESS:     849253 HIT:     212728 MISS:     636525
LLC RFO          ACCESS:      93507 HIT:      35517 MISS:      57990
LLC PREFETCH     ACCESS:     721467 HIT:     132621 MISS:     588846
LLC WRITE        ACCESS:     575757 HIT:     263913 MISS:     311844
LLC TRANSLATION  ACCESS:     370741 HIT:      17758 MISS:     352983
LLC PREFETCH REQUESTED:          0 ISSUED:          0 USEFUL:          0 USELESS:          0
LLC AVERAGE MISS LATENCY: 170.1 cycles
cpu0_DTLB TOTAL        ACCESS:   20124667 HIT:   18506199 MISS:    1618468
cpu0_DTLB LOAD         ACCESS:   20124667 HIT:   18506199 MISS:    1618468
cpu0_DTLB RFO          ACCESS:          0 HIT:          0 MISS:          0
cpu0_DTLB PREFETCH     ACCESS:          0 HIT:          0 MISS:          0
cpu0_DTLB WRITE        ACCESS:          0 HIT:          0 MISS:          0
cpu0_DTLB TRANSLATION  ACCESS:          0 HIT:          0 MISS:          0
cpu0_DTLB PREFETCH REQUESTED:          0 ISSUED:          0 USEFUL:          0 USELESS:          0
cpu0_DTLB AVERAGE MISS LATENCY: 55.06 cycles
cpu0_ITLB TOTAL        ACCESS:   16853360 HIT:   16853346 MISS:         14
cpu0_ITLB LOAD         ACCESS:   16853360 HIT:   16853346 MISS:         14
cpu0_ITLB RFO          ACCESS:          0 HIT:          0 MISS:          0
cpu0_ITLB PREFETCH     ACCESS:          0 HIT:          0 MISS:          0
cpu0_ITLB WRITE        ACCESS:          0 HIT:          0 MISS:          0
cpu0_ITLB TRANSLATION  ACCESS:          0 HIT:          0 MISS:          0
cpu0_ITLB PREFETCH REQUESTED:          0 ISSUED:          0 USEFUL:          0 USELESS:          0
cpu0_ITLB AVERAGE MISS LATENCY: 292.1 cycles
cpu0_L1D TOTAL        ACCESS:   31043769 HIT:   26956820 MISS:    4086949
cpu0_L1D LOAD         ACCESS:   18050739 HIT:   15186614 MISS:    2864125
cpu0_L1D RFO          ACCESS:          0 HIT:          0 MISS:          0
cpu0_L1D PREFETCH     ACCESS:       1590 HIT:        675 MISS:        915
cpu0_L1D WRITE        ACCESS:   12423260 HIT:   11680501 MISS:     742759
cpu0_L1D TRANSLATION  ACCESS:     568180 HIT:      89030 MISS:     479150
cpu0_L1D PREFETCH REQUESTED:       1590 ISSUED:       1590 USEFUL:        287 USELESS:         18
cpu0_L1D AVERAGE MISS LATENCY: 63.69 cycles
cpu0_L1I TOTAL        ACCESS:   24631003 HIT:   24422756 MISS:     208247
cpu0_L1I LOAD         ACCESS:    8796148 HIT:    8735974 MISS:      60174
cpu0_L1I RFO          ACCESS:          0 HIT:          0 MISS:          0
cpu0_L1I PREFETCH     ACCESS:   15834855 HIT:   15686782 MISS:     148073
cpu0_L1I WRITE        ACCESS:          0 HIT:          0 MISS:          0
cpu0_L1I TRANSLATION  ACCESS:          0 HIT:          0 MISS:          0
cpu0_L1I PREFETCH REQUESTED:   39843428 ISSUED:   15834836 USEFUL:      59558 USELESS:      80260
cpu0_L1I AVERAGE MISS LATENCY: 14.03 cycles
cpu0_L2C TOTAL        ACCESS:    5579778 HIT:    3297458 MISS:    2282320
cpu0_L2C LOAD         ACCESS:    1771628 HIT:     881053 MISS:     890575
cpu0_L2C RFO          ACCESS:     271011 HIT:     170441 MISS:     100570
cpu0_L2C PREFETCH     ACCESS:    2053088 HIT:    1133168 MISS:     919920
cpu0_L2C WRITE        ACCESS:    1005932 HIT:    1005424 MISS:        508
cpu0_L2C TRANSLATION  ACCESS:     478119 HIT:     107372 MISS:     370747
cpu0_L2C PREFETCH REQUESTED:    1912357 ISSUED:    1912357 USEFUL:     209641 USELESS:     509362
cpu0_L2C AVERAGE MISS LATENCY: 162.6 cycles
cpu0_STLB TOTAL        ACCESS:    1158341 HIT:     751329 MISS:     407012
cpu0_STLB LOAD         ACCESS:    1158341 HIT:     751329 MISS:     407012
cpu0_STLB RFO          ACCESS:          0 HIT:          0 MISS:          0
cpu0_STLB PREFETCH     ACCESS:          0 HIT:          0 MISS:          0
cpu0_STLB WRITE        ACCESS:          0 HIT:          0 MISS:          0
cpu0_STLB TRANSLATION  ACCESS:          0 HIT:          0 MISS:          0
cpu0_STLB PREFETCH REQUESTED:          0 ISSUED:          0 USEFUL:          0 USELESS:          0
cpu0_STLB AVERAGE MISS LATENCY: 213.5 cycles

DRAM Statistics

Channel 0 RQ ROW_BUFFER_HIT:     136016
  ROW_BUFFER_MISS:     686437
 AVG DBUS CONGESTED CYCLE: 3.869
WQ ROW_BUFFER_HIT: Channel 0 
  ROW_BUFFER_MISS:      40058
  FULL:     125862

Channel 1 RQ ROW_BUFFER_HIT:     133657
  ROW_BUFFER_MISS:     680092
 AVG DBUS CONGESTED CYCLE: 3.866
WQ ROW_BUFFER_HIT: Channel 1 
  ROW_BUFFER_MISS:      40189
  FULL:     125646
BERTI TO_L1: 1422 TO_L2: 867 TO_L2_BC_MSHR: 0
BERTI AVG_LAT: 80.9545 NUM_TRACK_LATENCY: 2267581 NUM_CANT_TRACK_LATENCY: 0
BERTI CROSS_PAGE 169 NO_CROSS_PAGE: 2120
BERTI FOUND_BERTI: 2620402 NO_FOUND_BERTI: 21187136
BERTI AVERAGE_ISSUED: 4.76876
CPU 0 L1I Entangling prefetcher final stats
IP accesses: 1384 4e100 273706 / 8802709
IP misses: 824 20900 5806 / 66735
IP hits: 0 0 0 / 0
IP late: 824 20900 5156 / 28421
IP wrong: 43a3 10e8c0 9043 / 68204
miss rate: 0.00758119
coverage: 0
coverage_late: 0.425879
accuracy: 0
accuracy_late: 0.294138
discarded: 0
evicts entangled j table: 0
evicts entangled k table: 1454
max bb size: 9
formats: 13 0 4912 835 233 282 0 
hist_lookups: 870 4469 5460 3340 2802 4768 1192 1057 1520 767 520 1181 165 89 15 0 6 3993 
hist_lookups_evict: 0.0186255 %
hist_lookups_shortlat: 12.3953 %
bb_found_hist: 0 2347903 1600540 762155 360059 212037 59628 28800 6955 9356 0 0 0 0 0 0 0 0 0 0 0 0 0 0 0 0 0 0 0 0 0 0 0 0 0 0 0 0 0 0 0 0 0 0 0 0 0 0 0 0 0 0 0 0 0 0 0 0 0 0 0 0 0 0 
bb_found_summary: 11035081 5387433 2.04831
entangled_found_hist: 0 1228284 1729995 1934571 134905 7987 618 0 
entangled_found_summary: 11075250 5036360 2.19906
bb_ent_found_hist: 0 3521737 2500259 968572 423398 566392 156529 96918 0 45345 0 0 0 0 0 0 0 0 0 0 0 0 0 0 0 0 0 0 0 0 0 0 0 0 0 0 0 0 0 0 0 0 0 0 0 0 0 0 0 0 0 0 0 0 0 0 0 0 0 0 0 0 0 0 
bb_ent_found_summary: 17979228 8279150 2.17163
