WARNING: physical memory size is smaller than virtual memory size.

*** ChampSim Multicore Out-of-Order Simulator ***
Warmup Instructions: 30000000
Simulation Instructions: 100000000
Number of CPUs: 1
Page size: 4096

BTB:
Basic BTB sets: 1024 ways: 8
Indirect:
history lengths: 0 0 10 16 27 44 60 96 109 219 449 487 714 1313 2146 3881 
ITTAGE tables: 64768 bytes;Region table: 240 bytes;IUM: 384 bytes;Total Storage= 65392 bytes;
RAS:
RAS size: 64
[LLC] INSTR Demand IPV: 1 2 2 1 4 Prefetch IPV: 1 2 1 1 4
[LLC] DATA  Demand IPV: 1 1 1 2 4 Prefetch IPV: 1 1 2 2 4
Berti Prefetcher
CPU 0 Entangling prefetcher
Off-chip DRAM Size: 8 GiB Channels: 2 Width: 64-bit Data Race: 6400 MT/s
[DUEL] Epoch ended. INSTR misses = 1, DATA misses = 0. Winner = DATA
[DUEL] Epoch ended. INSTR misses = 16, DATA misses = 16. Winner = INSTR
[DUEL] Epoch ended. INSTR misses = 0, DATA misses = 0. Winner = INSTR
[DUEL] Epoch ended. INSTR misses = 0, DATA misses = 0. Winner = INSTR
[DUEL] Epoch ended. INSTR misses = 0, DATA misses = 0. Winner = INSTR
[DUEL] Epoch ended. INSTR misses = 0, DATA misses = 0. Winner = INSTR
[DUEL] Epoch ended. INSTR misses = 22, DATA misses = 19. Winner = DATA
[DUEL] Epoch ended. INSTR misses = 0, DATA misses = 0. Winner = INSTR
[DUEL] Epoch ended. INSTR misses = 0, DATA misses = 0. Winner = INSTR
[DUEL] Epoch ended. INSTR misses = 0, DATA misses = 0. Winner = INSTR
[DUEL] Epoch ended. INSTR misses = 16, DATA misses = 16. Winner = INSTR
[DUEL] Epoch ended. INSTR misses = 0, DATA misses = 0. Winner = INSTR
[DUEL] Epoch ended. INSTR misses = 0, DATA misses = 0. Winner = INSTR
[DUEL] Epoch ended. INSTR misses = 0, DATA misses = 0. Winner = INSTR
[DUEL] Epoch ended. INSTR misses = 16, DATA misses = 16. Winner = INSTR
[DUEL] Epoch ended. INSTR misses = 0, DATA misses = 0. Winner = INSTR
[DUEL] Epoch ended. INSTR misses = 0, DATA misses = 0. Winner = INSTR
[DUEL] Epoch ended. INSTR misses = 0, DATA misses = 0. Winner = INSTR
[DUEL] Epoch ended. INSTR misses = 16, DATA misses = 16. Winner = INSTR
Heartbeat CPU 0 instructions: 10000004 cycles: 1666774 heartbeat IPC: 6 cumulative IPC: 6 (Simulation time: 00 hr 00 min 18 sec)
[DUEL] Epoch ended. INSTR misses = 0, DATA misses = 0. Winner = INSTR
[DUEL] Epoch ended. INSTR misses = 0, DATA misses = 0. Winner = INSTR
[DUEL] Epoch ended. INSTR misses = 0, DATA misses = 0. Winner = INSTR
[DUEL] Epoch ended. INSTR misses = 0, DATA misses = 0. Winner = INSTR
[DUEL] Epoch ended. INSTR misses = 16, DATA misses = 16. Winner = INSTR
[DUEL] Epoch ended. INSTR misses = 0, DATA misses = 0. Winner = INSTR
[DUEL] Epoch ended. INSTR misses = 0, DATA misses = 0. Winner = INSTR
[DUEL] Epoch ended. INSTR misses = 0, DATA misses = 0. Winner = INSTR
[DUEL] Epoch ended. INSTR misses = 16, DATA misses = 16. Winner = INSTR
[DUEL] Epoch ended. INSTR misses = 0, DATA misses = 0. Winner = INSTR
[DUEL] Epoch ended. INSTR misses = 0, DATA misses = 0. Winner = INSTR
[DUEL] Epoch ended. INSTR misses = 0, DATA misses = 0. Winner = INSTR
[DUEL] Epoch ended. INSTR misses = 16, DATA misses = 16. Winner = INSTR
[DUEL] Epoch ended. INSTR misses = 0, DATA misses = 0. Winner = INSTR
[DUEL] Epoch ended. INSTR misses = 0, DATA misses = 0. Winner = INSTR
[DUEL] Epoch ended. INSTR misses = 0, DATA misses = 0. Winner = INSTR
[DUEL] Epoch ended. INSTR misses = 16, DATA misses = 16. Winner = INSTR
[DUEL] Epoch ended. INSTR misses = 0, DATA misses = 0. Winner = INSTR
[DUEL] Epoch ended. INSTR misses = 0, DATA misses = 0. Winner = INSTR
Heartbeat CPU 0 instructions: 20000004 cycles: 3333444 heartbeat IPC: 6 cumulative IPC: 6 (Simulation time: 00 hr 00 min 37 sec)
[DUEL] Epoch ended. INSTR misses = 0, DATA misses = 0. Winner = INSTR
[DUEL] Epoch ended. INSTR misses = 0, DATA misses = 0. Winner = INSTR
[DUEL] Epoch ended. INSTR misses = 16, DATA misses = 16. Winner = INSTR
[DUEL] Epoch ended. INSTR misses = 0, DATA misses = 0. Winner = INSTR
[DUEL] Epoch ended. INSTR misses = 0, DATA misses = 0. Winner = INSTR
[DUEL] Epoch ended. INSTR misses = 0, DATA misses = 0. Winner = INSTR
[DUEL] Epoch ended. INSTR misses = 16, DATA misses = 16. Winner = INSTR
[DUEL] Epoch ended. INSTR misses = 0, DATA misses = 0. Winner = INSTR
[DUEL] Epoch ended. INSTR misses = 0, DATA misses = 0. Winner = INSTR
[DUEL] Epoch ended. INSTR misses = 0, DATA misses = 0. Winner = INSTR
[DUEL] Epoch ended. INSTR misses = 16, DATA misses = 16. Winner = INSTR
[DUEL] Epoch ended. INSTR misses = 0, DATA misses = 0. Winner = INSTR
[DUEL] Epoch ended. INSTR misses = 0, DATA misses = 0. Winner = INSTR
[DUEL] Epoch ended. INSTR misses = 0, DATA misses = 0. Winner = INSTR
[DUEL] Epoch ended. INSTR misses = 0, DATA misses = 0. Winner = INSTR
[DUEL] Epoch ended. INSTR misses = 16, DATA misses = 16. Winner = INSTR
[DUEL] Epoch ended. INSTR misses = 0, DATA misses = 0. Winner = INSTR
[DUEL] Epoch ended. INSTR misses = 0, DATA misses = 0. Winner = INSTR
[DUEL] Epoch ended. INSTR misses = 0, DATA misses = 0. Winner = INSTR
[DUEL] Epoch ended. INSTR misses = 16, DATA misses = 17. Winner = INSTR
Heartbeat CPU 0 instructions: 30000004 cycles: 5000108 heartbeat IPC: 6 cumulative IPC: 6 (Simulation time: 00 hr 00 min 56 sec)
Warmup finished CPU 0 instructions: 30000004 cycles: 5000109 cumulative IPC: 6 (Simulation time: 00 hr 00 min 56 sec)
Warmup complete CPU 0 instructions: 30000004 cycles: 5000109 cumulative IPC: 6 (Simulation time: 00 hr 00 min 56 sec)
*** Reached end of trace: (0, "../traces/public_traces/compute_fp/compute_fp_13.champsimtrace.xz")
[DUEL] Epoch ended. INSTR misses = 0, DATA misses = 0. Winner = INSTR
[DUEL] Epoch ended. INSTR misses = 0, DATA misses = 0. Winner = INSTR
[DUEL] Epoch ended. INSTR misses = 6, DATA misses = 2. Winner = DATA
[DUEL] Epoch ended. INSTR misses = 0, DATA misses = 0. Winner = INSTR
[DUEL] Epoch ended. INSTR misses = 0, DATA misses = 0. Winner = INSTR
[DUEL] Epoch ended. INSTR misses = 0, DATA misses = 0. Winner = INSTR
[DUEL] Epoch ended. INSTR misses = 5, DATA misses = 3. Winner = DATA
[DUEL] Epoch ended. INSTR misses = 0, DATA misses = 0. Winner = INSTR
[DUEL] Epoch ended. INSTR misses = 0, DATA misses = 0. Winner = INSTR
[DUEL] Epoch ended. INSTR misses = 0, DATA misses = 0. Winner = INSTR
[DUEL] Epoch ended. INSTR misses = 0, DATA misses = 0. Winner = INSTR
[DUEL] Epoch ended. INSTR misses = 0, DATA misses = 0. Winner = INSTR
[DUEL] Epoch ended. INSTR misses = 0, DATA misses = 0. Winner = INSTR
[DUEL] Epoch ended. INSTR misses = 0, DATA misses = 0. Winner = INSTR
[DUEL] Epoch ended. INSTR misses = 0, DATA misses = 0. Winner = INSTR
[DUEL] Epoch ended. INSTR misses = 0, DATA misses = 0. Winner = INSTR
[DUEL] Epoch ended. INSTR misses = 0, DATA misses = 0. Winner = INSTR
[DUEL] Epoch ended. INSTR misses = 0, DATA misses = 0. Winner = INSTR
[DUEL] Epoch ended. INSTR misses = 0, DATA misses = 0. Winner = INSTR
Heartbeat CPU 0 instructions: 40000000 cycles: 6735822 heartbeat IPC: 5.761 cumulative IPC: 5.761 (Simulation time: 00 hr 01 min 18 sec)
[DUEL] Epoch ended. INSTR misses = 0, DATA misses = 0. Winner = INSTR
[DUEL] Epoch ended. INSTR misses = 0, DATA misses = 0. Winner = INSTR
[DUEL] Epoch ended. INSTR misses = 0, DATA misses = 0. Winner = INSTR
[DUEL] Epoch ended. INSTR misses = 0, DATA misses = 0. Winner = INSTR
[DUEL] Epoch ended. INSTR misses = 7, DATA misses = 6. Winner = DATA
[DUEL] Epoch ended. INSTR misses = 0, DATA misses = 0. Winner = INSTR
[DUEL] Epoch ended. INSTR misses = 0, DATA misses = 0. Winner = INSTR
[DUEL] Epoch ended. INSTR misses = 0, DATA misses = 0. Winner = INSTR
[DUEL] Epoch ended. INSTR misses = 1, DATA misses = 4. Winner = INSTR
[DUEL] Epoch ended. INSTR misses = 0, DATA misses = 0. Winner = INSTR
[DUEL] Epoch ended. INSTR misses = 0, DATA misses = 0. Winner = INSTR
[DUEL] Epoch ended. INSTR misses = 0, DATA misses = 0. Winner = INSTR
[DUEL] Epoch ended. INSTR misses = 5, DATA misses = 0. Winner = DATA
[DUEL] Epoch ended. INSTR misses = 1, DATA misses = 8. Winner = INSTR
[DUEL] Epoch ended. INSTR misses = 0, DATA misses = 0. Winner = INSTR
[DUEL] Epoch ended. INSTR misses = 0, DATA misses = 0. Winner = INSTR
[DUEL] Epoch ended. INSTR misses = 0, DATA misses = 0. Winner = INSTR
[DUEL] Epoch ended. INSTR misses = 7, DATA misses = 2. Winner = DATA
[DUEL] Epoch ended. INSTR misses = 0, DATA misses = 0. Winner = INSTR
[DUEL] Epoch ended. INSTR misses = 0, DATA misses = 0. Winner = INSTR
Heartbeat CPU 0 instructions: 50000000 cycles: 8477515 heartbeat IPC: 5.742 cumulative IPC: 5.751 (Simulation time: 00 hr 01 min 40 sec)
[DUEL] Epoch ended. INSTR misses = 0, DATA misses = 0. Winner = INSTR
[DUEL] Epoch ended. INSTR misses = 5, DATA misses = 9. Winner = INSTR
[DUEL] Epoch ended. INSTR misses = 0, DATA misses = 0. Winner = INSTR
[DUEL] Epoch ended. INSTR misses = 0, DATA misses = 0. Winner = INSTR
[DUEL] Epoch ended. INSTR misses = 0, DATA misses = 0. Winner = INSTR
[DUEL] Epoch ended. INSTR misses = 5, DATA misses = 11. Winner = INSTR
[DUEL] Epoch ended. INSTR misses = 0, DATA misses = 0. Winner = INSTR
[DUEL] Epoch ended. INSTR misses = 0, DATA misses = 0. Winner = INSTR
[DUEL] Epoch ended. INSTR misses = 0, DATA misses = 0. Winner = INSTR
[DUEL] Epoch ended. INSTR misses = 0, DATA misses = 0. Winner = INSTR
[DUEL] Epoch ended. INSTR misses = 11, DATA misses = 9. Winner = DATA
[DUEL] Epoch ended. INSTR misses = 0, DATA misses = 0. Winner = INSTR
[DUEL] Epoch ended. INSTR misses = 0, DATA misses = 0. Winner = INSTR
[DUEL] Epoch ended. INSTR misses = 0, DATA misses = 0. Winner = INSTR
[DUEL] Epoch ended. INSTR misses = 8, DATA misses = 7. Winner = DATA
[DUEL] Epoch ended. INSTR misses = 0, DATA misses = 0. Winner = INSTR
[DUEL] Epoch ended. INSTR misses = 0, DATA misses = 0. Winner = INSTR
[DUEL] Epoch ended. INSTR misses = 0, DATA misses = 0. Winner = INSTR
[DUEL] Epoch ended. INSTR misses = 12, DATA misses = 9. Winner = DATA
Heartbeat CPU 0 instructions: 60000002 cycles: 10245330 heartbeat IPC: 5.657 cumulative IPC: 5.719 (Simulation time: 00 hr 02 min 02 sec)
*** Reached end of trace: (0, "../traces/public_traces/compute_fp/compute_fp_13.champsimtrace.xz")
[DUEL] Epoch ended. INSTR misses = 0, DATA misses = 0. Winner = INSTR
[DUEL] Epoch ended. INSTR misses = 0, DATA misses = 0. Winner = INSTR
[DUEL] Epoch ended. INSTR misses = 5, DATA misses = 1. Winner = DATA
[DUEL] Epoch ended. INSTR misses = 0, DATA misses = 0. Winner = INSTR
[DUEL] Epoch ended. INSTR misses = 0, DATA misses = 0. Winner = INSTR
[DUEL] Epoch ended. INSTR misses = 0, DATA misses = 0. Winner = INSTR
[DUEL] Epoch ended. INSTR misses = 4, DATA misses = 3. Winner = DATA
[DUEL] Epoch ended. INSTR misses = 0, DATA misses = 0. Winner = INSTR
[DUEL] Epoch ended. INSTR misses = 0, DATA misses = 0. Winner = INSTR
[DUEL] Epoch ended. INSTR misses = 0, DATA misses = 0. Winner = INSTR
[DUEL] Epoch ended. INSTR misses = 0, DATA misses = 0. Winner = INSTR
[DUEL] Epoch ended. INSTR misses = 0, DATA misses = 0. Winner = INSTR
[DUEL] Epoch ended. INSTR misses = 0, DATA misses = 0. Winner = INSTR
[DUEL] Epoch ended. INSTR misses = 0, DATA misses = 0. Winner = INSTR
[DUEL] Epoch ended. INSTR misses = 0, DATA misses = 0. Winner = INSTR
[DUEL] Epoch ended. INSTR misses = 0, DATA misses = 0. Winner = INSTR
[DUEL] Epoch ended. INSTR misses = 0, DATA misses = 0. Winner = INSTR
[DUEL] Epoch ended. INSTR misses = 0, DATA misses = 0. Winner = INSTR
[DUEL] Epoch ended. INSTR misses = 0, DATA misses = 0. Winner = INSTR
[DUEL] Epoch ended. INSTR misses = 0, DATA misses = 0. Winner = INSTR
Heartbeat CPU 0 instructions: 70000004 cycles: 11983891 heartbeat IPC: 5.752 cumulative IPC: 5.728 (Simulation time: 00 hr 02 min 24 sec)
[DUEL] Epoch ended. INSTR misses = 0, DATA misses = 0. Winner = INSTR
[DUEL] Epoch ended. INSTR misses = 0, DATA misses = 0. Winner = INSTR
[DUEL] Epoch ended. INSTR misses = 0, DATA misses = 0. Winner = INSTR
[DUEL] Epoch ended. INSTR misses = 6, DATA misses = 3. Winner = DATA
[DUEL] Epoch ended. INSTR misses = 0, DATA misses = 0. Winner = INSTR
[DUEL] Epoch ended. INSTR misses = 0, DATA misses = 0. Winner = INSTR
[DUEL] Epoch ended. INSTR misses = 0, DATA misses = 0. Winner = INSTR
[DUEL] Epoch ended. INSTR misses = 0, DATA misses = 0. Winner = INSTR
[DUEL] Epoch ended. INSTR misses = 0, DATA misses = 3. Winner = INSTR
[DUEL] Epoch ended. INSTR misses = 0, DATA misses = 0. Winner = INSTR
[DUEL] Epoch ended. INSTR misses = 0, DATA misses = 0. Winner = INSTR
[DUEL] Epoch ended. INSTR misses = 0, DATA misses = 0. Winner = INSTR
[DUEL] Epoch ended. INSTR misses = 6, DATA misses = 7. Winner = INSTR
[DUEL] Epoch ended. INSTR misses = 0, DATA misses = 0. Winner = INSTR
[DUEL] Epoch ended. INSTR misses = 0, DATA misses = 0. Winner = INSTR
[DUEL] Epoch ended. INSTR misses = 0, DATA misses = 0. Winner = INSTR
[DUEL] Epoch ended. INSTR misses = 6, DATA misses = 1. Winner = DATA
[DUEL] Epoch ended. INSTR misses = 0, DATA misses = 0. Winner = INSTR
[DUEL] Epoch ended. INSTR misses = 0, DATA misses = 0. Winner = INSTR
Heartbeat CPU 0 instructions: 80000009 cycles: 13720499 heartbeat IPC: 5.758 cumulative IPC: 5.734 (Simulation time: 00 hr 02 min 47 sec)
[DUEL] Epoch ended. INSTR misses = 0, DATA misses = 0. Winner = INSTR
[DUEL] Epoch ended. INSTR misses = 4, DATA misses = 8. Winner = INSTR
[DUEL] Epoch ended. INSTR misses = 0, DATA misses = 0. Winner = INSTR
[DUEL] Epoch ended. INSTR misses = 0, DATA misses = 0. Winner = INSTR
[DUEL] Epoch ended. INSTR misses = 0, DATA misses = 0. Winner = INSTR
[DUEL] Epoch ended. INSTR misses = 0, DATA misses = 0. Winner = INSTR
[DUEL] Epoch ended. INSTR misses = 3, DATA misses = 11. Winner = INSTR
[DUEL] Epoch ended. INSTR misses = 0, DATA misses = 0. Winner = INSTR
[DUEL] Epoch ended. INSTR misses = 0, DATA misses = 0. Winner = INSTR
[DUEL] Epoch ended. INSTR misses = 0, DATA misses = 0. Winner = INSTR
[DUEL] Epoch ended. INSTR misses = 11, DATA misses = 8. Winner = DATA
[DUEL] Epoch ended. INSTR misses = 0, DATA misses = 0. Winner = INSTR
[DUEL] Epoch ended. INSTR misses = 0, DATA misses = 0. Winner = INSTR
[DUEL] Epoch ended. INSTR misses = 0, DATA misses = 0. Winner = INSTR
[DUEL] Epoch ended. INSTR misses = 6, DATA misses = 7. Winner = INSTR
[DUEL] Epoch ended. INSTR misses = 0, DATA misses = 0. Winner = INSTR
[DUEL] Epoch ended. INSTR misses = 0, DATA misses = 0. Winner = INSTR
[DUEL] Epoch ended. INSTR misses = 0, DATA misses = 0. Winner = INSTR
[DUEL] Epoch ended. INSTR misses = 0, DATA misses = 0. Winner = INSTR
Heartbeat CPU 0 instructions: 90000006 cycles: 15473462 heartbeat IPC: 5.705 cumulative IPC: 5.729 (Simulation time: 00 hr 03 min 09 sec)
[DUEL] Epoch ended. INSTR misses = 11, DATA misses = 8. Winner = DATA
*** Reached end of trace: (0, "../traces/public_traces/compute_fp/compute_fp_13.champsimtrace.xz")
[DUEL] Epoch ended. INSTR misses = 0, DATA misses = 0. Winner = INSTR
[DUEL] Epoch ended. INSTR misses = 3, DATA misses = 1. Winner = DATA
[DUEL] Epoch ended. INSTR misses = 0, DATA misses = 0. Winner = INSTR
[DUEL] Epoch ended. INSTR misses = 0, DATA misses = 0. Winner = INSTR
[DUEL] Epoch ended. INSTR misses = 0, DATA misses = 0. Winner = INSTR
[DUEL] Epoch ended. INSTR misses = 0, DATA misses = 0. Winner = INSTR
[DUEL] Epoch ended. INSTR misses = 4, DATA misses = 3. Winner = DATA
[DUEL] Epoch ended. INSTR misses = 0, DATA misses = 0. Winner = INSTR
[DUEL] Epoch ended. INSTR misses = 0, DATA misses = 0. Winner = INSTR
[DUEL] Epoch ended. INSTR misses = 0, DATA misses = 0. Winner = INSTR
[DUEL] Epoch ended. INSTR misses = 0, DATA misses = 0. Winner = INSTR
[DUEL] Epoch ended. INSTR misses = 0, DATA misses = 0. Winner = INSTR
[DUEL] Epoch ended. INSTR misses = 0, DATA misses = 0. Winner = INSTR
[DUEL] Epoch ended. INSTR misses = 0, DATA misses = 0. Winner = INSTR
[DUEL] Epoch ended. INSTR misses = 0, DATA misses = 0. Winner = INSTR
[DUEL] Epoch ended. INSTR misses = 0, DATA misses = 0. Winner = INSTR
[DUEL] Epoch ended. INSTR misses = 0, DATA misses = 0. Winner = INSTR
[DUEL] Epoch ended. INSTR misses = 0, DATA misses = 0. Winner = INSTR
[DUEL] Epoch ended. INSTR misses = 0, DATA misses = 0. Winner = INSTR
Heartbeat CPU 0 instructions: 100000009 cycles: 17213697 heartbeat IPC: 5.746 cumulative IPC: 5.731 (Simulation time: 00 hr 03 min 31 sec)
[DUEL] Epoch ended. INSTR misses = 0, DATA misses = 0. Winner = INSTR
[DUEL] Epoch ended. INSTR misses = 0, DATA misses = 0. Winner = INSTR
[DUEL] Epoch ended. INSTR misses = 0, DATA misses = 0. Winner = INSTR
[DUEL] Epoch ended. INSTR misses = 0, DATA misses = 0. Winner = INSTR
[DUEL] Epoch ended. INSTR misses = 5, DATA misses = 1. Winner = DATA
[DUEL] Epoch ended. INSTR misses = 0, DATA misses = 0. Winner = INSTR
[DUEL] Epoch ended. INSTR misses = 0, DATA misses = 0. Winner = INSTR
[DUEL] Epoch ended. INSTR misses = 0, DATA misses = 0. Winner = INSTR
[DUEL] Epoch ended. INSTR misses = 0, DATA misses = 3. Winner = INSTR
[DUEL] Epoch ended. INSTR misses = 0, DATA misses = 0. Winner = INSTR
[DUEL] Epoch ended. INSTR misses = 0, DATA misses = 0. Winner = INSTR
[DUEL] Epoch ended. INSTR misses = 0, DATA misses = 0. Winner = INSTR
[DUEL] Epoch ended. INSTR misses = 6, DATA misses = 5. Winner = DATA
[DUEL] Epoch ended. INSTR misses = 0, DATA misses = 0. Winner = INSTR
[DUEL] Epoch ended. INSTR misses = 0, DATA misses = 0. Winner = INSTR
[DUEL] Epoch ended. INSTR misses = 0, DATA misses = 0. Winner = INSTR
[DUEL] Epoch ended. INSTR misses = 4, DATA misses = 0. Winner = DATA
[DUEL] Epoch ended. INSTR misses = 1, DATA misses = 1. Winner = INSTR
[DUEL] Epoch ended. INSTR misses = 0, DATA misses = 0. Winner = INSTR
Heartbeat CPU 0 instructions: 110000000 cycles: 18946849 heartbeat IPC: 5.77 cumulative IPC: 5.736 (Simulation time: 00 hr 03 min 53 sec)
[DUEL] Epoch ended. INSTR misses = 0, DATA misses = 0. Winner = INSTR
[DUEL] Epoch ended. INSTR misses = 0, DATA misses = 0. Winner = INSTR
[DUEL] Epoch ended. INSTR misses = 3, DATA misses = 8. Winner = INSTR
[DUEL] Epoch ended. INSTR misses = 0, DATA misses = 0. Winner = INSTR
[DUEL] Epoch ended. INSTR misses = 0, DATA misses = 0. Winner = INSTR
[DUEL] Epoch ended. INSTR misses = 0, DATA misses = 0. Winner = INSTR
[DUEL] Epoch ended. INSTR misses = 3, DATA misses = 11. Winner = INSTR
[DUEL] Epoch ended. INSTR misses = 0, DATA misses = 0. Winner = INSTR
[DUEL] Epoch ended. INSTR misses = 0, DATA misses = 0. Winner = INSTR
[DUEL] Epoch ended. INSTR misses = 0, DATA misses = 0. Winner = INSTR
[DUEL] Epoch ended. INSTR misses = 8, DATA misses = 6. Winner = DATA
[DUEL] Epoch ended. INSTR misses = 0, DATA misses = 0. Winner = INSTR
[DUEL] Epoch ended. INSTR misses = 0, DATA misses = 0. Winner = INSTR
[DUEL] Epoch ended. INSTR misses = 0, DATA misses = 0. Winner = INSTR
[DUEL] Epoch ended. INSTR misses = 0, DATA misses = 0. Winner = INSTR
[DUEL] Epoch ended. INSTR misses = 5, DATA misses = 6. Winner = INSTR
[DUEL] Epoch ended. INSTR misses = 0, DATA misses = 0. Winner = INSTR
[DUEL] Epoch ended. INSTR misses = 0, DATA misses = 0. Winner = INSTR
[DUEL] Epoch ended. INSTR misses = 0, DATA misses = 0. Winner = INSTR
[DUEL] Epoch ended. INSTR misses = 9, DATA misses = 7. Winner = DATA
Heartbeat CPU 0 instructions: 120000001 cycles: 20694754 heartbeat IPC: 5.721 cumulative IPC: 5.734 (Simulation time: 00 hr 04 min 16 sec)
*** Reached end of trace: (0, "../traces/public_traces/compute_fp/compute_fp_13.champsimtrace.xz")
[DUEL] Epoch ended. INSTR misses = 0, DATA misses = 0. Winner = INSTR
[DUEL] Epoch ended. INSTR misses = 0, DATA misses = 0. Winner = INSTR
[DUEL] Epoch ended. INSTR misses = 3, DATA misses = 1. Winner = DATA
[DUEL] Epoch ended. INSTR misses = 0, DATA misses = 0. Winner = INSTR
[DUEL] Epoch ended. INSTR misses = 0, DATA misses = 0. Winner = INSTR
[DUEL] Epoch ended. INSTR misses = 0, DATA misses = 0. Winner = INSTR
[DUEL] Epoch ended. INSTR misses = 4, DATA misses = 3. Winner = DATA
[DUEL] Epoch ended. INSTR misses = 0, DATA misses = 0. Winner = INSTR
[DUEL] Epoch ended. INSTR misses = 0, DATA misses = 0. Winner = INSTR
[DUEL] Epoch ended. INSTR misses = 0, DATA misses = 0. Winner = INSTR
[DUEL] Epoch ended. INSTR misses = 0, DATA misses = 0. Winner = INSTR
[DUEL] Epoch ended. INSTR misses = 0, DATA misses = 0. Winner = INSTR
[DUEL] Epoch ended. INSTR misses = 0, DATA misses = 0. Winner = INSTR
[DUEL] Epoch ended. INSTR misses = 0, DATA misses = 0. Winner = INSTR
[DUEL] Epoch ended. INSTR misses = 0, DATA misses = 0. Winner = INSTR
[DUEL] Epoch ended. INSTR misses = 0, DATA misses = 0. Winner = INSTR
[DUEL] Epoch ended. INSTR misses = 0, DATA misses = 0. Winner = INSTR
[DUEL] Epoch ended. INSTR misses = 0, DATA misses = 0. Winner = INSTR
[DUEL] Epoch ended. INSTR misses = 0, DATA misses = 0. Winner = INSTR
Heartbeat CPU 0 instructions: 130000005 cycles: 22430450 heartbeat IPC: 5.761 cumulative IPC: 5.737 (Simulation time: 00 hr 04 min 38 sec)
Simulation finished CPU 0 instructions: 100000001 cycles: 17430342 cumulative IPC: 5.737 (Simulation time: 00 hr 04 min 38 sec)
Simulation complete CPU 0 instructions: 100000001 cycles: 17430342 cumulative IPC: 5.737 (Simulation time: 00 hr 04 min 38 sec)

ChampSim completed all CPUs

=== Simulation ===
CPU 0 runs ../traces/public_traces/compute_fp/compute_fp_13.champsimtrace.xz
Region of Interest Statistics

CPU 0 cumulative IPC: 5.737 instructions: 100000001 cycles: 17430342
CPU 0 Branch Prediction Accuracy: 99.46% MPKI: 0.1205 Average ROB Occupancy at Mispredict: 148
Branch type MPKI
BRANCH_DIRECT_JUMP: 0
BRANCH_INDIRECT: 0.12
BRANCH_CONDITIONAL: 2e-05
BRANCH_DIRECT_CALL: 0
BRANCH_INDIRECT_CALL: 0
BRANCH_RETURN: 0

LLC TOTAL        ACCESS:     236126 HIT:     188896 MISS:      47230
LLC LOAD         ACCESS:      68457 HIT:      53977 MISS:      14480
LLC RFO          ACCESS:         72 HIT:         62 MISS:         10
LLC PREFETCH     ACCESS:     118054 HIT:      89531 MISS:      28523
LLC WRITE        ACCESS:      49543 HIT:      45326 MISS:       4217
LLC TRANSLATION  ACCESS:          0 HIT:          0 MISS:          0
LLC PREFETCH REQUESTED:          0 ISSUED:          0 USEFUL:          0 USELESS:          0
LLC AVERAGE MISS LATENCY: 95.54 cycles
cpu0_DTLB TOTAL        ACCESS:   11639692 HIT:   11593401 MISS:      46291
cpu0_DTLB LOAD         ACCESS:   11639692 HIT:   11593401 MISS:      46291
cpu0_DTLB RFO          ACCESS:          0 HIT:          0 MISS:          0
cpu0_DTLB PREFETCH     ACCESS:          0 HIT:          0 MISS:          0
cpu0_DTLB WRITE        ACCESS:          0 HIT:          0 MISS:          0
cpu0_DTLB TRANSLATION  ACCESS:          0 HIT:          0 MISS:          0
cpu0_DTLB PREFETCH REQUESTED:          0 ISSUED:          0 USEFUL:          0 USELESS:          0
cpu0_DTLB AVERAGE MISS LATENCY: 5.141 cycles
cpu0_ITLB TOTAL        ACCESS:       5982 HIT:       5982 MISS:          0
cpu0_ITLB LOAD         ACCESS:       5982 HIT:       5982 MISS:          0
cpu0_ITLB RFO          ACCESS:          0 HIT:          0 MISS:          0
cpu0_ITLB PREFETCH     ACCESS:          0 HIT:          0 MISS:          0
cpu0_ITLB WRITE        ACCESS:          0 HIT:          0 MISS:          0
cpu0_ITLB TRANSLATION  ACCESS:          0 HIT:          0 MISS:          0
cpu0_ITLB PREFETCH REQUESTED:          0 ISSUED:          0 USEFUL:          0 USELESS:          0
cpu0_ITLB AVERAGE MISS LATENCY: -nan cycles
cpu0_L1D TOTAL        ACCESS:   17531179 HIT:   16870844 MISS:     660335
cpu0_L1D LOAD         ACCESS:   10102344 HIT:    9723372 MISS:     378972
cpu0_L1D RFO          ACCESS:          0 HIT:          0 MISS:          0
cpu0_L1D PREFETCH     ACCESS:     465765 HIT:     187040 MISS:     278725
cpu0_L1D WRITE        ACCESS:    6963070 HIT:    6960432 MISS:       2638
cpu0_L1D TRANSLATION  ACCESS:          0 HIT:          0 MISS:          0
cpu0_L1D PREFETCH REQUESTED:     465867 ISSUED:     465765 USEFUL:       6554 USELESS:          0
cpu0_L1D AVERAGE MISS LATENCY: 5.719 cycles
cpu0_L1I TOTAL        ACCESS:       8947 HIT:       8591 MISS:        356
cpu0_L1I LOAD         ACCESS:       4802 HIT:       4573 MISS:        229
cpu0_L1I RFO          ACCESS:          0 HIT:          0 MISS:          0
cpu0_L1I PREFETCH     ACCESS:       4145 HIT:       4018 MISS:        127
cpu0_L1I WRITE        ACCESS:          0 HIT:          0 MISS:          0
cpu0_L1I TRANSLATION  ACCESS:          0 HIT:          0 MISS:          0
cpu0_L1I PREFETCH REQUESTED:       7293 ISSUED:       4145 USEFUL:         68 USELESS:          0
cpu0_L1I AVERAGE MISS LATENCY: 28.15 cycles
cpu0_L2C TOTAL        ACCESS:     960163 HIT:     721486 MISS:     238677
cpu0_L2C LOAD         ACCESS:     180420 HIT:     110312 MISS:      70108
cpu0_L2C RFO          ACCESS:        514 HIT:        442 MISS:         72
cpu0_L2C PREFETCH     ACCESS:     729050 HIT:     560553 MISS:     168497
cpu0_L2C WRITE        ACCESS:      50179 HIT:      50179 MISS:          0
cpu0_L2C TRANSLATION  ACCESS:          0 HIT:          0 MISS:          0
cpu0_L2C PREFETCH REQUESTED:     459205 ISSUED:     450265 USEFUL:     109194 USELESS:        409
cpu0_L2C AVERAGE MISS LATENCY: 34.46 cycles
cpu0_STLB TOTAL        ACCESS:      32647 HIT:      32647 MISS:          0
cpu0_STLB LOAD         ACCESS:      32647 HIT:      32647 MISS:          0
cpu0_STLB RFO          ACCESS:          0 HIT:          0 MISS:          0
cpu0_STLB PREFETCH     ACCESS:          0 HIT:          0 MISS:          0
cpu0_STLB WRITE        ACCESS:          0 HIT:          0 MISS:          0
cpu0_STLB TRANSLATION  ACCESS:          0 HIT:          0 MISS:          0
cpu0_STLB PREFETCH REQUESTED:          0 ISSUED:          0 USEFUL:          0 USELESS:          0
cpu0_STLB AVERAGE MISS LATENCY: -nan cycles

DRAM Statistics

Channel 0 RQ ROW_BUFFER_HIT:      16488
  ROW_BUFFER_MISS:       5088
 AVG DBUS CONGESTED CYCLE: 3.587
WQ ROW_BUFFER_HIT: Channel 0 
  ROW_BUFFER_MISS:        313
  FULL:       2173

Channel 1 RQ ROW_BUFFER_HIT:      16341
  ROW_BUFFER_MISS:       5096
 AVG DBUS CONGESTED CYCLE: 3.603
WQ ROW_BUFFER_HIT: Channel 1 
  ROW_BUFFER_MISS:        266
  FULL:       2202
BERTI TO_L1: 195618 TO_L2: 287067 TO_L2_BC_MSHR: 0
BERTI AVG_LAT: 21.1661 NUM_TRACK_LATENCY: 242816 NUM_CANT_TRACK_LATENCY: 0
BERTI CROSS_PAGE 29383 NO_CROSS_PAGE: 453302
BERTI FOUND_BERTI: 4923223 NO_FOUND_BERTI: 8525675
BERTI AVERAGE_ISSUED: 5.05996
CPU 0 L1I Entangling prefetcher final stats
IP accesses: 4119 104640 78 / 4802
IP misses: 5274 149d00 16 / 229
IP hits: 0 0 0 / 0
IP late: 140 5000 7 / 129
IP wrong: 0 0 0 / 0
miss rate: 0.0476885
coverage: 0
coverage_late: 0.563319
accuracy: 0
accuracy_late: 1
discarded: 0
evicts entangled j table: 0
evicts entangled k table: 5
max bb size: 12
formats: 10 0 14 2 2 3 0 
hist_lookups: 0 4 3 11 14 2 8 4 3 6 9 3 1 3 1 0 0 181 
hist_lookups_evict: 0 %
hist_lookups_shortlat: 71.5416 %
bb_found_hist: 0 900 446 165 42 49 14 0 0 7 0 7 10 0 0 0 0 0 0 0 0 0 0 0 0 0 0 0 0 0 0 0 0 0 0 0 0 0 0 0 0 0 0 0 0 0 0 0 0 0 0 0 0 0 0 0 0 0 0 0 0 0 0 0 
bb_found_summary: 3044 1640 1.8561
entangled_found_hist: 0 463 243 257 21 0 0 0 
entangled_found_summary: 1804 984 1.83334
bb_ent_found_hist: 0 556 358 223 7 14 38 0 0 7 0 29 0 0 0 0 0 0 0 0 0 0 0 0 0 0 0 0 0 0 0 0 0 0 0 0 0 0 0 0 0 0 0 0 0 0 0 0 0 0 0 0 0 0 0 0 0 0 0 0 0 0 0 0 
bb_ent_found_summary: 2649 1232 2.15017
