WARNING: physical memory size is smaller than virtual memory size.

*** ChampSim Multicore Out-of-Order Simulator ***
Warmup Instructions: 30000000
Simulation Instructions: 100000000
Number of CPUs: 1
Page size: 4096

BTB:
Basic BTB sets: 1024 ways: 8
Indirect:
history lengths: 0 0 10 16 27 44 60 96 109 219 449 487 714 1313 2146 3881 
ITTAGE tables: 64768 bytes;Region table: 240 bytes;IUM: 384 bytes;Total Storage= 65392 bytes;
RAS:
RAS size: 64
[LLC] INSTR Demand IPV: 1 2 2 1 4 Prefetch IPV: 1 2 1 1 4
[LLC] DATA  Demand IPV: 1 1 1 2 4 Prefetch IPV: 1 1 2 2 4
Berti Prefetcher
CPU 0 Entangling prefetcher
Off-chip DRAM Size: 8 GiB Channels: 2 Width: 64-bit Data Race: 6400 MT/s
[DUEL] Epoch ended. INSTR misses = 11, DATA misses = 0. Winner = DATA
[DUEL] Epoch ended. INSTR misses = 0, DATA misses = 0. Winner = INSTR
[DUEL] Epoch ended. INSTR misses = 0, DATA misses = 0. Winner = INSTR
[DUEL] Epoch ended. INSTR misses = 0, DATA misses = 0. Winner = INSTR
[DUEL] Epoch ended. INSTR misses = 0, DATA misses = 0. Winner = INSTR
[DUEL] Epoch ended. INSTR misses = 0, DATA misses = 0. Winner = INSTR
[DUEL] Epoch ended. INSTR misses = 1, DATA misses = 0. Winner = DATA
[DUEL] Epoch ended. INSTR misses = 0, DATA misses = 0. Winner = INSTR
[DUEL] Epoch ended. INSTR misses = 0, DATA misses = 0. Winner = INSTR
[DUEL] Epoch ended. INSTR misses = 0, DATA misses = 0. Winner = INSTR
[DUEL] Epoch ended. INSTR misses = 0, DATA misses = 0. Winner = INSTR
[DUEL] Epoch ended. INSTR misses = 1, DATA misses = 0. Winner = DATA
[DUEL] Epoch ended. INSTR misses = 0, DATA misses = 0. Winner = INSTR
[DUEL] Epoch ended. INSTR misses = 0, DATA misses = 0. Winner = INSTR
[DUEL] Epoch ended. INSTR misses = 1, DATA misses = 0. Winner = DATA
[DUEL] Epoch ended. INSTR misses = 0, DATA misses = 0. Winner = INSTR
[DUEL] Epoch ended. INSTR misses = 1, DATA misses = 0. Winner = DATA
[DUEL] Epoch ended. INSTR misses = 0, DATA misses = 0. Winner = INSTR
[DUEL] Epoch ended. INSTR misses = 1, DATA misses = 0. Winner = DATA
Heartbeat CPU 0 instructions: 10000004 cycles: 1666823 heartbeat IPC: 5.999 cumulative IPC: 5.999 (Simulation time: 00 hr 00 min 22 sec)
[DUEL] Epoch ended. INSTR misses = 0, DATA misses = 0. Winner = INSTR
[DUEL] Epoch ended. INSTR misses = 0, DATA misses = 0. Winner = INSTR
[DUEL] Epoch ended. INSTR misses = 0, DATA misses = 0. Winner = INSTR
[DUEL] Epoch ended. INSTR misses = 1, DATA misses = 0. Winner = DATA
[DUEL] Epoch ended. INSTR misses = 0, DATA misses = 0. Winner = INSTR
[DUEL] Epoch ended. INSTR misses = 0, DATA misses = 0. Winner = INSTR
[DUEL] Epoch ended. INSTR misses = 0, DATA misses = 0. Winner = INSTR
[DUEL] Epoch ended. INSTR misses = 0, DATA misses = 0. Winner = INSTR
[DUEL] Epoch ended. INSTR misses = 1, DATA misses = 0. Winner = DATA
[DUEL] Epoch ended. INSTR misses = 0, DATA misses = 1. Winner = INSTR
[DUEL] Epoch ended. INSTR misses = 0, DATA misses = 0. Winner = INSTR
[DUEL] Epoch ended. INSTR misses = 0, DATA misses = 0. Winner = INSTR
[DUEL] Epoch ended. INSTR misses = 0, DATA misses = 0. Winner = INSTR
[DUEL] Epoch ended. INSTR misses = 0, DATA misses = 0. Winner = INSTR
[DUEL] Epoch ended. INSTR misses = 0, DATA misses = 0. Winner = INSTR
[DUEL] Epoch ended. INSTR misses = 0, DATA misses = 0. Winner = INSTR
[DUEL] Epoch ended. INSTR misses = 0, DATA misses = 0. Winner = INSTR
[DUEL] Epoch ended. INSTR misses = 0, DATA misses = 0. Winner = INSTR
Heartbeat CPU 0 instructions: 20000002 cycles: 3333490 heartbeat IPC: 6 cumulative IPC: 6 (Simulation time: 00 hr 00 min 45 sec)
[DUEL] Epoch ended. INSTR misses = 0, DATA misses = 1. Winner = INSTR
[DUEL] Epoch ended. INSTR misses = 0, DATA misses = 0. Winner = INSTR
[DUEL] Epoch ended. INSTR misses = 0, DATA misses = 0. Winner = INSTR
[DUEL] Epoch ended. INSTR misses = 0, DATA misses = 0. Winner = INSTR
[DUEL] Epoch ended. INSTR misses = 0, DATA misses = 1. Winner = INSTR
[DUEL] Epoch ended. INSTR misses = 0, DATA misses = 0. Winner = INSTR
[DUEL] Epoch ended. INSTR misses = 0, DATA misses = 0. Winner = INSTR
[DUEL] Epoch ended. INSTR misses = 0, DATA misses = 0. Winner = INSTR
[DUEL] Epoch ended. INSTR misses = 0, DATA misses = 0. Winner = INSTR
[DUEL] Epoch ended. INSTR misses = 0, DATA misses = 1. Winner = INSTR
[DUEL] Epoch ended. INSTR misses = 0, DATA misses = 0. Winner = INSTR
[DUEL] Epoch ended. INSTR misses = 0, DATA misses = 0. Winner = INSTR
[DUEL] Epoch ended. INSTR misses = 0, DATA misses = 0. Winner = INSTR
[DUEL] Epoch ended. INSTR misses = 0, DATA misses = 0. Winner = INSTR
[DUEL] Epoch ended. INSTR misses = 0, DATA misses = 1. Winner = INSTR
[DUEL] Epoch ended. INSTR misses = 0, DATA misses = 0. Winner = INSTR
[DUEL] Epoch ended. INSTR misses = 0, DATA misses = 0. Winner = INSTR
[DUEL] Epoch ended. INSTR misses = 0, DATA misses = 0. Winner = INSTR
[DUEL] Epoch ended. INSTR misses = 0, DATA misses = 0. Winner = INSTR
Heartbeat CPU 0 instructions: 30000004 cycles: 5000157 heartbeat IPC: 6 cumulative IPC: 6 (Simulation time: 00 hr 01 min 07 sec)
Warmup finished CPU 0 instructions: 30000004 cycles: 5000158 cumulative IPC: 6 (Simulation time: 00 hr 01 min 07 sec)
Warmup complete CPU 0 instructions: 30000004 cycles: 5000158 cumulative IPC: 6 (Simulation time: 00 hr 01 min 07 sec)
*** Reached end of trace: (0, "../traces/public_traces/compute_fp/compute_fp_9.champsimtrace.xz")
[DUEL] Epoch ended. INSTR misses = 0, DATA misses = 1. Winner = INSTR
[DUEL] Epoch ended. INSTR misses = 0, DATA misses = 0. Winner = INSTR
[DUEL] Epoch ended. INSTR misses = 0, DATA misses = 0. Winner = INSTR
[DUEL] Epoch ended. INSTR misses = 0, DATA misses = 0. Winner = INSTR
[DUEL] Epoch ended. INSTR misses = 1, DATA misses = 0. Winner = DATA
Heartbeat CPU 0 instructions: 40000009 cycles: 6667551 heartbeat IPC: 5.997 cumulative IPC: 5.997 (Simulation time: 00 hr 01 min 32 sec)
[DUEL] Epoch ended. INSTR misses = 0, DATA misses = 0. Winner = INSTR
Heartbeat CPU 0 instructions: 50000000 cycles: 8334258 heartbeat IPC: 6 cumulative IPC: 5.999 (Simulation time: 00 hr 01 min 57 sec)
[DUEL] Epoch ended. INSTR misses = 0, DATA misses = 0. Winner = INSTR
[DUEL] Epoch ended. INSTR misses = 0, DATA misses = 0. Winner = INSTR
[DUEL] Epoch ended. INSTR misses = 0, DATA misses = 0. Winner = INSTR
Heartbeat CPU 0 instructions: 60000007 cycles: 10000926 heartbeat IPC: 6 cumulative IPC: 5.999 (Simulation time: 00 hr 02 min 22 sec)
*** Reached end of trace: (0, "../traces/public_traces/compute_fp/compute_fp_9.champsimtrace.xz")
[DUEL] Epoch ended. INSTR misses = 0, DATA misses = 0. Winner = INSTR
[DUEL] Epoch ended. INSTR misses = 0, DATA misses = 0. Winner = INSTR
[DUEL] Epoch ended. INSTR misses = 0, DATA misses = 0. Winner = INSTR
[DUEL] Epoch ended. INSTR misses = 0, DATA misses = 0. Winner = INSTR
Heartbeat CPU 0 instructions: 70000011 cycles: 11667980 heartbeat IPC: 5.999 cumulative IPC: 5.999 (Simulation time: 00 hr 02 min 47 sec)
Heartbeat CPU 0 instructions: 80000003 cycles: 13334771 heartbeat IPC: 6 cumulative IPC: 5.999 (Simulation time: 00 hr 03 min 12 sec)
[DUEL] Epoch ended. INSTR misses = 0, DATA misses = 0. Winner = INSTR
[DUEL] Epoch ended. INSTR misses = 0, DATA misses = 0. Winner = INSTR
[DUEL] Epoch ended. INSTR misses = 0, DATA misses = 0. Winner = INSTR
[DUEL] Epoch ended. INSTR misses = 0, DATA misses = 0. Winner = INSTR
[DUEL] Epoch ended. INSTR misses = 0, DATA misses = 0. Winner = INSTR
[DUEL] Epoch ended. INSTR misses = 0, DATA misses = 0. Winner = INSTR
[DUEL] Epoch ended. INSTR misses = 0, DATA misses = 0. Winner = INSTR
[DUEL] Epoch ended. INSTR misses = 0, DATA misses = 0. Winner = INSTR
[DUEL] Epoch ended. INSTR misses = 0, DATA misses = 0. Winner = INSTR
[DUEL] Epoch ended. INSTR misses = 0, DATA misses = 0. Winner = INSTR
[DUEL] Epoch ended. INSTR misses = 0, DATA misses = 0. Winner = INSTR
[DUEL] Epoch ended. INSTR misses = 0, DATA misses = 1. Winner = INSTR
Heartbeat CPU 0 instructions: 90000000 cycles: 15001438 heartbeat IPC: 6 cumulative IPC: 5.999 (Simulation time: 00 hr 03 min 37 sec)
*** Reached end of trace: (0, "../traces/public_traces/compute_fp/compute_fp_9.champsimtrace.xz")
[DUEL] Epoch ended. INSTR misses = 0, DATA misses = 0. Winner = INSTR
[DUEL] Epoch ended. INSTR misses = 0, DATA misses = 0. Winner = INSTR
[DUEL] Epoch ended. INSTR misses = 0, DATA misses = 0. Winner = INSTR
Heartbeat CPU 0 instructions: 100000001 cycles: 16668493 heartbeat IPC: 5.999 cumulative IPC: 5.999 (Simulation time: 00 hr 04 min 02 sec)
[DUEL] Epoch ended. INSTR misses = 0, DATA misses = 0. Winner = INSTR
Heartbeat CPU 0 instructions: 110000005 cycles: 18335325 heartbeat IPC: 5.999 cumulative IPC: 5.999 (Simulation time: 00 hr 04 min 26 sec)
[DUEL] Epoch ended. INSTR misses = 0, DATA misses = 0. Winner = INSTR
[DUEL] Epoch ended. INSTR misses = 0, DATA misses = 0. Winner = INSTR
[DUEL] Epoch ended. INSTR misses = 0, DATA misses = 0. Winner = INSTR
[DUEL] Epoch ended. INSTR misses = 0, DATA misses = 0. Winner = INSTR
[DUEL] Epoch ended. INSTR misses = 0, DATA misses = 0. Winner = INSTR
Heartbeat CPU 0 instructions: 120000003 cycles: 20001993 heartbeat IPC: 6 cumulative IPC: 5.999 (Simulation time: 00 hr 04 min 51 sec)
*** Reached end of trace: (0, "../traces/public_traces/compute_fp/compute_fp_9.champsimtrace.xz")
[DUEL] Epoch ended. INSTR misses = 0, DATA misses = 0. Winner = INSTR
[DUEL] Epoch ended. INSTR misses = 0, DATA misses = 0. Winner = INSTR
[DUEL] Epoch ended. INSTR misses = 0, DATA misses = 0. Winner = INSTR
Heartbeat CPU 0 instructions: 130000000 cycles: 21669029 heartbeat IPC: 5.999 cumulative IPC: 5.999 (Simulation time: 00 hr 05 min 16 sec)
Simulation finished CPU 0 instructions: 100000011 cycles: 16668876 cumulative IPC: 5.999 (Simulation time: 00 hr 05 min 16 sec)
Simulation complete CPU 0 instructions: 100000011 cycles: 16668876 cumulative IPC: 5.999 (Simulation time: 00 hr 05 min 16 sec)

ChampSim completed all CPUs

=== Simulation ===
CPU 0 runs ../traces/public_traces/compute_fp/compute_fp_9.champsimtrace.xz
Region of Interest Statistics

CPU 0 cumulative IPC: 5.999 instructions: 100000011 cycles: 16668876
CPU 0 Branch Prediction Accuracy: 100% MPKI: 0.00079 Average ROB Occupancy at Mispredict: 52.43
Branch type MPKI
BRANCH_DIRECT_JUMP: 0
BRANCH_INDIRECT: 3e-05
BRANCH_CONDITIONAL: 0.00072
BRANCH_DIRECT_CALL: 0
BRANCH_INDIRECT_CALL: 0
BRANCH_RETURN: 4e-05

LLC TOTAL        ACCESS:        296 HIT:          0 MISS:        296
LLC LOAD         ACCESS:          0 HIT:          0 MISS:          0
LLC RFO          ACCESS:          0 HIT:          0 MISS:          0
LLC PREFETCH     ACCESS:        296 HIT:          0 MISS:        296
LLC WRITE        ACCESS:          0 HIT:          0 MISS:          0
LLC TRANSLATION  ACCESS:          0 HIT:          0 MISS:          0
LLC PREFETCH REQUESTED:          0 ISSUED:          0 USEFUL:          0 USELESS:          0
LLC AVERAGE MISS LATENCY: 239.9 cycles
cpu0_DTLB TOTAL        ACCESS:   16661369 HIT:   16583555 MISS:      77814
cpu0_DTLB LOAD         ACCESS:   16661369 HIT:   16583555 MISS:      77814
cpu0_DTLB RFO          ACCESS:          0 HIT:          0 MISS:          0
cpu0_DTLB PREFETCH     ACCESS:          0 HIT:          0 MISS:          0
cpu0_DTLB WRITE        ACCESS:          0 HIT:          0 MISS:          0
cpu0_DTLB TRANSLATION  ACCESS:          0 HIT:          0 MISS:          0
cpu0_DTLB PREFETCH REQUESTED:          0 ISSUED:          0 USEFUL:          0 USELESS:          0
cpu0_DTLB AVERAGE MISS LATENCY: 4.251 cycles
cpu0_ITLB TOTAL        ACCESS:       3927 HIT:       3927 MISS:          0
cpu0_ITLB LOAD         ACCESS:       3927 HIT:       3927 MISS:          0
cpu0_ITLB RFO          ACCESS:          0 HIT:          0 MISS:          0
cpu0_ITLB PREFETCH     ACCESS:          0 HIT:          0 MISS:          0
cpu0_ITLB WRITE        ACCESS:          0 HIT:          0 MISS:          0
cpu0_ITLB TRANSLATION  ACCESS:          0 HIT:          0 MISS:          0
cpu0_ITLB PREFETCH REQUESTED:          0 ISSUED:          0 USEFUL:          0 USELESS:          0
cpu0_ITLB AVERAGE MISS LATENCY: -nan cycles
cpu0_L1D TOTAL        ACCESS:   39354394 HIT:   37463592 MISS:    1890802
cpu0_L1D LOAD         ACCESS:   15109381 HIT:   15079844 MISS:      29537
cpu0_L1D RFO          ACCESS:          0 HIT:          0 MISS:          0
cpu0_L1D PREFETCH     ACCESS:   24207246 HIT:   22359136 MISS:    1848110
cpu0_L1D WRITE        ACCESS:      37765 HIT:      24612 MISS:      13153
cpu0_L1D TRANSLATION  ACCESS:          2 HIT:          0 MISS:          2
cpu0_L1D PREFETCH REQUESTED:  118130222 ISSUED:   24207248 USEFUL:     975729 USELESS:     139756
cpu0_L1D AVERAGE MISS LATENCY: 5.99 cycles
cpu0_L1I TOTAL        ACCESS:       5820 HIT:       5598 MISS:        222
cpu0_L1I LOAD         ACCESS:       3281 HIT:       3115 MISS:        166
cpu0_L1I RFO          ACCESS:          0 HIT:          0 MISS:          0
cpu0_L1I PREFETCH     ACCESS:       2539 HIT:       2483 MISS:         56
cpu0_L1I WRITE        ACCESS:          0 HIT:          0 MISS:          0
cpu0_L1I TRANSLATION  ACCESS:          0 HIT:          0 MISS:          0
cpu0_L1I PREFETCH REQUESTED:       5869 ISSUED:       2539 USEFUL:         47 USELESS:          0
cpu0_L1I AVERAGE MISS LATENCY: 6.387 cycles
cpu0_L2C TOTAL        ACCESS:    3671264 HIT:    3670954 MISS:        310
cpu0_L2C LOAD         ACCESS:       7787 HIT:       7787 MISS:          0
cpu0_L2C RFO          ACCESS:       4215 HIT:       4215 MISS:          0
cpu0_L2C PREFETCH     ACCESS:    3654146 HIT:    3653836 MISS:        310
cpu0_L2C WRITE        ACCESS:       5114 HIT:       5114 MISS:          0
cpu0_L2C TRANSLATION  ACCESS:          2 HIT:          2 MISS:          0
cpu0_L2C PREFETCH REQUESTED:    1836083 ISSUED:    1825851 USEFUL:        166 USELESS:          0
cpu0_L2C AVERAGE MISS LATENCY: 249.1 cycles
cpu0_STLB TOTAL        ACCESS:      54248 HIT:      54246 MISS:          2
cpu0_STLB LOAD         ACCESS:      54248 HIT:      54246 MISS:          2
cpu0_STLB RFO          ACCESS:          0 HIT:          0 MISS:          0
cpu0_STLB PREFETCH     ACCESS:          0 HIT:          0 MISS:          0
cpu0_STLB WRITE        ACCESS:          0 HIT:          0 MISS:          0
cpu0_STLB TRANSLATION  ACCESS:          0 HIT:          0 MISS:          0
cpu0_STLB PREFETCH REQUESTED:          0 ISSUED:          0 USEFUL:          0 USELESS:          0
cpu0_STLB AVERAGE MISS LATENCY: 142 cycles

DRAM Statistics

Channel 0 RQ ROW_BUFFER_HIT:         19
  ROW_BUFFER_MISS:        118
 AVG DBUS CONGESTED CYCLE: 3.882
WQ ROW_BUFFER_HIT: Channel 0 
  ROW_BUFFER_MISS:          0
  FULL:          0

Channel 1 RQ ROW_BUFFER_HIT:         39
  ROW_BUFFER_MISS:        120
 AVG DBUS CONGESTED CYCLE: 3.837
WQ ROW_BUFFER_HIT: Channel 1 
  ROW_BUFFER_MISS:          0
  FULL:          0
BERTI TO_L1: 116422843 TO_L2: 36531111 TO_L2_BC_MSHR: 8203
BERTI AVG_LAT: 34.0635 NUM_TRACK_LATENCY: 1458397 NUM_CANT_TRACK_LATENCY: 0
BERTI CROSS_PAGE 60853125 NO_CROSS_PAGE: 92100829
BERTI FOUND_BERTI: 19499169 NO_FOUND_BERTI: 215363
BERTI AVERAGE_ISSUED: 2.79997
CPU 0 L1I Entangling prefetcher final stats
IP accesses: 21d1 87440 69 / 3281
IP misses: 3f12 fc480 19 / 166
IP hits: 0 0 0 / 0
IP late: 21dc 87700 4 / 62
IP wrong: 0 0 0 / 0
miss rate: 0.0505944
coverage: 0
coverage_late: 0.373494
accuracy: 0
accuracy_late: 1
discarded: 0
evicts entangled j table: 0
evicts entangled k table: 2
max bb size: 9
formats: 3 0 21 2 2 3 0 
hist_lookups: 3 3 9 19 9 4 8 6 5 2 0 0 0 0 0 0 0 60 
hist_lookups_evict: 0 %
hist_lookups_shortlat: 46.875 %
bb_found_hist: 0 680 245 132 37 24 8 54 0 4 0 0 0 0 0 0 0 0 0 0 0 0 0 0 0 0 0 0 0 0 0 0 0 0 0 0 0 0 0 0 0 0 0 0 0 0 0 0 0 0 0 0 0 0 0 0 0 0 0 0 0 0 0 0 
bb_found_summary: 2296 1184 1.93919
entangled_found_hist: 0 230 167 256 54 4 0 0 
entangled_found_summary: 1568 711 2.20535
bb_ent_found_hist: 0 506 167 210 69 19 42 8 0 4 0 0 0 0 0 0 0 0 0 0 0 0 0 0 0 0 0 0 0 0 0 0 0 0 0 0 0 0 0 0 0 0 0 0 0 0 0 0 0 0 0 0 0 0 0 0 0 0 0 0 0 0 0 0 
bb_ent_found_summary: 2185 1025 2.13171
