WARNING: physical memory size is smaller than virtual memory size.

*** ChampSim Multicore Out-of-Order Simulator ***
Warmup Instructions: 30000000
Simulation Instructions: 100000000
Number of CPUs: 1
Page size: 4096

BTB:
Basic BTB sets: 1024 ways: 8
Indirect:
history lengths: 0 0 10 16 27 44 60 96 109 219 449 487 714 1313 2146 3881 
ITTAGE tables: 64768 bytes;Region table: 240 bytes;IUM: 384 bytes;Total Storage= 65392 bytes;
RAS:
RAS size: 64
[LLC] INSTR Demand IPV: 1 2 2 1 4 Prefetch IPV: 1 2 1 1 4
[LLC] DATA  Demand IPV: 1 1 1 2 4 Prefetch IPV: 1 1 2 2 4
Berti Prefetcher
CPU 0 Entangling prefetcher
Off-chip DRAM Size: 8 GiB Channels: 2 Width: 64-bit Data Race: 6400 MT/s
[DUEL] Epoch ended. INSTR misses = 65, DATA misses = 64. Winner = DATA
[DUEL] Epoch ended. INSTR misses = 58, DATA misses = 48. Winner = DATA
[DUEL] Epoch ended. INSTR misses = 44, DATA misses = 55. Winner = INSTR
[DUEL] Epoch ended. INSTR misses = 66, DATA misses = 62. Winner = DATA
[DUEL] Epoch ended. INSTR misses = 105, DATA misses = 111. Winner = INSTR
[DUEL] Epoch ended. INSTR misses = 76, DATA misses = 78. Winner = INSTR
[DUEL] Epoch ended. INSTR misses = 107, DATA misses = 105. Winner = DATA
[DUEL] Epoch ended. INSTR misses = 101, DATA misses = 102. Winner = INSTR
[DUEL] Epoch ended. INSTR misses = 108, DATA misses = 107. Winner = DATA
[DUEL] Epoch ended. INSTR misses = 98, DATA misses = 94. Winner = DATA
[DUEL] Epoch ended. INSTR misses = 114, DATA misses = 113. Winner = DATA
[DUEL] Epoch ended. INSTR misses = 109, DATA misses = 108. Winner = DATA
[DUEL] Epoch ended. INSTR misses = 109, DATA misses = 113. Winner = INSTR
[DUEL] Epoch ended. INSTR misses = 92, DATA misses = 91. Winner = DATA
[DUEL] Epoch ended. INSTR misses = 85, DATA misses = 87. Winner = INSTR
[DUEL] Epoch ended. INSTR misses = 77, DATA misses = 76. Winner = DATA
[DUEL] Epoch ended. INSTR misses = 111, DATA misses = 115. Winner = INSTR
[DUEL] Epoch ended. INSTR misses = 96, DATA misses = 95. Winner = DATA
[DUEL] Epoch ended. INSTR misses = 73, DATA misses = 72. Winner = DATA
Heartbeat CPU 0 instructions: 10000004 cycles: 1676159 heartbeat IPC: 5.966 cumulative IPC: 5.966 (Simulation time: 00 hr 00 min 22 sec)
[DUEL] Epoch ended. INSTR misses = 128, DATA misses = 127. Winner = DATA
[DUEL] Epoch ended. INSTR misses = 102, DATA misses = 103. Winner = INSTR
[DUEL] Epoch ended. INSTR misses = 103, DATA misses = 102. Winner = DATA
[DUEL] Epoch ended. INSTR misses = 86, DATA misses = 80. Winner = DATA
[DUEL] Epoch ended. INSTR misses = 83, DATA misses = 90. Winner = INSTR
[DUEL] Epoch ended. INSTR misses = 108, DATA misses = 106. Winner = DATA
[DUEL] Epoch ended. INSTR misses = 99, DATA misses = 99. Winner = INSTR
[DUEL] Epoch ended. INSTR misses = 96, DATA misses = 96. Winner = INSTR
[DUEL] Epoch ended. INSTR misses = 61, DATA misses = 60. Winner = DATA
[DUEL] Epoch ended. INSTR misses = 64, DATA misses = 67. Winner = INSTR
[DUEL] Epoch ended. INSTR misses = 69, DATA misses = 66. Winner = DATA
[DUEL] Epoch ended. INSTR misses = 61, DATA misses = 57. Winner = DATA
[DUEL] Epoch ended. INSTR misses = 74, DATA misses = 76. Winner = INSTR
[DUEL] Epoch ended. INSTR misses = 70, DATA misses = 76. Winner = INSTR
[DUEL] Epoch ended. INSTR misses = 122, DATA misses = 120. Winner = DATA
[DUEL] Epoch ended. INSTR misses = 98, DATA misses = 93. Winner = DATA
[DUEL] Epoch ended. INSTR misses = 107, DATA misses = 105. Winner = DATA
[DUEL] Epoch ended. INSTR misses = 112, DATA misses = 111. Winner = DATA
[DUEL] Epoch ended. INSTR misses = 89, DATA misses = 87. Winner = DATA
[DUEL] Epoch ended. INSTR misses = 76, DATA misses = 77. Winner = INSTR
Heartbeat CPU 0 instructions: 20000002 cycles: 3342825 heartbeat IPC: 6 cumulative IPC: 5.983 (Simulation time: 00 hr 00 min 44 sec)
[DUEL] Epoch ended. INSTR misses = 101, DATA misses = 98. Winner = DATA
[DUEL] Epoch ended. INSTR misses = 97, DATA misses = 101. Winner = INSTR
[DUEL] Epoch ended. INSTR misses = 87, DATA misses = 88. Winner = INSTR
[DUEL] Epoch ended. INSTR misses = 67, DATA misses = 70. Winner = INSTR
[DUEL] Epoch ended. INSTR misses = 106, DATA misses = 109. Winner = INSTR
[DUEL] Epoch ended. INSTR misses = 98, DATA misses = 98. Winner = INSTR
[DUEL] Epoch ended. INSTR misses = 49, DATA misses = 47. Winner = DATA
[DUEL] Epoch ended. INSTR misses = 110, DATA misses = 111. Winner = INSTR
[DUEL] Epoch ended. INSTR misses = 83, DATA misses = 83. Winner = INSTR
[DUEL] Epoch ended. INSTR misses = 89, DATA misses = 85. Winner = DATA
[DUEL] Epoch ended. INSTR misses = 118, DATA misses = 119. Winner = INSTR
[DUEL] Epoch ended. INSTR misses = 114, DATA misses = 111. Winner = DATA
[DUEL] Epoch ended. INSTR misses = 57, DATA misses = 62. Winner = INSTR
[DUEL] Epoch ended. INSTR misses = 56, DATA misses = 53. Winner = DATA
[DUEL] Epoch ended. INSTR misses = 88, DATA misses = 90. Winner = INSTR
[DUEL] Epoch ended. INSTR misses = 80, DATA misses = 80. Winner = INSTR
[DUEL] Epoch ended. INSTR misses = 109, DATA misses = 111. Winner = INSTR
[DUEL] Epoch ended. INSTR misses = 104, DATA misses = 103. Winner = DATA
[DUEL] Epoch ended. INSTR misses = 54, DATA misses = 41. Winner = DATA
Heartbeat CPU 0 instructions: 30000006 cycles: 5018564 heartbeat IPC: 5.968 cumulative IPC: 5.978 (Simulation time: 00 hr 01 min 06 sec)
Warmup finished CPU 0 instructions: 30000006 cycles: 5018565 cumulative IPC: 5.978 (Simulation time: 00 hr 01 min 06 sec)
Warmup complete CPU 0 instructions: 30000006 cycles: 5018565 cumulative IPC: 5.978 (Simulation time: 00 hr 01 min 06 sec)
*** Reached end of trace: (0, "../traces/public_traces/compute_fp/compute_fp_8.champsimtrace.xz")
[DUEL] Epoch ended. INSTR misses = 80, DATA misses = 81. Winner = INSTR
[DUEL] Epoch ended. INSTR misses = 15, DATA misses = 15. Winner = INSTR
[DUEL] Epoch ended. INSTR misses = 19, DATA misses = 18. Winner = DATA
[DUEL] Epoch ended. INSTR misses = 30, DATA misses = 37. Winner = INSTR
[DUEL] Epoch ended. INSTR misses = 69, DATA misses = 76. Winner = INSTR
[DUEL] Epoch ended. INSTR misses = 85, DATA misses = 83. Winner = DATA
[DUEL] Epoch ended. INSTR misses = 86, DATA misses = 89. Winner = INSTR
[DUEL] Epoch ended. INSTR misses = 116, DATA misses = 112. Winner = DATA
[DUEL] Epoch ended. INSTR misses = 101, DATA misses = 94. Winner = DATA
[DUEL] Epoch ended. INSTR misses = 101, DATA misses = 105. Winner = INSTR
[DUEL] Epoch ended. INSTR misses = 115, DATA misses = 111. Winner = DATA
[DUEL] Epoch ended. INSTR misses = 98, DATA misses = 96. Winner = DATA
[DUEL] Epoch ended. INSTR misses = 97, DATA misses = 97. Winner = INSTR
[DUEL] Epoch ended. INSTR misses = 133, DATA misses = 136. Winner = INSTR
[DUEL] Epoch ended. INSTR misses = 78, DATA misses = 79. Winner = INSTR
[DUEL] Epoch ended. INSTR misses = 68, DATA misses = 69. Winner = INSTR
[DUEL] Epoch ended. INSTR misses = 80, DATA misses = 83. Winner = INSTR
[DUEL] Epoch ended. INSTR misses = 116, DATA misses = 115. Winner = DATA
[DUEL] Epoch ended. INSTR misses = 81, DATA misses = 79. Winner = DATA
[DUEL] Epoch ended. INSTR misses = 141, DATA misses = 138. Winner = DATA
Heartbeat CPU 0 instructions: 40000009 cycles: 16623921 heartbeat IPC: 0.8617 cumulative IPC: 0.8617 (Simulation time: 00 hr 02 min 41 sec)
[DUEL] Epoch ended. INSTR misses = 78, DATA misses = 77. Winner = DATA
[DUEL] Epoch ended. INSTR misses = 94, DATA misses = 97. Winner = INSTR
[DUEL] Epoch ended. INSTR misses = 115, DATA misses = 112. Winner = DATA
[DUEL] Epoch ended. INSTR misses = 110, DATA misses = 107. Winner = DATA
[DUEL] Epoch ended. INSTR misses = 50, DATA misses = 52. Winner = INSTR
[DUEL] Epoch ended. INSTR misses = 110, DATA misses = 108. Winner = DATA
[DUEL] Epoch ended. INSTR misses = 88, DATA misses = 89. Winner = INSTR
[DUEL] Epoch ended. INSTR misses = 97, DATA misses = 99. Winner = INSTR
[DUEL] Epoch ended. INSTR misses = 52, DATA misses = 48. Winner = DATA
[DUEL] Epoch ended. INSTR misses = 75, DATA misses = 74. Winner = DATA
[DUEL] Epoch ended. INSTR misses = 48, DATA misses = 45. Winner = DATA
[DUEL] Epoch ended. INSTR misses = 58, DATA misses = 62. Winner = INSTR
[DUEL] Epoch ended. INSTR misses = 85, DATA misses = 90. Winner = INSTR
[DUEL] Epoch ended. INSTR misses = 89, DATA misses = 85. Winner = DATA
[DUEL] Epoch ended. INSTR misses = 123, DATA misses = 120. Winner = DATA
[DUEL] Epoch ended. INSTR misses = 107, DATA misses = 109. Winner = INSTR
[DUEL] Epoch ended. INSTR misses = 67, DATA misses = 65. Winner = DATA
[DUEL] Epoch ended. INSTR misses = 144, DATA misses = 140. Winner = DATA
[DUEL] Epoch ended. INSTR misses = 51, DATA misses = 49. Winner = DATA
Heartbeat CPU 0 instructions: 50000008 cycles: 28844554 heartbeat IPC: 0.8183 cumulative IPC: 0.8394 (Simulation time: 00 hr 04 min 20 sec)
[DUEL] Epoch ended. INSTR misses = 97, DATA misses = 99. Winner = INSTR
[DUEL] Epoch ended. INSTR misses = 115, DATA misses = 115. Winner = INSTR
[DUEL] Epoch ended. INSTR misses = 92, DATA misses = 95. Winner = INSTR
[DUEL] Epoch ended. INSTR misses = 66, DATA misses = 65. Winner = DATA
[DUEL] Epoch ended. INSTR misses = 77, DATA misses = 79. Winner = INSTR
[DUEL] Epoch ended. INSTR misses = 140, DATA misses = 142. Winner = INSTR
[DUEL] Epoch ended. INSTR misses = 40, DATA misses = 41. Winner = INSTR
[DUEL] Epoch ended. INSTR misses = 82, DATA misses = 83. Winner = INSTR
[DUEL] Epoch ended. INSTR misses = 109, DATA misses = 108. Winner = DATA
[DUEL] Epoch ended. INSTR misses = 86, DATA misses = 84. Winner = DATA
[DUEL] Epoch ended. INSTR misses = 101, DATA misses = 102. Winner = INSTR
[DUEL] Epoch ended. INSTR misses = 133, DATA misses = 132. Winner = DATA
[DUEL] Epoch ended. INSTR misses = 66, DATA misses = 67. Winner = INSTR
[DUEL] Epoch ended. INSTR misses = 64, DATA misses = 63. Winner = DATA
[DUEL] Epoch ended. INSTR misses = 63, DATA misses = 63. Winner = INSTR
[DUEL] Epoch ended. INSTR misses = 96, DATA misses = 96. Winner = INSTR
[DUEL] Epoch ended. INSTR misses = 63, DATA misses = 64. Winner = INSTR
[DUEL] Epoch ended. INSTR misses = 105, DATA misses = 104. Winner = DATA
[DUEL] Epoch ended. INSTR misses = 92, DATA misses = 92. Winner = INSTR
[DUEL] Epoch ended. INSTR misses = 88, DATA misses = 83. Winner = DATA
Heartbeat CPU 0 instructions: 60000003 cycles: 41381989 heartbeat IPC: 0.7976 cumulative IPC: 0.825 (Simulation time: 00 hr 06 min 01 sec)
*** Reached end of trace: (0, "../traces/public_traces/compute_fp/compute_fp_8.champsimtrace.xz")
[DUEL] Epoch ended. INSTR misses = 30, DATA misses = 30. Winner = INSTR
[DUEL] Epoch ended. INSTR misses = 9, DATA misses = 9. Winner = INSTR
[DUEL] Epoch ended. INSTR misses = 28, DATA misses = 33. Winner = INSTR
[DUEL] Epoch ended. INSTR misses = 59, DATA misses = 58. Winner = DATA
[DUEL] Epoch ended. INSTR misses = 72, DATA misses = 82. Winner = INSTR
[DUEL] Epoch ended. INSTR misses = 99, DATA misses = 99. Winner = INSTR
[DUEL] Epoch ended. INSTR misses = 75, DATA misses = 71. Winner = DATA
[DUEL] Epoch ended. INSTR misses = 120, DATA misses = 116. Winner = DATA
[DUEL] Epoch ended. INSTR misses = 89, DATA misses = 93. Winner = INSTR
[DUEL] Epoch ended. INSTR misses = 115, DATA misses = 110. Winner = DATA
[DUEL] Epoch ended. INSTR misses = 110, DATA misses = 104. Winner = DATA
[DUEL] Epoch ended. INSTR misses = 102, DATA misses = 104. Winner = INSTR
[DUEL] Epoch ended. INSTR misses = 130, DATA misses = 131. Winner = INSTR
[DUEL] Epoch ended. INSTR misses = 66, DATA misses = 66. Winner = INSTR
[DUEL] Epoch ended. INSTR misses = 99, DATA misses = 94. Winner = DATA
[DUEL] Epoch ended. INSTR misses = 51, DATA misses = 59. Winner = INSTR
[DUEL] Epoch ended. INSTR misses = 116, DATA misses = 117. Winner = INSTR
[DUEL] Epoch ended. INSTR misses = 104, DATA misses = 104. Winner = INSTR
[DUEL] Epoch ended. INSTR misses = 82, DATA misses = 81. Winner = DATA
Heartbeat CPU 0 instructions: 70000006 cycles: 52839340 heartbeat IPC: 0.8728 cumulative IPC: 0.8365 (Simulation time: 00 hr 07 min 35 sec)
[DUEL] Epoch ended. INSTR misses = 111, DATA misses = 111. Winner = INSTR
[DUEL] Epoch ended. INSTR misses = 107, DATA misses = 105. Winner = DATA
[DUEL] Epoch ended. INSTR misses = 97, DATA misses = 95. Winner = DATA
[DUEL] Epoch ended. INSTR misses = 98, DATA misses = 98. Winner = INSTR
[DUEL] Epoch ended. INSTR misses = 96, DATA misses = 95. Winner = DATA
[DUEL] Epoch ended. INSTR misses = 102, DATA misses = 100. Winner = DATA
[DUEL] Epoch ended. INSTR misses = 71, DATA misses = 72. Winner = INSTR
[DUEL] Epoch ended. INSTR misses = 97, DATA misses = 98. Winner = INSTR
[DUEL] Epoch ended. INSTR misses = 88, DATA misses = 90. Winner = INSTR
[DUEL] Epoch ended. INSTR misses = 55, DATA misses = 55. Winner = INSTR
[DUEL] Epoch ended. INSTR misses = 62, DATA misses = 54. Winner = DATA
[DUEL] Epoch ended. INSTR misses = 38, DATA misses = 37. Winner = DATA
[DUEL] Epoch ended. INSTR misses = 105, DATA misses = 110. Winner = INSTR
[DUEL] Epoch ended. INSTR misses = 59, DATA misses = 64. Winner = INSTR
[DUEL] Epoch ended. INSTR misses = 122, DATA misses = 118. Winner = DATA
[DUEL] Epoch ended. INSTR misses = 88, DATA misses = 87. Winner = DATA
[DUEL] Epoch ended. INSTR misses = 127, DATA misses = 124. Winner = DATA
[DUEL] Epoch ended. INSTR misses = 69, DATA misses = 70. Winner = INSTR
[DUEL] Epoch ended. INSTR misses = 119, DATA misses = 114. Winner = DATA
[DUEL] Epoch ended. INSTR misses = 62, DATA misses = 63. Winner = INSTR
Heartbeat CPU 0 instructions: 80000011 cycles: 64956296 heartbeat IPC: 0.8253 cumulative IPC: 0.8342 (Simulation time: 00 hr 09 min 13 sec)
[DUEL] Epoch ended. INSTR misses = 106, DATA misses = 103. Winner = DATA
[DUEL] Epoch ended. INSTR misses = 116, DATA misses = 120. Winner = INSTR
[DUEL] Epoch ended. INSTR misses = 59, DATA misses = 57. Winner = DATA
[DUEL] Epoch ended. INSTR misses = 73, DATA misses = 77. Winner = INSTR
[DUEL] Epoch ended. INSTR misses = 111, DATA misses = 115. Winner = INSTR
[DUEL] Epoch ended. INSTR misses = 95, DATA misses = 89. Winner = DATA
[DUEL] Epoch ended. INSTR misses = 65, DATA misses = 71. Winner = INSTR
[DUEL] Epoch ended. INSTR misses = 85, DATA misses = 86. Winner = INSTR
[DUEL] Epoch ended. INSTR misses = 104, DATA misses = 105. Winner = INSTR
[DUEL] Epoch ended. INSTR misses = 62, DATA misses = 58. Winner = DATA
[DUEL] Epoch ended. INSTR misses = 133, DATA misses = 133. Winner = INSTR
[DUEL] Epoch ended. INSTR misses = 122, DATA misses = 124. Winner = INSTR
[DUEL] Epoch ended. INSTR misses = 64, DATA misses = 63. Winner = DATA
[DUEL] Epoch ended. INSTR misses = 45, DATA misses = 44. Winner = DATA
[DUEL] Epoch ended. INSTR misses = 89, DATA misses = 88. Winner = DATA
[DUEL] Epoch ended. INSTR misses = 87, DATA misses = 90. Winner = INSTR
[DUEL] Epoch ended. INSTR misses = 91, DATA misses = 92. Winner = INSTR
[DUEL] Epoch ended. INSTR misses = 78, DATA misses = 78. Winner = INSTR
[DUEL] Epoch ended. INSTR misses = 90, DATA misses = 84. Winner = DATA
Heartbeat CPU 0 instructions: 90000000 cycles: 77506971 heartbeat IPC: 0.7968 cumulative IPC: 0.8277 (Simulation time: 00 hr 10 min 55 sec)
*** Reached end of trace: (0, "../traces/public_traces/compute_fp/compute_fp_8.champsimtrace.xz")
[DUEL] Epoch ended. INSTR misses = 78, DATA misses = 76. Winner = DATA
[DUEL] Epoch ended. INSTR misses = 18, DATA misses = 18. Winner = INSTR
[DUEL] Epoch ended. INSTR misses = 16, DATA misses = 16. Winner = INSTR
[DUEL] Epoch ended. INSTR misses = 33, DATA misses = 38. Winner = INSTR
[DUEL] Epoch ended. INSTR misses = 57, DATA misses = 65. Winner = INSTR
[DUEL] Epoch ended. INSTR misses = 97, DATA misses = 94. Winner = DATA
[DUEL] Epoch ended. INSTR misses = 73, DATA misses = 76. Winner = INSTR
[DUEL] Epoch ended. INSTR misses = 108, DATA misses = 103. Winner = DATA
[DUEL] Epoch ended. INSTR misses = 88, DATA misses = 91. Winner = INSTR
[DUEL] Epoch ended. INSTR misses = 122, DATA misses = 117. Winner = DATA
[DUEL] Epoch ended. INSTR misses = 107, DATA misses = 107. Winner = INSTR
[DUEL] Epoch ended. INSTR misses = 96, DATA misses = 91. Winner = DATA
[DUEL] Epoch ended. INSTR misses = 112, DATA misses = 112. Winner = INSTR
[DUEL] Epoch ended. INSTR misses = 107, DATA misses = 106. Winner = DATA
[DUEL] Epoch ended. INSTR misses = 89, DATA misses = 83. Winner = DATA
[DUEL] Epoch ended. INSTR misses = 75, DATA misses = 84. Winner = INSTR
[DUEL] Epoch ended. INSTR misses = 86, DATA misses = 88. Winner = INSTR
[DUEL] Epoch ended. INSTR misses = 106, DATA misses = 106. Winner = INSTR
[DUEL] Epoch ended. INSTR misses = 98, DATA misses = 98. Winner = INSTR
[DUEL] Epoch ended. INSTR misses = 110, DATA misses = 110. Winner = INSTR
Heartbeat CPU 0 instructions: 100000003 cycles: 88907761 heartbeat IPC: 0.8771 cumulative IPC: 0.8344 (Simulation time: 00 hr 12 min 28 sec)
[DUEL] Epoch ended. INSTR misses = 89, DATA misses = 88. Winner = DATA
[DUEL] Epoch ended. INSTR misses = 102, DATA misses = 101. Winner = DATA
[DUEL] Epoch ended. INSTR misses = 124, DATA misses = 121. Winner = DATA
[DUEL] Epoch ended. INSTR misses = 99, DATA misses = 100. Winner = INSTR
[DUEL] Epoch ended. INSTR misses = 38, DATA misses = 38. Winner = INSTR
[DUEL] Epoch ended. INSTR misses = 118, DATA misses = 117. Winner = DATA
[DUEL] Epoch ended. INSTR misses = 83, DATA misses = 82. Winner = DATA
[DUEL] Epoch ended. INSTR misses = 108, DATA misses = 112. Winner = INSTR
[DUEL] Epoch ended. INSTR misses = 58, DATA misses = 55. Winner = DATA
[DUEL] Epoch ended. INSTR misses = 69, DATA misses = 67. Winner = DATA
[DUEL] Epoch ended. INSTR misses = 56, DATA misses = 53. Winner = DATA
[DUEL] Epoch ended. INSTR misses = 59, DATA misses = 62. Winner = INSTR
[DUEL] Epoch ended. INSTR misses = 85, DATA misses = 79. Winner = DATA
[DUEL] Epoch ended. INSTR misses = 73, DATA misses = 81. Winner = INSTR
[DUEL] Epoch ended. INSTR misses = 106, DATA misses = 105. Winner = DATA
[DUEL] Epoch ended. INSTR misses = 119, DATA misses = 117. Winner = DATA
[DUEL] Epoch ended. INSTR misses = 73, DATA misses = 71. Winner = DATA
[DUEL] Epoch ended. INSTR misses = 144, DATA misses = 140. Winner = DATA
[DUEL] Epoch ended. INSTR misses = 60, DATA misses = 60. Winner = INSTR
Heartbeat CPU 0 instructions: 110000006 cycles: 101022556 heartbeat IPC: 0.8254 cumulative IPC: 0.8333 (Simulation time: 00 hr 14 min 06 sec)
[DUEL] Epoch ended. INSTR misses = 91, DATA misses = 91. Winner = INSTR
[DUEL] Epoch ended. INSTR misses = 108, DATA misses = 90. Winner = DATA
[DUEL] Epoch ended. INSTR misses = 100, DATA misses = 119. Winner = INSTR
[DUEL] Epoch ended. INSTR misses = 77, DATA misses = 79. Winner = INSTR
[DUEL] Epoch ended. INSTR misses = 77, DATA misses = 79. Winner = INSTR
[DUEL] Epoch ended. INSTR misses = 115, DATA misses = 111. Winner = DATA
[DUEL] Epoch ended. INSTR misses = 62, DATA misses = 69. Winner = INSTR
[DUEL] Epoch ended. INSTR misses = 57, DATA misses = 57. Winner = INSTR
[DUEL] Epoch ended. INSTR misses = 111, DATA misses = 111. Winner = INSTR
[DUEL] Epoch ended. INSTR misses = 75, DATA misses = 77. Winner = INSTR
[DUEL] Epoch ended. INSTR misses = 112, DATA misses = 110. Winner = DATA
[DUEL] Epoch ended. INSTR misses = 130, DATA misses = 119. Winner = DATA
[DUEL] Epoch ended. INSTR misses = 79, DATA misses = 88. Winner = INSTR
[DUEL] Epoch ended. INSTR misses = 54, DATA misses = 53. Winner = DATA
[DUEL] Epoch ended. INSTR misses = 79, DATA misses = 80. Winner = INSTR
[DUEL] Epoch ended. INSTR misses = 104, DATA misses = 105. Winner = INSTR
[DUEL] Epoch ended. INSTR misses = 63, DATA misses = 64. Winner = INSTR
[DUEL] Epoch ended. INSTR misses = 91, DATA misses = 92. Winner = INSTR
[DUEL] Epoch ended. INSTR misses = 96, DATA misses = 96. Winner = INSTR
[DUEL] Epoch ended. INSTR misses = 86, DATA misses = 81. Winner = DATA
Heartbeat CPU 0 instructions: 120000009 cycles: 113434475 heartbeat IPC: 0.8057 cumulative IPC: 0.8301 (Simulation time: 00 hr 15 min 46 sec)
*** Reached end of trace: (0, "../traces/public_traces/compute_fp/compute_fp_8.champsimtrace.xz")
[DUEL] Epoch ended. INSTR misses = 38, DATA misses = 35. Winner = DATA
[DUEL] Epoch ended. INSTR misses = 13, DATA misses = 12. Winner = DATA
[DUEL] Epoch ended. INSTR misses = 23, DATA misses = 26. Winner = INSTR
[DUEL] Epoch ended. INSTR misses = 42, DATA misses = 44. Winner = INSTR
[DUEL] Epoch ended. INSTR misses = 67, DATA misses = 75. Winner = INSTR
[DUEL] Epoch ended. INSTR misses = 95, DATA misses = 97. Winner = INSTR
[DUEL] Epoch ended. INSTR misses = 84, DATA misses = 80. Winner = DATA
[DUEL] Epoch ended. INSTR misses = 106, DATA misses = 103. Winner = DATA
[DUEL] Epoch ended. INSTR misses = 106, DATA misses = 107. Winner = INSTR
[DUEL] Epoch ended. INSTR misses = 115, DATA misses = 110. Winner = DATA
[DUEL] Epoch ended. INSTR misses = 115, DATA misses = 113. Winner = DATA
[DUEL] Epoch ended. INSTR misses = 110, DATA misses = 109. Winner = DATA
[DUEL] Epoch ended. INSTR misses = 124, DATA misses = 125. Winner = INSTR
[DUEL] Epoch ended. INSTR misses = 78, DATA misses = 75. Winner = DATA
[DUEL] Epoch ended. INSTR misses = 77, DATA misses = 82. Winner = INSTR
[DUEL] Epoch ended. INSTR misses = 62, DATA misses = 62. Winner = INSTR
[DUEL] Epoch ended. INSTR misses = 124, DATA misses = 126. Winner = INSTR
[DUEL] Epoch ended. INSTR misses = 95, DATA misses = 93. Winner = DATA
[DUEL] Epoch ended. INSTR misses = 75, DATA misses = 76. Winner = INSTR
Heartbeat CPU 0 instructions: 130000000 cycles: 124724982 heartbeat IPC: 0.8857 cumulative IPC: 0.8354 (Simulation time: 00 hr 17 min 19 sec)
Simulation finished CPU 0 instructions: 100000006 cycles: 119706419 cumulative IPC: 0.8354 (Simulation time: 00 hr 17 min 19 sec)
Simulation complete CPU 0 instructions: 100000006 cycles: 119706419 cumulative IPC: 0.8354 (Simulation time: 00 hr 17 min 19 sec)

ChampSim completed all CPUs

=== Simulation ===
CPU 0 runs ../traces/public_traces/compute_fp/compute_fp_8.champsimtrace.xz
Region of Interest Statistics

CPU 0 cumulative IPC: 0.8354 instructions: 100000006 cycles: 119706419
CPU 0 Branch Prediction Accuracy: 99.99% MPKI: 0.00043 Average ROB Occupancy at Mispredict: 351.1
Branch type MPKI
BRANCH_DIRECT_JUMP: 0
BRANCH_INDIRECT: 0.00041
BRANCH_CONDITIONAL: 2e-05
BRANCH_DIRECT_CALL: 0
BRANCH_INDIRECT_CALL: 0
BRANCH_RETURN: 0

LLC TOTAL        ACCESS:    4839088 HIT:     569874 MISS:    4269214
LLC LOAD         ACCESS:       5968 HIT:         24 MISS:       5944
LLC RFO          ACCESS:    2070417 HIT:     211656 MISS:    1858761
LLC PREFETCH     ACCESS:     688157 HIT:        375 MISS:     687782
LLC WRITE        ACCESS:    2073801 HIT:     357817 MISS:    1715984
LLC TRANSLATION  ACCESS:        745 HIT:          2 MISS:        743
LLC PREFETCH REQUESTED:          0 ISSUED:          0 USEFUL:          0 USELESS:          0
LLC AVERAGE MISS LATENCY: 575.4 cycles
cpu0_DTLB TOTAL        ACCESS:   10894057 HIT:   10827935 MISS:      66122
cpu0_DTLB LOAD         ACCESS:   10894057 HIT:   10827935 MISS:      66122
cpu0_DTLB RFO          ACCESS:          0 HIT:          0 MISS:          0
cpu0_DTLB PREFETCH     ACCESS:          0 HIT:          0 MISS:          0
cpu0_DTLB WRITE        ACCESS:          0 HIT:          0 MISS:          0
cpu0_DTLB TRANSLATION  ACCESS:          0 HIT:          0 MISS:          0
cpu0_DTLB PREFETCH REQUESTED:          0 ISSUED:          0 USEFUL:          0 USELESS:          0
cpu0_DTLB AVERAGE MISS LATENCY: 128.8 cycles
cpu0_ITLB TOTAL        ACCESS:       7154 HIT:       7154 MISS:          0
cpu0_ITLB LOAD         ACCESS:       7154 HIT:       7154 MISS:          0
cpu0_ITLB RFO          ACCESS:          0 HIT:          0 MISS:          0
cpu0_ITLB PREFETCH     ACCESS:          0 HIT:          0 MISS:          0
cpu0_ITLB WRITE        ACCESS:          0 HIT:          0 MISS:          0
cpu0_ITLB TRANSLATION  ACCESS:          0 HIT:          0 MISS:          0
cpu0_ITLB PREFETCH REQUESTED:          0 ISSUED:          0 USEFUL:          0 USELESS:          0
cpu0_ITLB AVERAGE MISS LATENCY: -nan cycles
cpu0_L1D TOTAL        ACCESS:   17624436 HIT:    9239466 MISS:    8384970
cpu0_L1D LOAD         ACCESS:    2979568 HIT:    2258464 MISS:     721104
cpu0_L1D RFO          ACCESS:          0 HIT:          0 MISS:          0
cpu0_L1D PREFETCH     ACCESS:    4139322 HIT:     688368 MISS:    3450954
cpu0_L1D WRITE        ACCESS:   10462518 HIT:    6291181 MISS:    4171337
cpu0_L1D TRANSLATION  ACCESS:      43028 HIT:       1453 MISS:      41575
cpu0_L1D PREFETCH REQUESTED:  119480320 ISSUED:    4139353 USEFUL:       9598 USELESS:         23
cpu0_L1D AVERAGE MISS LATENCY: 198.2 cycles
cpu0_L1I TOTAL        ACCESS:      10448 HIT:      10182 MISS:        266
cpu0_L1I LOAD         ACCESS:       5162 HIT:       5003 MISS:        159
cpu0_L1I RFO          ACCESS:          0 HIT:          0 MISS:          0
cpu0_L1I PREFETCH     ACCESS:       5286 HIT:       5179 MISS:        107
cpu0_L1I WRITE        ACCESS:          0 HIT:          0 MISS:          0
cpu0_L1I TRANSLATION  ACCESS:          0 HIT:          0 MISS:          0
cpu0_L1I PREFETCH REQUESTED:       6441 ISSUED:       5286 USEFUL:         72 USELESS:          0
cpu0_L1I AVERAGE MISS LATENCY: 331.2 cycles
cpu0_L2C TOTAL        ACCESS:   14515727 HIT:   10637887 MISS:    3877840
cpu0_L2C LOAD         ACCESS:     680639 HIT:     660551 MISS:      20088
cpu0_L2C RFO          ACCESS:    3877164 HIT:    1806740 MISS:    2070424
cpu0_L2C PREFETCH     ACCESS:    6038599 HIT:    4252026 MISS:    1786573
cpu0_L2C WRITE        ACCESS:    3877755 HIT:    3877745 MISS:         10
cpu0_L2C TRANSLATION  ACCESS:      41570 HIT:      40825 MISS:        745
cpu0_L2C PREFETCH REQUESTED:    3369554 ISSUED:    3359676 USEFUL:     298313 USELESS:       1452
cpu0_L2C AVERAGE MISS LATENCY: 643.9 cycles
cpu0_STLB TOTAL        ACCESS:      43889 HIT:        935 MISS:      42954
cpu0_STLB LOAD         ACCESS:      43889 HIT:        935 MISS:      42954
cpu0_STLB RFO          ACCESS:          0 HIT:          0 MISS:          0
cpu0_STLB PREFETCH     ACCESS:          0 HIT:          0 MISS:          0
cpu0_STLB WRITE        ACCESS:          0 HIT:          0 MISS:          0
cpu0_STLB TRANSLATION  ACCESS:          0 HIT:          0 MISS:          0
cpu0_STLB PREFETCH REQUESTED:          0 ISSUED:          0 USEFUL:          0 USELESS:          0
cpu0_STLB AVERAGE MISS LATENCY: 229.4 cycles

DRAM Statistics

Channel 0 RQ ROW_BUFFER_HIT:     314243
  ROW_BUFFER_MISS:     962764
 AVG DBUS CONGESTED CYCLE: 3.979
WQ ROW_BUFFER_HIT: Channel 0 
  ROW_BUFFER_MISS:      71495
  FULL:     861838

Channel 1 RQ ROW_BUFFER_HIT:     313179
  ROW_BUFFER_MISS:     962832
 AVG DBUS CONGESTED CYCLE: 3.979
WQ ROW_BUFFER_HIT: Channel 1 
  ROW_BUFFER_MISS:      72013
  FULL:     860451
BERTI TO_L1: 5261829 TO_L2: 121161378 TO_L2_BC_MSHR: 69733577
BERTI AVG_LAT: 43.2179 NUM_TRACK_LATENCY: 897937 NUM_CANT_TRACK_LATENCY: 205
BERTI CROSS_PAGE 38387372 NO_CROSS_PAGE: 88035835
BERTI FOUND_BERTI: 12455893 NO_FOUND_BERTI: 4937743
BERTI AVERAGE_ISSUED: 5.64977
CPU 0 L1I Entangling prefetcher final stats
IP accesses: 4119 104640 88 / 5162
IP misses: 4f00 13c000 18 / 159
IP hits: 0 0 0 / 0
IP late: 34 d00 7 / 75
IP wrong: 0 0 0 / 0
miss rate: 0.0308021
coverage: 0
coverage_late: 0.471699
accuracy: 0
accuracy_late: 1
discarded: 0
evicts entangled j table: 0
evicts entangled k table: 1
max bb size: 13
formats: 0 0 4 0 1 0 0 
hist_lookups: 5 1 0 0 2 2 0 1 0 1 0 0 0 0 0 0 0 125 
hist_lookups_evict: 0 %
hist_lookups_shortlat: 91.2409 %
bb_found_hist: 0 915 460 147 42 42 7 0 7 7 0 0 0 21 0 0 0 0 0 0 0 0 0 0 0 0 0 0 0 0 0 0 0 0 0 0 0 0 0 0 0 0 0 0 0 0 0 0 0 0 0 0 0 0 0 0 0 0 0 0 0 0 0 0 
bb_found_summary: 3088 1648 1.87379
entangled_found_hist: 0 310 178 258 14 0 0 0 
entangled_found_summary: 1496 760 1.96843
bb_ent_found_hist: 0 401 260 276 7 14 0 0 0 7 0 0 0 7 0 0 0 0 0 0 0 0 0 0 0 0 0 0 0 0 0 0 0 0 0 0 0 0 0 0 0 0 0 0 0 0 0 0 0 0 0 0 0 0 0 0 0 0 0 0 0 0 0 0 
bb_ent_found_summary: 2001 972 2.05865
