WARNING: physical memory size is smaller than virtual memory size.

*** ChampSim Multicore Out-of-Order Simulator ***
Warmup Instructions: 30000000
Simulation Instructions: 100000000
Number of CPUs: 1
Page size: 4096

BTB:
Basic BTB sets: 1024 ways: 8
Indirect:
history lengths: 0 0 10 16 27 44 60 96 109 219 449 487 714 1313 2146 3881 
ITTAGE tables: 64768 bytes;Region table: 240 bytes;IUM: 384 bytes;Total Storage= 65392 bytes;
RAS:
RAS size: 64
[LLC] INSTR Demand IPV: 1 2 2 1 4 Prefetch IPV: 1 2 1 1 4
[LLC] DATA  Demand IPV: 1 1 1 2 4 Prefetch IPV: 1 1 2 2 4
Berti Prefetcher
CPU 0 Entangling prefetcher
Off-chip DRAM Size: 8 GiB Channels: 2 Width: 64-bit Data Race: 6400 MT/s
[DUEL] Epoch ended. INSTR misses = 11, DATA misses = 6. Winner = DATA
[DUEL] Epoch ended. INSTR misses = 16, DATA misses = 16. Winner = INSTR
[DUEL] Epoch ended. INSTR misses = 16, DATA misses = 16. Winner = INSTR
[DUEL] Epoch ended. INSTR misses = 16, DATA misses = 16. Winner = INSTR
[DUEL] Epoch ended. INSTR misses = 16, DATA misses = 16. Winner = INSTR
[DUEL] Epoch ended. INSTR misses = 0, DATA misses = 0. Winner = INSTR
[DUEL] Epoch ended. INSTR misses = 16, DATA misses = 16. Winner = INSTR
[DUEL] Epoch ended. INSTR misses = 16, DATA misses = 16. Winner = INSTR
[DUEL] Epoch ended. INSTR misses = 16, DATA misses = 16. Winner = INSTR
[DUEL] Epoch ended. INSTR misses = 0, DATA misses = 0. Winner = INSTR
[DUEL] Epoch ended. INSTR misses = 16, DATA misses = 16. Winner = INSTR
[DUEL] Epoch ended. INSTR misses = 16, DATA misses = 16. Winner = INSTR
[DUEL] Epoch ended. INSTR misses = 16, DATA misses = 16. Winner = INSTR
[DUEL] Epoch ended. INSTR misses = 5, DATA misses = 0. Winner = DATA
[DUEL] Epoch ended. INSTR misses = 11, DATA misses = 16. Winner = INSTR
[DUEL] Epoch ended. INSTR misses = 16, DATA misses = 17. Winner = INSTR
[DUEL] Epoch ended. INSTR misses = 16, DATA misses = 16. Winner = INSTR
[DUEL] Epoch ended. INSTR misses = 2, DATA misses = 12. Winner = INSTR
[DUEL] Epoch ended. INSTR misses = 17, DATA misses = 11. Winner = DATA
Heartbeat CPU 0 instructions: 10000004 cycles: 1666743 heartbeat IPC: 6 cumulative IPC: 6 (Simulation time: 00 hr 00 min 22 sec)
[DUEL] Epoch ended. INSTR misses = 16, DATA misses = 16. Winner = INSTR
[DUEL] Epoch ended. INSTR misses = 16, DATA misses = 16. Winner = INSTR
[DUEL] Epoch ended. INSTR misses = 16, DATA misses = 16. Winner = INSTR
[DUEL] Epoch ended. INSTR misses = 0, DATA misses = 0. Winner = INSTR
[DUEL] Epoch ended. INSTR misses = 22, DATA misses = 18. Winner = DATA
[DUEL] Epoch ended. INSTR misses = 0, DATA misses = 0. Winner = INSTR
[DUEL] Epoch ended. INSTR misses = 16, DATA misses = 16. Winner = INSTR
[DUEL] Epoch ended. INSTR misses = 16, DATA misses = 16. Winner = INSTR
[DUEL] Epoch ended. INSTR misses = 23, DATA misses = 17. Winner = DATA
[DUEL] Epoch ended. INSTR misses = 28, DATA misses = 25. Winner = DATA
[DUEL] Epoch ended. INSTR misses = 4, DATA misses = 8. Winner = INSTR
[DUEL] Epoch ended. INSTR misses = 19, DATA misses = 16. Winner = DATA
[DUEL] Epoch ended. INSTR misses = 28, DATA misses = 24. Winner = DATA
[DUEL] Epoch ended. INSTR misses = 29, DATA misses = 28. Winner = DATA
[DUEL] Epoch ended. INSTR misses = 3, DATA misses = 0. Winner = DATA
[DUEL] Epoch ended. INSTR misses = 28, DATA misses = 28. Winner = INSTR
[DUEL] Epoch ended. INSTR misses = 28, DATA misses = 30. Winner = INSTR
[DUEL] Epoch ended. INSTR misses = 31, DATA misses = 31. Winner = INSTR
[DUEL] Epoch ended. INSTR misses = 3, DATA misses = 0. Winner = DATA
[DUEL] Epoch ended. INSTR misses = 32, DATA misses = 32. Winner = INSTR
Heartbeat CPU 0 instructions: 20000003 cycles: 3333634 heartbeat IPC: 5.999 cumulative IPC: 5.999 (Simulation time: 00 hr 00 min 45 sec)
[DUEL] Epoch ended. INSTR misses = 26, DATA misses = 32. Winner = INSTR
[DUEL] Epoch ended. INSTR misses = 16, DATA misses = 16. Winner = INSTR
[DUEL] Epoch ended. INSTR misses = 16, DATA misses = 16. Winner = INSTR
[DUEL] Epoch ended. INSTR misses = 0, DATA misses = 0. Winner = INSTR
[DUEL] Epoch ended. INSTR misses = 16, DATA misses = 16. Winner = INSTR
[DUEL] Epoch ended. INSTR misses = 16, DATA misses = 16. Winner = INSTR
[DUEL] Epoch ended. INSTR misses = 16, DATA misses = 16. Winner = INSTR
[DUEL] Epoch ended. INSTR misses = 0, DATA misses = 0. Winner = INSTR
[DUEL] Epoch ended. INSTR misses = 16, DATA misses = 16. Winner = INSTR
[DUEL] Epoch ended. INSTR misses = 16, DATA misses = 16. Winner = INSTR
[DUEL] Epoch ended. INSTR misses = 16, DATA misses = 16. Winner = INSTR
[DUEL] Epoch ended. INSTR misses = 27, DATA misses = 31. Winner = INSTR
[DUEL] Epoch ended. INSTR misses = 0, DATA misses = 0. Winner = INSTR
[DUEL] Epoch ended. INSTR misses = 16, DATA misses = 16. Winner = INSTR
[DUEL] Epoch ended. INSTR misses = 16, DATA misses = 16. Winner = INSTR
[DUEL] Epoch ended. INSTR misses = 16, DATA misses = 16. Winner = INSTR
[DUEL] Epoch ended. INSTR misses = 0, DATA misses = 0. Winner = INSTR
[DUEL] Epoch ended. INSTR misses = 16, DATA misses = 16. Winner = INSTR
[DUEL] Epoch ended. INSTR misses = 16, DATA misses = 16. Winner = INSTR
Heartbeat CPU 0 instructions: 30000002 cycles: 5000300 heartbeat IPC: 6 cumulative IPC: 6 (Simulation time: 00 hr 01 min 09 sec)
Warmup finished CPU 0 instructions: 30000002 cycles: 5000301 cumulative IPC: 6 (Simulation time: 00 hr 01 min 09 sec)
Warmup complete CPU 0 instructions: 30000002 cycles: 5000301 cumulative IPC: 6 (Simulation time: 00 hr 01 min 09 sec)
*** Reached end of trace: (0, "../traces/public_traces/compute_fp/compute_fp_11.champsimtrace.xz")
[DUEL] Epoch ended. INSTR misses = 0, DATA misses = 0. Winner = INSTR
[DUEL] Epoch ended. INSTR misses = 0, DATA misses = 0. Winner = INSTR
[DUEL] Epoch ended. INSTR misses = 0, DATA misses = 0. Winner = INSTR
[DUEL] Epoch ended. INSTR misses = 0, DATA misses = 0. Winner = INSTR
[DUEL] Epoch ended. INSTR misses = 16, DATA misses = 16. Winner = INSTR
[DUEL] Epoch ended. INSTR misses = 0, DATA misses = 0. Winner = INSTR
[DUEL] Epoch ended. INSTR misses = 0, DATA misses = 0. Winner = INSTR
[DUEL] Epoch ended. INSTR misses = 0, DATA misses = 0. Winner = INSTR
[DUEL] Epoch ended. INSTR misses = 0, DATA misses = 0. Winner = INSTR
[DUEL] Epoch ended. INSTR misses = 0, DATA misses = 1. Winner = INSTR
[DUEL] Epoch ended. INSTR misses = 16, DATA misses = 16. Winner = INSTR
[DUEL] Epoch ended. INSTR misses = 0, DATA misses = 0. Winner = INSTR
[DUEL] Epoch ended. INSTR misses = 3, DATA misses = 7. Winner = INSTR
[DUEL] Epoch ended. INSTR misses = 16, DATA misses = 16. Winner = INSTR
[DUEL] Epoch ended. INSTR misses = 16, DATA misses = 16. Winner = INSTR
[DUEL] Epoch ended. INSTR misses = 5, DATA misses = 0. Winner = DATA
[DUEL] Epoch ended. INSTR misses = 11, DATA misses = 17. Winner = INSTR
[DUEL] Epoch ended. INSTR misses = 16, DATA misses = 16. Winner = INSTR
[DUEL] Epoch ended. INSTR misses = 19, DATA misses = 22. Winner = INSTR
[DUEL] Epoch ended. INSTR misses = 16, DATA misses = 16. Winner = INSTR
Heartbeat CPU 0 instructions: 40000001 cycles: 6714910 heartbeat IPC: 5.832 cumulative IPC: 5.832 (Simulation time: 00 hr 01 min 35 sec)
[DUEL] Epoch ended. INSTR misses = 0, DATA misses = 0. Winner = INSTR
[DUEL] Epoch ended. INSTR misses = 16, DATA misses = 16. Winner = INSTR
[DUEL] Epoch ended. INSTR misses = 13, DATA misses = 9. Winner = DATA
[DUEL] Epoch ended. INSTR misses = 10, DATA misses = 9. Winner = DATA
[DUEL] Epoch ended. INSTR misses = 6, DATA misses = 2. Winner = DATA
[DUEL] Epoch ended. INSTR misses = 15, DATA misses = 8. Winner = DATA
[DUEL] Epoch ended. INSTR misses = 13, DATA misses = 12. Winner = DATA
[DUEL] Epoch ended. INSTR misses = 0, DATA misses = 0. Winner = INSTR
[DUEL] Epoch ended. INSTR misses = 24, DATA misses = 18. Winner = DATA
[DUEL] Epoch ended. INSTR misses = 18, DATA misses = 15. Winner = DATA
[DUEL] Epoch ended. INSTR misses = 17, DATA misses = 20. Winner = INSTR
[DUEL] Epoch ended. INSTR misses = 2, DATA misses = 0. Winner = DATA
[DUEL] Epoch ended. INSTR misses = 29, DATA misses = 24. Winner = DATA
[DUEL] Epoch ended. INSTR misses = 22, DATA misses = 27. Winner = INSTR
[DUEL] Epoch ended. INSTR misses = 28, DATA misses = 26. Winner = DATA
[DUEL] Epoch ended. INSTR misses = 1, DATA misses = 0. Winner = DATA
[DUEL] Epoch ended. INSTR misses = 29, DATA misses = 29. Winner = INSTR
[DUEL] Epoch ended. INSTR misses = 30, DATA misses = 30. Winner = INSTR
[DUEL] Epoch ended. INSTR misses = 28, DATA misses = 31. Winner = INSTR
Heartbeat CPU 0 instructions: 50000001 cycles: 8478629 heartbeat IPC: 5.67 cumulative IPC: 5.75 (Simulation time: 00 hr 02 min 01 sec)
[DUEL] Epoch ended. INSTR misses = 30, DATA misses = 32. Winner = INSTR
[DUEL] Epoch ended. INSTR misses = 0, DATA misses = 0. Winner = INSTR
[DUEL] Epoch ended. INSTR misses = 16, DATA misses = 16. Winner = INSTR
[DUEL] Epoch ended. INSTR misses = 16, DATA misses = 16. Winner = INSTR
[DUEL] Epoch ended. INSTR misses = 16, DATA misses = 16. Winner = INSTR
[DUEL] Epoch ended. INSTR misses = 0, DATA misses = 0. Winner = INSTR
[DUEL] Epoch ended. INSTR misses = 11, DATA misses = 15. Winner = INSTR
[DUEL] Epoch ended. INSTR misses = 16, DATA misses = 16. Winner = INSTR
[DUEL] Epoch ended. INSTR misses = 16, DATA misses = 16. Winner = INSTR
[DUEL] Epoch ended. INSTR misses = 16, DATA misses = 16. Winner = INSTR
[DUEL] Epoch ended. INSTR misses = 0, DATA misses = 0. Winner = INSTR
[DUEL] Epoch ended. INSTR misses = 17, DATA misses = 16. Winner = DATA
[DUEL] Epoch ended. INSTR misses = 25, DATA misses = 28. Winner = INSTR
[DUEL] Epoch ended. INSTR misses = 16, DATA misses = 16. Winner = INSTR
[DUEL] Epoch ended. INSTR misses = 0, DATA misses = 0. Winner = INSTR
[DUEL] Epoch ended. INSTR misses = 16, DATA misses = 16. Winner = INSTR
[DUEL] Epoch ended. INSTR misses = 16, DATA misses = 16. Winner = INSTR
[DUEL] Epoch ended. INSTR misses = 16, DATA misses = 16. Winner = INSTR
[DUEL] Epoch ended. INSTR misses = 0, DATA misses = 0. Winner = INSTR
[DUEL] Epoch ended. INSTR misses = 16, DATA misses = 16. Winner = INSTR
Heartbeat CPU 0 instructions: 60000000 cycles: 10175176 heartbeat IPC: 5.894 cumulative IPC: 5.797 (Simulation time: 00 hr 02 min 27 sec)
*** Reached end of trace: (0, "../traces/public_traces/compute_fp/compute_fp_11.champsimtrace.xz")
[DUEL] Epoch ended. INSTR misses = 0, DATA misses = 0. Winner = INSTR
[DUEL] Epoch ended. INSTR misses = 0, DATA misses = 0. Winner = INSTR
[DUEL] Epoch ended. INSTR misses = 0, DATA misses = 0. Winner = INSTR
[DUEL] Epoch ended. INSTR misses = 16, DATA misses = 16. Winner = INSTR
[DUEL] Epoch ended. INSTR misses = 0, DATA misses = 0. Winner = INSTR
[DUEL] Epoch ended. INSTR misses = 0, DATA misses = 0. Winner = INSTR
[DUEL] Epoch ended. INSTR misses = 0, DATA misses = 0. Winner = INSTR
[DUEL] Epoch ended. INSTR misses = 0, DATA misses = 0. Winner = INSTR
[DUEL] Epoch ended. INSTR misses = 0, DATA misses = 0. Winner = INSTR
[DUEL] Epoch ended. INSTR misses = 0, DATA misses = 1. Winner = INSTR
[DUEL] Epoch ended. INSTR misses = 16, DATA misses = 16. Winner = INSTR
[DUEL] Epoch ended. INSTR misses = 3, DATA misses = 6. Winner = INSTR
[DUEL] Epoch ended. INSTR misses = 16, DATA misses = 16. Winner = INSTR
[DUEL] Epoch ended. INSTR misses = 0, DATA misses = 0. Winner = INSTR
[DUEL] Epoch ended. INSTR misses = 16, DATA misses = 16. Winner = INSTR
[DUEL] Epoch ended. INSTR misses = 16, DATA misses = 17. Winner = INSTR
[DUEL] Epoch ended. INSTR misses = 16, DATA misses = 16. Winner = INSTR
[DUEL] Epoch ended. INSTR misses = 0, DATA misses = 0. Winner = INSTR
[DUEL] Epoch ended. INSTR misses = 19, DATA misses = 21. Winner = INSTR
Heartbeat CPU 0 instructions: 70000010 cycles: 11878975 heartbeat IPC: 5.869 cumulative IPC: 5.815 (Simulation time: 00 hr 02 min 53 sec)
[DUEL] Epoch ended. INSTR misses = 16, DATA misses = 16. Winner = INSTR
[DUEL] Epoch ended. INSTR misses = 16, DATA misses = 16. Winner = INSTR
[DUEL] Epoch ended. INSTR misses = 10, DATA misses = 6. Winner = DATA
[DUEL] Epoch ended. INSTR misses = 0, DATA misses = 0. Winner = INSTR
[DUEL] Epoch ended. INSTR misses = 10, DATA misses = 6. Winner = DATA
[DUEL] Epoch ended. INSTR misses = 3, DATA misses = 2. Winner = DATA
[DUEL] Epoch ended. INSTR misses = 14, DATA misses = 8. Winner = DATA
[DUEL] Epoch ended. INSTR misses = 10, DATA misses = 11. Winner = INSTR
[DUEL] Epoch ended. INSTR misses = 15, DATA misses = 11. Winner = DATA
[DUEL] Epoch ended. INSTR misses = 3, DATA misses = 2. Winner = DATA
[DUEL] Epoch ended. INSTR misses = 17, DATA misses = 18. Winner = INSTR
[DUEL] Epoch ended. INSTR misses = 13, DATA misses = 14. Winner = INSTR
[DUEL] Epoch ended. INSTR misses = 29, DATA misses = 22. Winner = DATA
[DUEL] Epoch ended. INSTR misses = 1, DATA misses = 0. Winner = DATA
[DUEL] Epoch ended. INSTR misses = 24, DATA misses = 27. Winner = INSTR
[DUEL] Epoch ended. INSTR misses = 26, DATA misses = 26. Winner = INSTR
[DUEL] Epoch ended. INSTR misses = 27, DATA misses = 29. Winner = INSTR
[DUEL] Epoch ended. INSTR misses = 29, DATA misses = 30. Winner = INSTR
[DUEL] Epoch ended. INSTR misses = 3, DATA misses = 0. Winner = DATA
[DUEL] Epoch ended. INSTR misses = 31, DATA misses = 31. Winner = INSTR
Heartbeat CPU 0 instructions: 80000000 cycles: 13580640 heartbeat IPC: 5.877 cumulative IPC: 5.827 (Simulation time: 00 hr 03 min 19 sec)
[DUEL] Epoch ended. INSTR misses = 27, DATA misses = 32. Winner = INSTR
[DUEL] Epoch ended. INSTR misses = 16, DATA misses = 16. Winner = INSTR
[DUEL] Epoch ended. INSTR misses = 0, DATA misses = 0. Winner = INSTR
[DUEL] Epoch ended. INSTR misses = 16, DATA misses = 16. Winner = INSTR
[DUEL] Epoch ended. INSTR misses = 16, DATA misses = 16. Winner = INSTR
[DUEL] Epoch ended. INSTR misses = 10, DATA misses = 12. Winner = INSTR
[DUEL] Epoch ended. INSTR misses = 16, DATA misses = 16. Winner = INSTR
[DUEL] Epoch ended. INSTR misses = 0, DATA misses = 0. Winner = INSTR
[DUEL] Epoch ended. INSTR misses = 16, DATA misses = 16. Winner = INSTR
[DUEL] Epoch ended. INSTR misses = 16, DATA misses = 16. Winner = INSTR
[DUEL] Epoch ended. INSTR misses = 16, DATA misses = 16. Winner = INSTR
[DUEL] Epoch ended. INSTR misses = 1, DATA misses = 0. Winner = DATA
[DUEL] Epoch ended. INSTR misses = 25, DATA misses = 28. Winner = INSTR
[DUEL] Epoch ended. INSTR misses = 16, DATA misses = 16. Winner = INSTR
[DUEL] Epoch ended. INSTR misses = 16, DATA misses = 16. Winner = INSTR
[DUEL] Epoch ended. INSTR misses = 0, DATA misses = 0. Winner = INSTR
[DUEL] Epoch ended. INSTR misses = 16, DATA misses = 16. Winner = INSTR
[DUEL] Epoch ended. INSTR misses = 16, DATA misses = 16. Winner = INSTR
[DUEL] Epoch ended. INSTR misses = 16, DATA misses = 16. Winner = INSTR
Heartbeat CPU 0 instructions: 90000002 cycles: 15268284 heartbeat IPC: 5.925 cumulative IPC: 5.843 (Simulation time: 00 hr 03 min 45 sec)
*** Reached end of trace: (0, "../traces/public_traces/compute_fp/compute_fp_11.champsimtrace.xz")
[DUEL] Epoch ended. INSTR misses = 0, DATA misses = 0. Winner = INSTR
[DUEL] Epoch ended. INSTR misses = 0, DATA misses = 0. Winner = INSTR
[DUEL] Epoch ended. INSTR misses = 0, DATA misses = 0. Winner = INSTR
[DUEL] Epoch ended. INSTR misses = 0, DATA misses = 0. Winner = INSTR
[DUEL] Epoch ended. INSTR misses = 16, DATA misses = 16. Winner = INSTR
[DUEL] Epoch ended. INSTR misses = 0, DATA misses = 0. Winner = INSTR
[DUEL] Epoch ended. INSTR misses = 0, DATA misses = 0. Winner = INSTR
[DUEL] Epoch ended. INSTR misses = 0, DATA misses = 0. Winner = INSTR
[DUEL] Epoch ended. INSTR misses = 0, DATA misses = 0. Winner = INSTR
[DUEL] Epoch ended. INSTR misses = 0, DATA misses = 1. Winner = INSTR
[DUEL] Epoch ended. INSTR misses = 16, DATA misses = 16. Winner = INSTR
[DUEL] Epoch ended. INSTR misses = 0, DATA misses = 0. Winner = INSTR
[DUEL] Epoch ended. INSTR misses = 3, DATA misses = 5. Winner = INSTR
[DUEL] Epoch ended. INSTR misses = 16, DATA misses = 16. Winner = INSTR
[DUEL] Epoch ended. INSTR misses = 16, DATA misses = 16. Winner = INSTR
[DUEL] Epoch ended. INSTR misses = 0, DATA misses = 0. Winner = INSTR
[DUEL] Epoch ended. INSTR misses = 16, DATA misses = 16. Winner = INSTR
[DUEL] Epoch ended. INSTR misses = 16, DATA misses = 16. Winner = INSTR
[DUEL] Epoch ended. INSTR misses = 19, DATA misses = 21. Winner = INSTR
[DUEL] Epoch ended. INSTR misses = 0, DATA misses = 0. Winner = INSTR
Heartbeat CPU 0 instructions: 100000009 cycles: 16960667 heartbeat IPC: 5.909 cumulative IPC: 5.853 (Simulation time: 00 hr 04 min 11 sec)
[DUEL] Epoch ended. INSTR misses = 16, DATA misses = 16. Winner = INSTR
[DUEL] Epoch ended. INSTR misses = 16, DATA misses = 16. Winner = INSTR
[DUEL] Epoch ended. INSTR misses = 6, DATA misses = 3. Winner = DATA
[DUEL] Epoch ended. INSTR misses = 5, DATA misses = 5. Winner = INSTR
[DUEL] Epoch ended. INSTR misses = 6, DATA misses = 2. Winner = DATA
[DUEL] Epoch ended. INSTR misses = 14, DATA misses = 7. Winner = DATA
[DUEL] Epoch ended. INSTR misses = 0, DATA misses = 0. Winner = INSTR
[DUEL] Epoch ended. INSTR misses = 9, DATA misses = 11. Winner = INSTR
[DUEL] Epoch ended. INSTR misses = 14, DATA misses = 10. Winner = DATA
[DUEL] Epoch ended. INSTR misses = 17, DATA misses = 16. Winner = DATA
[DUEL] Epoch ended. INSTR misses = 12, DATA misses = 3. Winner = DATA
[DUEL] Epoch ended. INSTR misses = 5, DATA misses = 14. Winner = INSTR
[DUEL] Epoch ended. INSTR misses = 26, DATA misses = 22. Winner = DATA
[DUEL] Epoch ended. INSTR misses = 22, DATA misses = 27. Winner = INSTR
[DUEL] Epoch ended. INSTR misses = 27, DATA misses = 26. Winner = DATA
[DUEL] Epoch ended. INSTR misses = 1, DATA misses = 0. Winner = DATA
[DUEL] Epoch ended. INSTR misses = 29, DATA misses = 28. Winner = DATA
[DUEL] Epoch ended. INSTR misses = 27, DATA misses = 30. Winner = INSTR
[DUEL] Epoch ended. INSTR misses = 31, DATA misses = 31. Winner = INSTR
Heartbeat CPU 0 instructions: 110000004 cycles: 18652423 heartbeat IPC: 5.911 cumulative IPC: 5.86 (Simulation time: 00 hr 04 min 36 sec)
[DUEL] Epoch ended. INSTR misses = 4, DATA misses = 0. Winner = DATA
[DUEL] Epoch ended. INSTR misses = 26, DATA misses = 32. Winner = INSTR
[DUEL] Epoch ended. INSTR misses = 16, DATA misses = 16. Winner = INSTR
[DUEL] Epoch ended. INSTR misses = 16, DATA misses = 16. Winner = INSTR
[DUEL] Epoch ended. INSTR misses = 16, DATA misses = 16. Winner = INSTR
[DUEL] Epoch ended. INSTR misses = 0, DATA misses = 0. Winner = INSTR
[DUEL] Epoch ended. INSTR misses = 10, DATA misses = 12. Winner = INSTR
[DUEL] Epoch ended. INSTR misses = 16, DATA misses = 16. Winner = INSTR
[DUEL] Epoch ended. INSTR misses = 16, DATA misses = 16. Winner = INSTR
[DUEL] Epoch ended. INSTR misses = 0, DATA misses = 0. Winner = INSTR
[DUEL] Epoch ended. INSTR misses = 16, DATA misses = 16. Winner = INSTR
[DUEL] Epoch ended. INSTR misses = 16, DATA misses = 16. Winner = INSTR
[DUEL] Epoch ended. INSTR misses = 25, DATA misses = 28. Winner = INSTR
[DUEL] Epoch ended. INSTR misses = 15, DATA misses = 0. Winner = DATA
[DUEL] Epoch ended. INSTR misses = 4, DATA misses = 16. Winner = INSTR
[DUEL] Epoch ended. INSTR misses = 13, DATA misses = 18. Winner = INSTR
[DUEL] Epoch ended. INSTR misses = 16, DATA misses = 14. Winner = DATA
[DUEL] Epoch ended. INSTR misses = 16, DATA misses = 16. Winner = INSTR
[DUEL] Epoch ended. INSTR misses = 0, DATA misses = 0. Winner = INSTR
[DUEL] Epoch ended. INSTR misses = 16, DATA misses = 16. Winner = INSTR
Heartbeat CPU 0 instructions: 120000003 cycles: 20356491 heartbeat IPC: 5.868 cumulative IPC: 5.861 (Simulation time: 00 hr 05 min 02 sec)
*** Reached end of trace: (0, "../traces/public_traces/compute_fp/compute_fp_11.champsimtrace.xz")
[DUEL] Epoch ended. INSTR misses = 0, DATA misses = 0. Winner = INSTR
[DUEL] Epoch ended. INSTR misses = 0, DATA misses = 0. Winner = INSTR
[DUEL] Epoch ended. INSTR misses = 0, DATA misses = 0. Winner = INSTR
[DUEL] Epoch ended. INSTR misses = 0, DATA misses = 0. Winner = INSTR
[DUEL] Epoch ended. INSTR misses = 16, DATA misses = 16. Winner = INSTR
[DUEL] Epoch ended. INSTR misses = 0, DATA misses = 0. Winner = INSTR
[DUEL] Epoch ended. INSTR misses = 0, DATA misses = 0. Winner = INSTR
[DUEL] Epoch ended. INSTR misses = 0, DATA misses = 0. Winner = INSTR
[DUEL] Epoch ended. INSTR misses = 0, DATA misses = 0. Winner = INSTR
[DUEL] Epoch ended. INSTR misses = 0, DATA misses = 0. Winner = INSTR
[DUEL] Epoch ended. INSTR misses = 16, DATA misses = 16. Winner = INSTR
[DUEL] Epoch ended. INSTR misses = 3, DATA misses = 5. Winner = INSTR
[DUEL] Epoch ended. INSTR misses = 0, DATA misses = 0. Winner = INSTR
[DUEL] Epoch ended. INSTR misses = 16, DATA misses = 16. Winner = INSTR
[DUEL] Epoch ended. INSTR misses = 16, DATA misses = 16. Winner = INSTR
[DUEL] Epoch ended. INSTR misses = 16, DATA misses = 16. Winner = INSTR
[DUEL] Epoch ended. INSTR misses = 0, DATA misses = 0. Winner = INSTR
[DUEL] Epoch ended. INSTR misses = 16, DATA misses = 16. Winner = INSTR
[DUEL] Epoch ended. INSTR misses = 19, DATA misses = 20. Winner = INSTR
Heartbeat CPU 0 instructions: 130000008 cycles: 22058934 heartbeat IPC: 5.874 cumulative IPC: 5.862 (Simulation time: 00 hr 05 min 28 sec)
Simulation finished CPU 0 instructions: 100000006 cycles: 17058634 cumulative IPC: 5.862 (Simulation time: 00 hr 05 min 28 sec)
Simulation complete CPU 0 instructions: 100000006 cycles: 17058634 cumulative IPC: 5.862 (Simulation time: 00 hr 05 min 28 sec)

ChampSim completed all CPUs

=== Simulation ===
CPU 0 runs ../traces/public_traces/compute_fp/compute_fp_11.champsimtrace.xz
Region of Interest Statistics

CPU 0 cumulative IPC: 5.862 instructions: 100000006 cycles: 17058634
CPU 0 Branch Prediction Accuracy: 99.93% MPKI: 0.00925 Average ROB Occupancy at Mispredict: 55.3
Branch type MPKI
BRANCH_DIRECT_JUMP: 0
BRANCH_INDIRECT: 0.00904
BRANCH_CONDITIONAL: 0.00021
BRANCH_DIRECT_CALL: 0
BRANCH_INDIRECT_CALL: 0
BRANCH_RETURN: 0

LLC TOTAL        ACCESS:     927057 HIT:     199583 MISS:     727474
LLC LOAD         ACCESS:        402 HIT:         85 MISS:        317
LLC RFO          ACCESS:     308040 HIT:      75998 MISS:     232042
LLC PREFETCH     ACCESS:     309992 HIT:      16065 MISS:     293927
LLC WRITE        ACCESS:     308268 HIT:     107414 MISS:     200854
LLC TRANSLATION  ACCESS:        355 HIT:         21 MISS:        334
LLC PREFETCH REQUESTED:          0 ISSUED:          0 USEFUL:          0 USELESS:          0
LLC AVERAGE MISS LATENCY: 151.7 cycles
cpu0_DTLB TOTAL        ACCESS:   16175198 HIT:   16149048 MISS:      26150
cpu0_DTLB LOAD         ACCESS:   16175198 HIT:   16149048 MISS:      26150
cpu0_DTLB RFO          ACCESS:          0 HIT:          0 MISS:          0
cpu0_DTLB PREFETCH     ACCESS:          0 HIT:          0 MISS:          0
cpu0_DTLB WRITE        ACCESS:          0 HIT:          0 MISS:          0
cpu0_DTLB TRANSLATION  ACCESS:          0 HIT:          0 MISS:          0
cpu0_DTLB PREFETCH REQUESTED:          0 ISSUED:          0 USEFUL:          0 USELESS:          0
cpu0_DTLB AVERAGE MISS LATENCY: 7.751 cycles
cpu0_ITLB TOTAL        ACCESS:       8999 HIT:       8999 MISS:          0
cpu0_ITLB LOAD         ACCESS:       8999 HIT:       8999 MISS:          0
cpu0_ITLB RFO          ACCESS:          0 HIT:          0 MISS:          0
cpu0_ITLB PREFETCH     ACCESS:          0 HIT:          0 MISS:          0
cpu0_ITLB WRITE        ACCESS:          0 HIT:          0 MISS:          0
cpu0_ITLB TRANSLATION  ACCESS:          0 HIT:          0 MISS:          0
cpu0_ITLB PREFETCH REQUESTED:          0 ISSUED:          0 USEFUL:          0 USELESS:          0
cpu0_ITLB AVERAGE MISS LATENCY: -nan cycles
cpu0_L1D TOTAL        ACCESS:   39528896 HIT:   29556206 MISS:    9972690
cpu0_L1D LOAD         ACCESS:    9015843 HIT:    8967484 MISS:      48359
cpu0_L1D RFO          ACCESS:          0 HIT:          0 MISS:          0
cpu0_L1D PREFETCH     ACCESS:   20622478 HIT:   19694214 MISS:     928264
cpu0_L1D WRITE        ACCESS:    9880776 HIT:     885125 MISS:    8995651
cpu0_L1D TRANSLATION  ACCESS:       9799 HIT:       9383 MISS:        416
cpu0_L1D PREFETCH REQUESTED:   71037976 ISSUED:   20622470 USEFUL:     615352 USELESS:         99
cpu0_L1D AVERAGE MISS LATENCY: 9.741 cycles
cpu0_L1I TOTAL        ACCESS:      12238 HIT:      11983 MISS:        255
cpu0_L1I LOAD         ACCESS:       4949 HIT:       4801 MISS:        148
cpu0_L1I RFO          ACCESS:          0 HIT:          0 MISS:          0
cpu0_L1I PREFETCH     ACCESS:       7289 HIT:       7182 MISS:        107
cpu0_L1I WRITE        ACCESS:          0 HIT:          0 MISS:          0
cpu0_L1I TRANSLATION  ACCESS:          0 HIT:          0 MISS:          0
cpu0_L1I PREFETCH REQUESTED:       7716 ISSUED:       7289 USEFUL:         76 USELESS:          0
cpu0_L1I AVERAGE MISS LATENCY: 187.2 cycles
cpu0_L2C TOTAL        ACCESS:    2471707 HIT:    1336945 MISS:    1134762
cpu0_L2C LOAD         ACCESS:      10103 HIT:       9573 MISS:        530
cpu0_L2C RFO          ACCESS:     311381 HIT:       3341 MISS:     308040
cpu0_L2C PREFETCH     ACCESS:    1835385 HIT:    1009548 MISS:     825837
cpu0_L2C WRITE        ACCESS:     314425 HIT:     314425 MISS:          0
cpu0_L2C TRANSLATION  ACCESS:        413 HIT:         58 MISS:        355
cpu0_L2C PREFETCH REQUESTED:     929948 ISSUED:     916011 USEFUL:     158170 USELESS:       1248
cpu0_L2C AVERAGE MISS LATENCY: 108.6 cycles
cpu0_STLB TOTAL        ACCESS:      10247 HIT:        448 MISS:       9799
cpu0_STLB LOAD         ACCESS:      10247 HIT:        448 MISS:       9799
cpu0_STLB RFO          ACCESS:          0 HIT:          0 MISS:          0
cpu0_STLB PREFETCH     ACCESS:          0 HIT:          0 MISS:          0
cpu0_STLB WRITE        ACCESS:          0 HIT:          0 MISS:          0
cpu0_STLB TRANSLATION  ACCESS:          0 HIT:          0 MISS:          0
cpu0_STLB PREFETCH REQUESTED:          0 ISSUED:          0 USEFUL:          0 USELESS:          0
cpu0_STLB AVERAGE MISS LATENCY: 21.46 cycles

DRAM Statistics

Channel 0 RQ ROW_BUFFER_HIT:     114914
  ROW_BUFFER_MISS:     148506
 AVG DBUS CONGESTED CYCLE: 3.931
WQ ROW_BUFFER_HIT: Channel 0 
  ROW_BUFFER_MISS:       9536
  FULL:     108055

Channel 1 RQ ROW_BUFFER_HIT:     114614
  ROW_BUFFER_MISS:     148583
 AVG DBUS CONGESTED CYCLE: 3.932
WQ ROW_BUFFER_HIT: Channel 1 
  ROW_BUFFER_MISS:       9312
  FULL:     108330
BERTI TO_L1: 88552428 TO_L2: 12083465 TO_L2_BC_MSHR: 6758467
BERTI AVG_LAT: 97.4763 NUM_TRACK_LATENCY: 812650 NUM_CANT_TRACK_LATENCY: 0
BERTI CROSS_PAGE 13199293 NO_CROSS_PAGE: 87436600
BERTI FOUND_BERTI: 9994655 NO_FOUND_BERTI: 2294567
BERTI AVERAGE_ISSUED: 6.01177
CPU 0 L1I Entangling prefetcher final stats
IP accesses: 8110 204400 612 / 4949
IP misses: 3f12 fc480 14 / 148
IP hits: 0 0 0 / 0
IP late: 162e 58b80 3 / 71
IP wrong: 0 0 0 / 0
miss rate: 0.0299051
coverage: 0
coverage_late: 0.47973
accuracy: 0
accuracy_late: 1
discarded: 0
evicts entangled j table: 0
evicts entangled k table: 1
max bb size: 9
formats: 1 0 5 2 0 1 0 
hist_lookups: 1 2 5 3 0 1 0 1 1 0 0 2 1 0 0 0 0 223 
hist_lookups_evict: 0 %
hist_lookups_shortlat: 92.9167 %
bb_found_hist: 0 735 185 88 312 26 3 18 0 2 0 0 0 0 0 0 0 0 0 0 0 0 0 0 0 0 0 0 0 0 0 0 0 0 0 0 0 0 0 0 0 0 0 0 0 0 0 0 0 0 0 0 0 0 0 0 0 0 0 0 0 0 0 0 
bb_found_summary: 2909 1369 2.12491
entangled_found_hist: 0 370 68 521 12 0 0 0 
entangled_found_summary: 2117 971 2.18023
bb_ent_found_hist: 0 807 112 518 3 20 6 3 0 2 0 0 0 0 0 0 0 0 0 0 0 0 0 0 0 0 0 0 0 0 0 0 0 0 0 0 0 0 0 0 0 0 0 0 0 0 0 0 0 0 0 0 0 0 0 0 0 0 0 0 0 0 0 0 
bb_ent_found_summary: 2772 1471 1.88444
