WARNING: physical memory size is smaller than virtual memory size.

*** ChampSim Multicore Out-of-Order Simulator ***
Warmup Instructions: 30000000
Simulation Instructions: 100000000
Number of CPUs: 1
Page size: 4096

BTB:
Basic BTB sets: 1024 ways: 8
Indirect:
history lengths: 0 0 10 16 27 44 60 96 109 219 449 487 714 1313 2146 3881 
ITTAGE tables: 64768 bytes;Region table: 240 bytes;IUM: 384 bytes;Total Storage= 65392 bytes;
RAS:
RAS size: 64
[LLC] INSTR Demand IPV: 1 2 2 1 4 Prefetch IPV: 1 2 1 1 4
[LLC] DATA  Demand IPV: 1 1 1 2 4 Prefetch IPV: 1 1 2 2 4
Berti Prefetcher
CPU 0 Entangling prefetcher
Off-chip DRAM Size: 8 GiB Channels: 2 Width: 64-bit Data Race: 6400 MT/s
[DUEL] Epoch ended. INSTR misses = 51, DATA misses = 78. Winner = INSTR
[DUEL] Epoch ended. INSTR misses = 35, DATA misses = 79. Winner = INSTR
[DUEL] Epoch ended. INSTR misses = 34, DATA misses = 107. Winner = INSTR
[DUEL] Epoch ended. INSTR misses = 49, DATA misses = 115. Winner = INSTR
[DUEL] Epoch ended. INSTR misses = 19, DATA misses = 97. Winner = INSTR
[DUEL] Epoch ended. INSTR misses = 79, DATA misses = 134. Winner = INSTR
[DUEL] Epoch ended. INSTR misses = 67, DATA misses = 112. Winner = INSTR
[DUEL] Epoch ended. INSTR misses = 83, DATA misses = 122. Winner = INSTR
[DUEL] Epoch ended. INSTR misses = 67, DATA misses = 117. Winner = INSTR
[DUEL] Epoch ended. INSTR misses = 50, DATA misses = 117. Winner = INSTR
[DUEL] Epoch ended. INSTR misses = 50, DATA misses = 110. Winner = INSTR
[DUEL] Epoch ended. INSTR misses = 34, DATA misses = 109. Winner = INSTR
[DUEL] Epoch ended. INSTR misses = 48, DATA misses = 113. Winner = INSTR
[DUEL] Epoch ended. INSTR misses = 48, DATA misses = 63. Winner = INSTR
[DUEL] Epoch ended. INSTR misses = 48, DATA misses = 54. Winner = INSTR
[DUEL] Epoch ended. INSTR misses = 59, DATA misses = 65. Winner = INSTR
[DUEL] Epoch ended. INSTR misses = 58, DATA misses = 70. Winner = INSTR
[DUEL] Epoch ended. INSTR misses = 54, DATA misses = 62. Winner = INSTR
[DUEL] Epoch ended. INSTR misses = 72, DATA misses = 81. Winner = INSTR
Heartbeat CPU 0 instructions: 10000000 cycles: 1666772 heartbeat IPC: 6 cumulative IPC: 6 (Simulation time: 00 hr 00 min 23 sec)
[DUEL] Epoch ended. INSTR misses = 62, DATA misses = 74. Winner = INSTR
[DUEL] Epoch ended. INSTR misses = 74, DATA misses = 75. Winner = INSTR
[DUEL] Epoch ended. INSTR misses = 75, DATA misses = 75. Winner = INSTR
[DUEL] Epoch ended. INSTR misses = 73, DATA misses = 72. Winner = DATA
[DUEL] Epoch ended. INSTR misses = 53, DATA misses = 142. Winner = INSTR
[DUEL] Epoch ended. INSTR misses = 74, DATA misses = 158. Winner = INSTR
[DUEL] Epoch ended. INSTR misses = 35, DATA misses = 123. Winner = INSTR
[DUEL] Epoch ended. INSTR misses = 34, DATA misses = 150. Winner = INSTR
[DUEL] Epoch ended. INSTR misses = 34, DATA misses = 135. Winner = INSTR
[DUEL] Epoch ended. INSTR misses = 33, DATA misses = 107. Winner = INSTR
[DUEL] Epoch ended. INSTR misses = 50, DATA misses = 151. Winner = INSTR
[DUEL] Epoch ended. INSTR misses = 97, DATA misses = 196. Winner = INSTR
[DUEL] Epoch ended. INSTR misses = 50, DATA misses = 125. Winner = INSTR
[DUEL] Epoch ended. INSTR misses = 26, DATA misses = 118. Winner = INSTR
[DUEL] Epoch ended. INSTR misses = 15, DATA misses = 151. Winner = INSTR
[DUEL] Epoch ended. INSTR misses = 81, DATA misses = 192. Winner = INSTR
[DUEL] Epoch ended. INSTR misses = 19, DATA misses = 120. Winner = INSTR
[DUEL] Epoch ended. INSTR misses = 80, DATA misses = 175. Winner = INSTR
[DUEL] Epoch ended. INSTR misses = 66, DATA misses = 141. Winner = INSTR
[DUEL] Epoch ended. INSTR misses = 17, DATA misses = 128. Winner = INSTR
Heartbeat CPU 0 instructions: 20000001 cycles: 3333442 heartbeat IPC: 6 cumulative IPC: 6 (Simulation time: 00 hr 00 min 46 sec)
[DUEL] Epoch ended. INSTR misses = 96, DATA misses = 154. Winner = INSTR
[DUEL] Epoch ended. INSTR misses = 17, DATA misses = 114. Winner = INSTR
[DUEL] Epoch ended. INSTR misses = 0, DATA misses = 101. Winner = INSTR
[DUEL] Epoch ended. INSTR misses = 33, DATA misses = 127. Winner = INSTR
[DUEL] Epoch ended. INSTR misses = 105, DATA misses = 217. Winner = INSTR
[DUEL] Epoch ended. INSTR misses = 17, DATA misses = 165. Winner = INSTR
[DUEL] Epoch ended. INSTR misses = 0, DATA misses = 146. Winner = INSTR
[DUEL] Epoch ended. INSTR misses = 99, DATA misses = 206. Winner = INSTR
[DUEL] Epoch ended. INSTR misses = 4, DATA misses = 113. Winner = INSTR
[DUEL] Epoch ended. INSTR misses = 53, DATA misses = 189. Winner = INSTR
[DUEL] Epoch ended. INSTR misses = 67, DATA misses = 179. Winner = INSTR
[DUEL] Epoch ended. INSTR misses = 76, DATA misses = 156. Winner = INSTR
[DUEL] Epoch ended. INSTR misses = 0, DATA misses = 111. Winner = INSTR
[DUEL] Epoch ended. INSTR misses = 16, DATA misses = 151. Winner = INSTR
[DUEL] Epoch ended. INSTR misses = 84, DATA misses = 183. Winner = INSTR
[DUEL] Epoch ended. INSTR misses = 96, DATA misses = 172. Winner = INSTR
[DUEL] Epoch ended. INSTR misses = 75, DATA misses = 131. Winner = INSTR
[DUEL] Epoch ended. INSTR misses = 2, DATA misses = 144. Winner = INSTR
[DUEL] Epoch ended. INSTR misses = 3, DATA misses = 104. Winner = INSTR
Heartbeat CPU 0 instructions: 30000006 cycles: 5000111 heartbeat IPC: 6 cumulative IPC: 6 (Simulation time: 00 hr 01 min 08 sec)
Warmup finished CPU 0 instructions: 30000006 cycles: 5000112 cumulative IPC: 6 (Simulation time: 00 hr 01 min 08 sec)
Warmup complete CPU 0 instructions: 30000006 cycles: 5000112 cumulative IPC: 6 (Simulation time: 00 hr 01 min 08 sec)
*** Reached end of trace: (0, "../traces/public_traces/compute_fp/compute_fp_5.champsimtrace.xz")
[DUEL] Epoch ended. INSTR misses = 45, DATA misses = 98. Winner = INSTR
[DUEL] Epoch ended. INSTR misses = 21, DATA misses = 24. Winner = INSTR
[DUEL] Epoch ended. INSTR misses = 34, DATA misses = 79. Winner = INSTR
[DUEL] Epoch ended. INSTR misses = 49, DATA misses = 117. Winner = INSTR
[DUEL] Epoch ended. INSTR misses = 49, DATA misses = 111. Winner = INSTR
[DUEL] Epoch ended. INSTR misses = 34, DATA misses = 112. Winner = INSTR
[DUEL] Epoch ended. INSTR misses = 66, DATA misses = 117. Winner = INSTR
[DUEL] Epoch ended. INSTR misses = 81, DATA misses = 117. Winner = INSTR
[DUEL] Epoch ended. INSTR misses = 68, DATA misses = 107. Winner = INSTR
[DUEL] Epoch ended. INSTR misses = 50, DATA misses = 107. Winner = INSTR
[DUEL] Epoch ended. INSTR misses = 67, DATA misses = 127. Winner = INSTR
[DUEL] Epoch ended. INSTR misses = 49, DATA misses = 110. Winner = INSTR
[DUEL] Epoch ended. INSTR misses = 34, DATA misses = 123. Winner = INSTR
[DUEL] Epoch ended. INSTR misses = 48, DATA misses = 85. Winner = INSTR
[DUEL] Epoch ended. INSTR misses = 27, DATA misses = 47. Winner = INSTR
[DUEL] Epoch ended. INSTR misses = 28, DATA misses = 44. Winner = INSTR
[DUEL] Epoch ended. INSTR misses = 43, DATA misses = 64. Winner = INSTR
[DUEL] Epoch ended. INSTR misses = 30, DATA misses = 43. Winner = INSTR
[DUEL] Epoch ended. INSTR misses = 39, DATA misses = 65. Winner = INSTR
[DUEL] Epoch ended. INSTR misses = 59, DATA misses = 77. Winner = INSTR
Heartbeat CPU 0 instructions: 40000010 cycles: 10889821 heartbeat IPC: 1.698 cumulative IPC: 1.698 (Simulation time: 00 hr 02 min 06 sec)
[DUEL] Epoch ended. INSTR misses = 59, DATA misses = 68. Winner = INSTR
[DUEL] Epoch ended. INSTR misses = 71, DATA misses = 67. Winner = DATA
[DUEL] Epoch ended. INSTR misses = 63, DATA misses = 63. Winner = INSTR
[DUEL] Epoch ended. INSTR misses = 75, DATA misses = 109. Winner = INSTR
[DUEL] Epoch ended. INSTR misses = 27, DATA misses = 127. Winner = INSTR
[DUEL] Epoch ended. INSTR misses = 91, DATA misses = 166. Winner = INSTR
[DUEL] Epoch ended. INSTR misses = 34, DATA misses = 138. Winner = INSTR
[DUEL] Epoch ended. INSTR misses = 3, DATA misses = 114. Winner = INSTR
[DUEL] Epoch ended. INSTR misses = 49, DATA misses = 132. Winner = INSTR
[DUEL] Epoch ended. INSTR misses = 48, DATA misses = 139. Winner = INSTR
[DUEL] Epoch ended. INSTR misses = 49, DATA misses = 154. Winner = INSTR
[DUEL] Epoch ended. INSTR misses = 83, DATA misses = 169. Winner = INSTR
[DUEL] Epoch ended. INSTR misses = 51, DATA misses = 112. Winner = INSTR
[DUEL] Epoch ended. INSTR misses = 20, DATA misses = 141. Winner = INSTR
[DUEL] Epoch ended. INSTR misses = 35, DATA misses = 173. Winner = INSTR
[DUEL] Epoch ended. INSTR misses = 48, DATA misses = 146. Winner = INSTR
[DUEL] Epoch ended. INSTR misses = 31, DATA misses = 127. Winner = INSTR
[DUEL] Epoch ended. INSTR misses = 84, DATA misses = 184. Winner = INSTR
[DUEL] Epoch ended. INSTR misses = 66, DATA misses = 154. Winner = INSTR
Heartbeat CPU 0 instructions: 50000009 cycles: 23154352 heartbeat IPC: 0.8154 cumulative IPC: 1.102 (Simulation time: 00 hr 03 min 44 sec)
[DUEL] Epoch ended. INSTR misses = 80, DATA misses = 143. Winner = INSTR
[DUEL] Epoch ended. INSTR misses = 33, DATA misses = 116. Winner = INSTR
[DUEL] Epoch ended. INSTR misses = 0, DATA misses = 106. Winner = INSTR
[DUEL] Epoch ended. INSTR misses = 1, DATA misses = 95. Winner = INSTR
[DUEL] Epoch ended. INSTR misses = 96, DATA misses = 196. Winner = INSTR
[DUEL] Epoch ended. INSTR misses = 38, DATA misses = 169. Winner = INSTR
[DUEL] Epoch ended. INSTR misses = 15, DATA misses = 151. Winner = INSTR
[DUEL] Epoch ended. INSTR misses = 49, DATA misses = 187. Winner = INSTR
[DUEL] Epoch ended. INSTR misses = 52, DATA misses = 168. Winner = INSTR
[DUEL] Epoch ended. INSTR misses = 34, DATA misses = 166. Winner = INSTR
[DUEL] Epoch ended. INSTR misses = 38, DATA misses = 155. Winner = INSTR
[DUEL] Epoch ended. INSTR misses = 116, DATA misses = 206. Winner = INSTR
[DUEL] Epoch ended. INSTR misses = 9, DATA misses = 108. Winner = INSTR
[DUEL] Epoch ended. INSTR misses = 0, DATA misses = 132. Winner = INSTR
[DUEL] Epoch ended. INSTR misses = 65, DATA misses = 172. Winner = INSTR
[DUEL] Epoch ended. INSTR misses = 35, DATA misses = 135. Winner = INSTR
[DUEL] Epoch ended. INSTR misses = 145, DATA misses = 202. Winner = INSTR
[DUEL] Epoch ended. INSTR misses = 25, DATA misses = 107. Winner = INSTR
[DUEL] Epoch ended. INSTR misses = 0, DATA misses = 154. Winner = INSTR
[DUEL] Epoch ended. INSTR misses = 16, DATA misses = 79. Winner = INSTR
Heartbeat CPU 0 instructions: 60000006 cycles: 37370495 heartbeat IPC: 0.7034 cumulative IPC: 0.9268 (Simulation time: 00 hr 05 min 35 sec)
*** Reached end of trace: (0, "../traces/public_traces/compute_fp/compute_fp_5.champsimtrace.xz")
[DUEL] Epoch ended. INSTR misses = 34, DATA misses = 62. Winner = INSTR
[DUEL] Epoch ended. INSTR misses = 51, DATA misses = 67. Winner = INSTR
[DUEL] Epoch ended. INSTR misses = 33, DATA misses = 95. Winner = INSTR
[DUEL] Epoch ended. INSTR misses = 34, DATA misses = 93. Winner = INSTR
[DUEL] Epoch ended. INSTR misses = 34, DATA misses = 102. Winner = INSTR
[DUEL] Epoch ended. INSTR misses = 49, DATA misses = 129. Winner = INSTR
[DUEL] Epoch ended. INSTR misses = 82, DATA misses = 120. Winner = INSTR
[DUEL] Epoch ended. INSTR misses = 98, DATA misses = 136. Winner = INSTR
[DUEL] Epoch ended. INSTR misses = 52, DATA misses = 94. Winner = INSTR
[DUEL] Epoch ended. INSTR misses = 50, DATA misses = 108. Winner = INSTR
[DUEL] Epoch ended. INSTR misses = 65, DATA misses = 126. Winner = INSTR
[DUEL] Epoch ended. INSTR misses = 19, DATA misses = 99. Winner = INSTR
[DUEL] Epoch ended. INSTR misses = 64, DATA misses = 134. Winner = INSTR
[DUEL] Epoch ended. INSTR misses = 22, DATA misses = 53. Winner = INSTR
[DUEL] Epoch ended. INSTR misses = 23, DATA misses = 43. Winner = INSTR
[DUEL] Epoch ended. INSTR misses = 39, DATA misses = 59. Winner = INSTR
[DUEL] Epoch ended. INSTR misses = 29, DATA misses = 46. Winner = INSTR
[DUEL] Epoch ended. INSTR misses = 19, DATA misses = 47. Winner = INSTR
[DUEL] Epoch ended. INSTR misses = 43, DATA misses = 60. Winner = INSTR
Heartbeat CPU 0 instructions: 70000011 cycles: 43324807 heartbeat IPC: 1.679 cumulative IPC: 1.044 (Simulation time: 00 hr 06 min 32 sec)
[DUEL] Epoch ended. INSTR misses = 54, DATA misses = 67. Winner = INSTR
[DUEL] Epoch ended. INSTR misses = 57, DATA misses = 64. Winner = INSTR
[DUEL] Epoch ended. INSTR misses = 79, DATA misses = 79. Winner = INSTR
[DUEL] Epoch ended. INSTR misses = 61, DATA misses = 64. Winner = INSTR
[DUEL] Epoch ended. INSTR misses = 59, DATA misses = 138. Winner = INSTR
[DUEL] Epoch ended. INSTR misses = 46, DATA misses = 138. Winner = INSTR
[DUEL] Epoch ended. INSTR misses = 62, DATA misses = 140. Winner = INSTR
[DUEL] Epoch ended. INSTR misses = 34, DATA misses = 147. Winner = INSTR
[DUEL] Epoch ended. INSTR misses = 34, DATA misses = 129. Winner = INSTR
[DUEL] Epoch ended. INSTR misses = 33, DATA misses = 117. Winner = INSTR
[DUEL] Epoch ended. INSTR misses = 42, DATA misses = 140. Winner = INSTR
[DUEL] Epoch ended. INSTR misses = 71, DATA misses = 174. Winner = INSTR
[DUEL] Epoch ended. INSTR misses = 51, DATA misses = 122. Winner = INSTR
[DUEL] Epoch ended. INSTR misses = 53, DATA misses = 134. Winner = INSTR
[DUEL] Epoch ended. INSTR misses = 20, DATA misses = 150. Winner = INSTR
[DUEL] Epoch ended. INSTR misses = 81, DATA misses = 202. Winner = INSTR
[DUEL] Epoch ended. INSTR misses = 18, DATA misses = 115. Winner = INSTR
[DUEL] Epoch ended. INSTR misses = 64, DATA misses = 173. Winner = INSTR
[DUEL] Epoch ended. INSTR misses = 66, DATA misses = 140. Winner = INSTR
[DUEL] Epoch ended. INSTR misses = 33, DATA misses = 139. Winner = INSTR
Heartbeat CPU 0 instructions: 80000003 cycles: 55178932 heartbeat IPC: 0.8436 cumulative IPC: 0.9964 (Simulation time: 00 hr 08 min 08 sec)
[DUEL] Epoch ended. INSTR misses = 80, DATA misses = 144. Winner = INSTR
[DUEL] Epoch ended. INSTR misses = 33, DATA misses = 123. Winner = INSTR
[DUEL] Epoch ended. INSTR misses = 0, DATA misses = 104. Winner = INSTR
[DUEL] Epoch ended. INSTR misses = 6, DATA misses = 88. Winner = INSTR
[DUEL] Epoch ended. INSTR misses = 125, DATA misses = 247. Winner = INSTR
[DUEL] Epoch ended. INSTR misses = 4, DATA misses = 145. Winner = INSTR
[DUEL] Epoch ended. INSTR misses = 15, DATA misses = 148. Winner = INSTR
[DUEL] Epoch ended. INSTR misses = 98, DATA misses = 217. Winner = INSTR
[DUEL] Epoch ended. INSTR misses = 5, DATA misses = 108. Winner = INSTR
[DUEL] Epoch ended. INSTR misses = 51, DATA misses = 191. Winner = INSTR
[DUEL] Epoch ended. INSTR misses = 52, DATA misses = 175. Winner = INSTR
[DUEL] Epoch ended. INSTR misses = 92, DATA misses = 166. Winner = INSTR
[DUEL] Epoch ended. INSTR misses = 0, DATA misses = 115. Winner = INSTR
[DUEL] Epoch ended. INSTR misses = 16, DATA misses = 138. Winner = INSTR
[DUEL] Epoch ended. INSTR misses = 83, DATA misses = 199. Winner = INSTR
[DUEL] Epoch ended. INSTR misses = 65, DATA misses = 147. Winner = INSTR
[DUEL] Epoch ended. INSTR misses = 101, DATA misses = 166. Winner = INSTR
[DUEL] Epoch ended. INSTR misses = 5, DATA misses = 115. Winner = INSTR
[DUEL] Epoch ended. INSTR misses = 0, DATA misses = 129. Winner = INSTR
Heartbeat CPU 0 instructions: 90000011 cycles: 69372046 heartbeat IPC: 0.7046 cumulative IPC: 0.9321 (Simulation time: 00 hr 09 min 58 sec)
*** Reached end of trace: (0, "../traces/public_traces/compute_fp/compute_fp_5.champsimtrace.xz")
[DUEL] Epoch ended. INSTR misses = 32, DATA misses = 88. Winner = INSTR
[DUEL] Epoch ended. INSTR misses = 36, DATA misses = 39. Winner = INSTR
[DUEL] Epoch ended. INSTR misses = 34, DATA misses = 71. Winner = INSTR
[DUEL] Epoch ended. INSTR misses = 49, DATA misses = 116. Winner = INSTR
[DUEL] Epoch ended. INSTR misses = 49, DATA misses = 104. Winner = INSTR
[DUEL] Epoch ended. INSTR misses = 19, DATA misses = 94. Winner = INSTR
[DUEL] Epoch ended. INSTR misses = 65, DATA misses = 132. Winner = INSTR
[DUEL] Epoch ended. INSTR misses = 82, DATA misses = 119. Winner = INSTR
[DUEL] Epoch ended. INSTR misses = 83, DATA misses = 120. Winner = INSTR
[DUEL] Epoch ended. INSTR misses = 51, DATA misses = 107. Winner = INSTR
[DUEL] Epoch ended. INSTR misses = 66, DATA misses = 127. Winner = INSTR
[DUEL] Epoch ended. INSTR misses = 33, DATA misses = 86. Winner = INSTR
[DUEL] Epoch ended. INSTR misses = 34, DATA misses = 116. Winner = INSTR
[DUEL] Epoch ended. INSTR misses = 64, DATA misses = 122. Winner = INSTR
[DUEL] Epoch ended. INSTR misses = 21, DATA misses = 39. Winner = INSTR
[DUEL] Epoch ended. INSTR misses = 24, DATA misses = 47. Winner = INSTR
[DUEL] Epoch ended. INSTR misses = 38, DATA misses = 62. Winner = INSTR
[DUEL] Epoch ended. INSTR misses = 19, DATA misses = 40. Winner = INSTR
[DUEL] Epoch ended. INSTR misses = 32, DATA misses = 64. Winner = INSTR
[DUEL] Epoch ended. INSTR misses = 55, DATA misses = 74. Winner = INSTR
Heartbeat CPU 0 instructions: 100000004 cycles: 75273102 heartbeat IPC: 1.695 cumulative IPC: 0.9961 (Simulation time: 00 hr 10 min 56 sec)
[DUEL] Epoch ended. INSTR misses = 59, DATA misses = 68. Winner = INSTR
[DUEL] Epoch ended. INSTR misses = 65, DATA misses = 66. Winner = INSTR
[DUEL] Epoch ended. INSTR misses = 61, DATA misses = 62. Winner = INSTR
[DUEL] Epoch ended. INSTR misses = 69, DATA misses = 81. Winner = INSTR
[DUEL] Epoch ended. INSTR misses = 30, DATA misses = 135. Winner = INSTR
[DUEL] Epoch ended. INSTR misses = 88, DATA misses = 146. Winner = INSTR
[DUEL] Epoch ended. INSTR misses = 20, DATA misses = 140. Winner = INSTR
[DUEL] Epoch ended. INSTR misses = 18, DATA misses = 129. Winner = INSTR
[DUEL] Epoch ended. INSTR misses = 34, DATA misses = 129. Winner = INSTR
[DUEL] Epoch ended. INSTR misses = 64, DATA misses = 140. Winner = INSTR
[DUEL] Epoch ended. INSTR misses = 17, DATA misses = 139. Winner = INSTR
[DUEL] Epoch ended. INSTR misses = 115, DATA misses = 193. Winner = INSTR
[DUEL] Epoch ended. INSTR misses = 50, DATA misses = 108. Winner = INSTR
[DUEL] Epoch ended. INSTR misses = 20, DATA misses = 122. Winner = INSTR
[DUEL] Epoch ended. INSTR misses = 3, DATA misses = 158. Winner = INSTR
[DUEL] Epoch ended. INSTR misses = 81, DATA misses = 180. Winner = INSTR
[DUEL] Epoch ended. INSTR misses = 21, DATA misses = 126. Winner = INSTR
[DUEL] Epoch ended. INSTR misses = 94, DATA misses = 188. Winner = INSTR
[DUEL] Epoch ended. INSTR misses = 51, DATA misses = 124. Winner = INSTR
Heartbeat CPU 0 instructions: 110000008 cycles: 87076501 heartbeat IPC: 0.8472 cumulative IPC: 0.9747 (Simulation time: 00 hr 12 min 30 sec)
[DUEL] Epoch ended. INSTR misses = 63, DATA misses = 155. Winner = INSTR
[DUEL] Epoch ended. INSTR misses = 65, DATA misses = 125. Winner = INSTR
[DUEL] Epoch ended. INSTR misses = 0, DATA misses = 113. Winner = INSTR
[DUEL] Epoch ended. INSTR misses = 0, DATA misses = 99. Winner = INSTR
[DUEL] Epoch ended. INSTR misses = 65, DATA misses = 160. Winner = INSTR
[DUEL] Epoch ended. INSTR misses = 70, DATA misses = 194. Winner = INSTR
[DUEL] Epoch ended. INSTR misses = 15, DATA misses = 152. Winner = INSTR
[DUEL] Epoch ended. INSTR misses = 32, DATA misses = 182. Winner = INSTR
[DUEL] Epoch ended. INSTR misses = 69, DATA misses = 187. Winner = INSTR
[DUEL] Epoch ended. INSTR misses = 2, DATA misses = 105. Winner = INSTR
[DUEL] Epoch ended. INSTR misses = 53, DATA misses = 190. Winner = INSTR
[DUEL] Epoch ended. INSTR misses = 99, DATA misses = 192. Winner = INSTR
[DUEL] Epoch ended. INSTR misses = 43, DATA misses = 139. Winner = INSTR
[DUEL] Epoch ended. INSTR misses = 0, DATA misses = 128. Winner = INSTR
[DUEL] Epoch ended. INSTR misses = 48, DATA misses = 158. Winner = INSTR
[DUEL] Epoch ended. INSTR misses = 52, DATA misses = 153. Winner = INSTR
[DUEL] Epoch ended. INSTR misses = 128, DATA misses = 192. Winner = INSTR
[DUEL] Epoch ended. INSTR misses = 42, DATA misses = 109. Winner = INSTR
[DUEL] Epoch ended. INSTR misses = 0, DATA misses = 158. Winner = INSTR
[DUEL] Epoch ended. INSTR misses = 16, DATA misses = 82. Winner = INSTR
Heartbeat CPU 0 instructions: 120000003 cycles: 101270297 heartbeat IPC: 0.7045 cumulative IPC: 0.9349 (Simulation time: 00 hr 14 min 21 sec)
*** Reached end of trace: (0, "../traces/public_traces/compute_fp/compute_fp_5.champsimtrace.xz")
[DUEL] Epoch ended. INSTR misses = 33, DATA misses = 82. Winner = INSTR
[DUEL] Epoch ended. INSTR misses = 36, DATA misses = 44. Winner = INSTR
[DUEL] Epoch ended. INSTR misses = 34, DATA misses = 88. Winner = INSTR
[DUEL] Epoch ended. INSTR misses = 49, DATA misses = 116. Winner = INSTR
[DUEL] Epoch ended. INSTR misses = 34, DATA misses = 101. Winner = INSTR
[DUEL] Epoch ended. INSTR misses = 49, DATA misses = 129. Winner = INSTR
[DUEL] Epoch ended. INSTR misses = 66, DATA misses = 104. Winner = INSTR
[DUEL] Epoch ended. INSTR misses = 82, DATA misses = 120. Winner = INSTR
[DUEL] Epoch ended. INSTR misses = 68, DATA misses = 109. Winner = INSTR
[DUEL] Epoch ended. INSTR misses = 50, DATA misses = 109. Winner = INSTR
[DUEL] Epoch ended. INSTR misses = 65, DATA misses = 126. Winner = INSTR
[DUEL] Epoch ended. INSTR misses = 34, DATA misses = 98. Winner = INSTR
[DUEL] Epoch ended. INSTR misses = 49, DATA misses = 128. Winner = INSTR
[DUEL] Epoch ended. INSTR misses = 34, DATA misses = 75. Winner = INSTR
[DUEL] Epoch ended. INSTR misses = 20, DATA misses = 40. Winner = INSTR
[DUEL] Epoch ended. INSTR misses = 40, DATA misses = 55. Winner = INSTR
[DUEL] Epoch ended. INSTR misses = 26, DATA misses = 59. Winner = INSTR
[DUEL] Epoch ended. INSTR misses = 17, DATA misses = 46. Winner = INSTR
[DUEL] Epoch ended. INSTR misses = 40, DATA misses = 60. Winner = INSTR
Heartbeat CPU 0 instructions: 130000001 cycles: 107138363 heartbeat IPC: 1.704 cumulative IPC: 0.9791 (Simulation time: 00 hr 15 min 18 sec)
Simulation finished CPU 0 instructions: 100000007 cycles: 102138253 cumulative IPC: 0.9791 (Simulation time: 00 hr 15 min 18 sec)
Simulation complete CPU 0 instructions: 100000007 cycles: 102138253 cumulative IPC: 0.9791 (Simulation time: 00 hr 15 min 18 sec)

ChampSim completed all CPUs

=== Simulation ===
CPU 0 runs ../traces/public_traces/compute_fp/compute_fp_5.champsimtrace.xz
Region of Interest Statistics

CPU 0 cumulative IPC: 0.9791 instructions: 100000007 cycles: 102138253
CPU 0 Branch Prediction Accuracy: 100% MPKI: 0.00042 Average ROB Occupancy at Mispredict: 315
Branch type MPKI
BRANCH_DIRECT_JUMP: 0
BRANCH_INDIRECT: 5e-05
BRANCH_CONDITIONAL: 0.00033
BRANCH_DIRECT_CALL: 0
BRANCH_INDIRECT_CALL: 0
BRANCH_RETURN: 4e-05

LLC TOTAL        ACCESS:    4239164 HIT:     289240 MISS:    3949924
LLC LOAD         ACCESS:    1085656 HIT:      20596 MISS:    1065060
LLC RFO          ACCESS:     609801 HIT:     106100 MISS:     503701
LLC PREFETCH     ACCESS:    1876065 HIT:      42624 MISS:    1833441
LLC WRITE        ACCESS:     664606 HIT:     119321 MISS:     545285
LLC TRANSLATION  ACCESS:       3036 HIT:        599 MISS:       2437
LLC PREFETCH REQUESTED:          0 ISSUED:          0 USEFUL:          0 USELESS:          0
LLC AVERAGE MISS LATENCY: 485.1 cycles
cpu0_DTLB TOTAL        ACCESS:   14502253 HIT:   13413461 MISS:    1088792
cpu0_DTLB LOAD         ACCESS:   14502253 HIT:   13413461 MISS:    1088792
cpu0_DTLB RFO          ACCESS:          0 HIT:          0 MISS:          0
cpu0_DTLB PREFETCH     ACCESS:          0 HIT:          0 MISS:          0
cpu0_DTLB WRITE        ACCESS:          0 HIT:          0 MISS:          0
cpu0_DTLB TRANSLATION  ACCESS:          0 HIT:          0 MISS:          0
cpu0_DTLB PREFETCH REQUESTED:          0 ISSUED:          0 USEFUL:          0 USELESS:          0
cpu0_DTLB AVERAGE MISS LATENCY: 5.549 cycles
cpu0_ITLB TOTAL        ACCESS:       9518 HIT:       9518 MISS:          0
cpu0_ITLB LOAD         ACCESS:       9518 HIT:       9518 MISS:          0
cpu0_ITLB RFO          ACCESS:          0 HIT:          0 MISS:          0
cpu0_ITLB PREFETCH     ACCESS:          0 HIT:          0 MISS:          0
cpu0_ITLB WRITE        ACCESS:          0 HIT:          0 MISS:          0
cpu0_ITLB TRANSLATION  ACCESS:          0 HIT:          0 MISS:          0
cpu0_ITLB PREFETCH REQUESTED:          0 ISSUED:          0 USEFUL:          0 USELESS:          0
cpu0_ITLB AVERAGE MISS LATENCY: -nan cycles
cpu0_L1D TOTAL        ACCESS:   26026246 HIT:   11859550 MISS:   14166696
cpu0_L1D LOAD         ACCESS:   11954849 HIT:    4270240 MISS:    7684609
cpu0_L1D RFO          ACCESS:          0 HIT:          0 MISS:          0
cpu0_L1D PREFETCH     ACCESS:    4971667 HIT:    2692561 MISS:    2279106
cpu0_L1D WRITE        ACCESS:    8891867 HIT:    4724245 MISS:    4167622
cpu0_L1D TRANSLATION  ACCESS:     207863 HIT:     172504 MISS:      35359
cpu0_L1D PREFETCH REQUESTED:   23131530 ISSUED:    4971699 USEFUL:     310612 USELESS:        319
cpu0_L1D AVERAGE MISS LATENCY: 70.61 cycles
cpu0_L1I TOTAL        ACCESS:      13909 HIT:      13807 MISS:        102
cpu0_L1I LOAD         ACCESS:       7075 HIT:       7022 MISS:         53
cpu0_L1I RFO          ACCESS:          0 HIT:          0 MISS:          0
cpu0_L1I PREFETCH     ACCESS:       6834 HIT:       6785 MISS:         49
cpu0_L1I WRITE        ACCESS:          0 HIT:          0 MISS:          0
cpu0_L1I TRANSLATION  ACCESS:          0 HIT:          0 MISS:          0
cpu0_L1I PREFETCH REQUESTED:       7744 ISSUED:       6834 USEFUL:         22 USELESS:          3
cpu0_L1I AVERAGE MISS LATENCY: 182.6 cycles
cpu0_L2C TOTAL        ACCESS:   11168317 HIT:    5089096 MISS:    6079221
cpu0_L2C LOAD         ACCESS:    3047247 HIT:    1633534 MISS:    1413713
cpu0_L2C RFO          ACCESS:     644592 HIT:      34667 MISS:     609925
cpu0_L2C PREFETCH     ACCESS:    6763074 HIT:    2710535 MISS:    4052539
cpu0_L2C WRITE        ACCESS:     678420 HIT:     678412 MISS:          8
cpu0_L2C TRANSLATION  ACCESS:      34984 HIT:      31948 MISS:       3036
cpu0_L2C PREFETCH REQUESTED:    5240541 ISSUED:    4852484 USEFUL:     893510 USELESS:     505339
cpu0_L2C AVERAGE MISS LATENCY: 316.7 cycles
cpu0_STLB TOTAL        ACCESS:     463841 HIT:     256536 MISS:     207305
cpu0_STLB LOAD         ACCESS:     463841 HIT:     256536 MISS:     207305
cpu0_STLB RFO          ACCESS:          0 HIT:          0 MISS:          0
cpu0_STLB PREFETCH     ACCESS:          0 HIT:          0 MISS:          0
cpu0_STLB WRITE        ACCESS:          0 HIT:          0 MISS:          0
cpu0_STLB TRANSLATION  ACCESS:          0 HIT:          0 MISS:          0
cpu0_STLB PREFETCH REQUESTED:          0 ISSUED:          0 USEFUL:          0 USELESS:          0
cpu0_STLB AVERAGE MISS LATENCY: 20.89 cycles

DRAM Statistics

Channel 0 RQ ROW_BUFFER_HIT:     830946
  ROW_BUFFER_MISS:     887657
 AVG DBUS CONGESTED CYCLE: 3.936
WQ ROW_BUFFER_HIT: Channel 0 
  ROW_BUFFER_MISS:      84261
  FULL:     181519

Channel 1 RQ ROW_BUFFER_HIT:     830864
  ROW_BUFFER_MISS:     855158
 AVG DBUS CONGESTED CYCLE: 3.934
WQ ROW_BUFFER_HIT: Channel 1 
  ROW_BUFFER_MISS:      82264
  FULL:     200236
BERTI TO_L1: 6558777 TO_L2: 22650496 TO_L2_BC_MSHR: 12235006
BERTI AVG_LAT: 216.158 NUM_TRACK_LATENCY: 4423496 NUM_CANT_TRACK_LATENCY: 10
BERTI CROSS_PAGE 10526319 NO_CROSS_PAGE: 18682954
BERTI FOUND_BERTI: 11350691 NO_FOUND_BERTI: 11439117
BERTI AVERAGE_ISSUED: 3.57656
CPU 0 L1I Entangling prefetcher final stats
IP accesses: 579 15e40 81 / 7075
IP misses: 3847 e11c0 20 / 53
IP hits: 0 0 0 / 0
IP late: 30c7 c31c0 10 / 36
IP wrong: 507 141c0 3 / 3
miss rate: 0.00749117
coverage: 0
coverage_late: 0.679246
accuracy: 0
accuracy_late: 0.923077
discarded: 0
evicts entangled j table: 0
evicts entangled k table: 1
max bb size: 18
formats: 1 0 0 0 0 0 0 
hist_lookups: 0 0 0 0 2 0 0 0 0 0 0 0 0 0 0 0 0 214 
hist_lookups_evict: 0 %
hist_lookups_shortlat: 99.0741 %
bb_found_hist: 0 1278 473 178 64 20 50 41 0 0 0 10 6 0 0 0 0 0 3 0 0 0 0 0 0 0 0 0 0 0 0 0 0 0 0 0 0 0 0 0 0 0 0 0 0 0 0 0 0 0 0 0 0 0 0 0 0 0 0 0 0 0 0 0 
bb_found_summary: 3937 2123 1.85446
entangled_found_hist: 0 515 154 199 34 10 0 0 
entangled_found_summary: 1606 912 1.76097
bb_ent_found_hist: 0 464 254 110 20 20 49 3 0 0 0 10 17 0 0 0 0 0 7 0 0 0 0 0 0 0 0 0 0 0 0 0 0 0 0 0 0 0 0 0 0 0 0 0 0 0 0 0 0 0 0 0 0 0 0 0 0 0 0 0 0 0 0 0 
bb_ent_found_summary: 2237 954 2.34487
