WARNING: physical memory size is smaller than virtual memory size.

*** ChampSim Multicore Out-of-Order Simulator ***
Warmup Instructions: 30000000
Simulation Instructions: 100000000
Number of CPUs: 1
Page size: 4096

BTB:
Basic BTB sets: 1024 ways: 8
Indirect:
history lengths: 0 0 10 16 27 44 60 96 109 219 449 487 714 1313 2146 3881 
ITTAGE tables: 64768 bytes;Region table: 240 bytes;IUM: 384 bytes;Total Storage= 65392 bytes;
RAS:
RAS size: 64
[LLC] INSTR Demand IPV: 1 2 2 1 4 Prefetch IPV: 1 2 1 1 4
[LLC] DATA  Demand IPV: 1 1 1 2 4 Prefetch IPV: 1 1 2 2 4
Berti Prefetcher
CPU 0 Entangling prefetcher
Off-chip DRAM Size: 8 GiB Channels: 2 Width: 64-bit Data Race: 6400 MT/s
[DUEL] Epoch ended. INSTR misses = 17, DATA misses = 32. Winner = INSTR
[DUEL] Epoch ended. INSTR misses = 51, DATA misses = 37. Winner = DATA
[DUEL] Epoch ended. INSTR misses = 28, DATA misses = 23. Winner = DATA
[DUEL] Epoch ended. INSTR misses = 32, DATA misses = 32. Winner = INSTR
[DUEL] Epoch ended. INSTR misses = 25, DATA misses = 48. Winner = INSTR
[DUEL] Epoch ended. INSTR misses = 42, DATA misses = 20. Winner = DATA
[DUEL] Epoch ended. INSTR misses = 33, DATA misses = 24. Winner = DATA
[DUEL] Epoch ended. INSTR misses = 52, DATA misses = 41. Winner = DATA
[DUEL] Epoch ended. INSTR misses = 13, DATA misses = 2. Winner = DATA
[DUEL] Epoch ended. INSTR misses = 34, DATA misses = 32. Winner = DATA
[DUEL] Epoch ended. INSTR misses = 18, DATA misses = 17. Winner = DATA
[DUEL] Epoch ended. INSTR misses = 18, DATA misses = 16. Winner = DATA
[DUEL] Epoch ended. INSTR misses = 32, DATA misses = 32. Winner = INSTR
[DUEL] Epoch ended. INSTR misses = 8, DATA misses = 18. Winner = INSTR
[DUEL] Epoch ended. INSTR misses = 24, DATA misses = 37. Winner = INSTR
[DUEL] Epoch ended. INSTR misses = 21, DATA misses = 16. Winner = DATA
[DUEL] Epoch ended. INSTR misses = 39, DATA misses = 37. Winner = DATA
[DUEL] Epoch ended. INSTR misses = 20, DATA misses = 37. Winner = INSTR
[DUEL] Epoch ended. INSTR misses = 32, DATA misses = 32. Winner = INSTR
Heartbeat CPU 0 instructions: 10000004 cycles: 1712516 heartbeat IPC: 5.839 cumulative IPC: 5.839 (Simulation time: 00 hr 00 min 25 sec)
[DUEL] Epoch ended. INSTR misses = 64, DATA misses = 56. Winner = DATA
[DUEL] Epoch ended. INSTR misses = 32, DATA misses = 31. Winner = DATA
[DUEL] Epoch ended. INSTR misses = 30, DATA misses = 29. Winner = DATA
[DUEL] Epoch ended. INSTR misses = 37, DATA misses = 43. Winner = INSTR
[DUEL] Epoch ended. INSTR misses = 26, DATA misses = 24. Winner = DATA
[DUEL] Epoch ended. INSTR misses = 45, DATA misses = 28. Winner = DATA
[DUEL] Epoch ended. INSTR misses = 23, DATA misses = 32. Winner = INSTR
[DUEL] Epoch ended. INSTR misses = 40, DATA misses = 26. Winner = DATA
[DUEL] Epoch ended. INSTR misses = 33, DATA misses = 19. Winner = DATA
[DUEL] Epoch ended. INSTR misses = 43, DATA misses = 31. Winner = DATA
[DUEL] Epoch ended. INSTR misses = 12, DATA misses = 2. Winner = DATA
[DUEL] Epoch ended. INSTR misses = 31, DATA misses = 31. Winner = INSTR
[DUEL] Epoch ended. INSTR misses = 14, DATA misses = 16. Winner = INSTR
[DUEL] Epoch ended. INSTR misses = 19, DATA misses = 16. Winner = DATA
[DUEL] Epoch ended. INSTR misses = 29, DATA misses = 31. Winner = INSTR
[DUEL] Epoch ended. INSTR misses = 7, DATA misses = 15. Winner = INSTR
[DUEL] Epoch ended. INSTR misses = 24, DATA misses = 34. Winner = INSTR
[DUEL] Epoch ended. INSTR misses = 25, DATA misses = 15. Winner = DATA
[DUEL] Epoch ended. INSTR misses = 11, DATA misses = 20. Winner = INSTR
[DUEL] Epoch ended. INSTR misses = 35, DATA misses = 55. Winner = INSTR
Heartbeat CPU 0 instructions: 20000006 cycles: 3424859 heartbeat IPC: 5.84 cumulative IPC: 5.84 (Simulation time: 00 hr 00 min 50 sec)
[DUEL] Epoch ended. INSTR misses = 31, DATA misses = 32. Winner = INSTR
[DUEL] Epoch ended. INSTR misses = 64, DATA misses = 62. Winner = DATA
[DUEL] Epoch ended. INSTR misses = 25, DATA misses = 33. Winner = INSTR
[DUEL] Epoch ended. INSTR misses = 43, DATA misses = 32. Winner = DATA
[DUEL] Epoch ended. INSTR misses = 14, DATA misses = 29. Winner = INSTR
[DUEL] Epoch ended. INSTR misses = 24, DATA misses = 24. Winner = INSTR
[DUEL] Epoch ended. INSTR misses = 49, DATA misses = 43. Winner = DATA
[DUEL] Epoch ended. INSTR misses = 7, DATA misses = 28. Winner = INSTR
[DUEL] Epoch ended. INSTR misses = 45, DATA misses = 32. Winner = DATA
[DUEL] Epoch ended. INSTR misses = 37, DATA misses = 26. Winner = DATA
[DUEL] Epoch ended. INSTR misses = 0, DATA misses = 2. Winner = INSTR
[DUEL] Epoch ended. INSTR misses = 1, DATA misses = 0. Winner = DATA
[DUEL] Epoch ended. INSTR misses = 15, DATA misses = 13. Winner = DATA
[DUEL] Epoch ended. INSTR misses = 28, DATA misses = 26. Winner = DATA
[DUEL] Epoch ended. INSTR misses = 15, DATA misses = 14. Winner = DATA
[DUEL] Epoch ended. INSTR misses = 29, DATA misses = 30. Winner = INSTR
[DUEL] Epoch ended. INSTR misses = 19, DATA misses = 17. Winner = DATA
[DUEL] Epoch ended. INSTR misses = 14, DATA misses = 27. Winner = INSTR
[DUEL] Epoch ended. INSTR misses = 17, DATA misses = 12. Winner = DATA
Heartbeat CPU 0 instructions: 30000002 cycles: 5139225 heartbeat IPC: 5.833 cumulative IPC: 5.837 (Simulation time: 00 hr 01 min 15 sec)
Warmup finished CPU 0 instructions: 30000002 cycles: 5139226 cumulative IPC: 5.837 (Simulation time: 00 hr 01 min 15 sec)
Warmup complete CPU 0 instructions: 30000002 cycles: 5139226 cumulative IPC: 5.837 (Simulation time: 00 hr 01 min 15 sec)
[DUEL] Epoch ended. INSTR misses = 15, DATA misses = 14. Winner = DATA
[DUEL] Epoch ended. INSTR misses = 42, DATA misses = 47. Winner = INSTR
[DUEL] Epoch ended. INSTR misses = 20, DATA misses = 41. Winner = INSTR
[DUEL] Epoch ended. INSTR misses = 51, DATA misses = 58. Winner = INSTR
[DUEL] Epoch ended. INSTR misses = 45, DATA misses = 27. Winner = DATA
[DUEL] Epoch ended. INSTR misses = 29, DATA misses = 28. Winner = DATA
*** Reached end of trace: (0, "../traces/public_traces/compute_fp/compute_fp_6.champsimtrace.xz")
[DUEL] Epoch ended. INSTR misses = 42, DATA misses = 48. Winner = INSTR
[DUEL] Epoch ended. INSTR misses = 6, DATA misses = 19. Winner = INSTR
[DUEL] Epoch ended. INSTR misses = 9, DATA misses = 20. Winner = INSTR
[DUEL] Epoch ended. INSTR misses = 23, DATA misses = 22. Winner = DATA
[DUEL] Epoch ended. INSTR misses = 39, DATA misses = 27. Winner = DATA
[DUEL] Epoch ended. INSTR misses = 53, DATA misses = 33. Winner = DATA
[DUEL] Epoch ended. INSTR misses = 31, DATA misses = 30. Winner = DATA
[DUEL] Epoch ended. INSTR misses = 42, DATA misses = 32. Winner = DATA
[DUEL] Epoch ended. INSTR misses = 30, DATA misses = 19. Winner = DATA
[DUEL] Epoch ended. INSTR misses = 16, DATA misses = 1. Winner = DATA
[DUEL] Epoch ended. INSTR misses = 30, DATA misses = 29. Winner = DATA
[DUEL] Epoch ended. INSTR misses = 16, DATA misses = 17. Winner = INSTR
[DUEL] Epoch ended. INSTR misses = 31, DATA misses = 29. Winner = DATA
Heartbeat CPU 0 instructions: 40000003 cycles: 8074729 heartbeat IPC: 3.407 cumulative IPC: 3.407 (Simulation time: 00 hr 01 min 51 sec)
[DUEL] Epoch ended. INSTR misses = 12, DATA misses = 15. Winner = INSTR
[DUEL] Epoch ended. INSTR misses = 7, DATA misses = 15. Winner = INSTR
[DUEL] Epoch ended. INSTR misses = 39, DATA misses = 46. Winner = INSTR
[DUEL] Epoch ended. INSTR misses = 9, DATA misses = 0. Winner = DATA
[DUEL] Epoch ended. INSTR misses = 25, DATA misses = 34. Winner = INSTR
[DUEL] Epoch ended. INSTR misses = 20, DATA misses = 41. Winner = INSTR
[DUEL] Epoch ended. INSTR misses = 46, DATA misses = 40. Winner = DATA
[DUEL] Epoch ended. INSTR misses = 61, DATA misses = 60. Winner = DATA
[DUEL] Epoch ended. INSTR misses = 26, DATA misses = 18. Winner = DATA
[DUEL] Epoch ended. INSTR misses = 37, DATA misses = 23. Winner = DATA
[DUEL] Epoch ended. INSTR misses = 10, DATA misses = 18. Winner = INSTR
[DUEL] Epoch ended. INSTR misses = 23, DATA misses = 23. Winner = INSTR
[DUEL] Epoch ended. INSTR misses = 29, DATA misses = 27. Winner = DATA
[DUEL] Epoch ended. INSTR misses = 33, DATA misses = 45. Winner = INSTR
[DUEL] Epoch ended. INSTR misses = 42, DATA misses = 29. Winner = DATA
[DUEL] Epoch ended. INSTR misses = 41, DATA misses = 31. Winner = DATA
[DUEL] Epoch ended. INSTR misses = 25, DATA misses = 16. Winner = DATA
[DUEL] Epoch ended. INSTR misses = 12, DATA misses = 2. Winner = DATA
[DUEL] Epoch ended. INSTR misses = 30, DATA misses = 29. Winner = DATA
[DUEL] Epoch ended. INSTR misses = 13, DATA misses = 15. Winner = INSTR
Heartbeat CPU 0 instructions: 50000010 cycles: 11161123 heartbeat IPC: 3.24 cumulative IPC: 3.321 (Simulation time: 00 hr 02 min 28 sec)
[DUEL] Epoch ended. INSTR misses = 17, DATA misses = 16. Winner = DATA
[DUEL] Epoch ended. INSTR misses = 28, DATA misses = 30. Winner = INSTR
[DUEL] Epoch ended. INSTR misses = 7, DATA misses = 15. Winner = INSTR
[DUEL] Epoch ended. INSTR misses = 36, DATA misses = 47. Winner = INSTR
[DUEL] Epoch ended. INSTR misses = 22, DATA misses = 2. Winner = DATA
[DUEL] Epoch ended. INSTR misses = 25, DATA misses = 34. Winner = INSTR
[DUEL] Epoch ended. INSTR misses = 20, DATA misses = 40. Winner = INSTR
[DUEL] Epoch ended. INSTR misses = 43, DATA misses = 32. Winner = DATA
[DUEL] Epoch ended. INSTR misses = 63, DATA misses = 76. Winner = INSTR
[DUEL] Epoch ended. INSTR misses = 20, DATA misses = 8. Winner = DATA
[DUEL] Epoch ended. INSTR misses = 37, DATA misses = 23. Winner = DATA
[DUEL] Epoch ended. INSTR misses = 29, DATA misses = 24. Winner = DATA
[DUEL] Epoch ended. INSTR misses = 14, DATA misses = 16. Winner = INSTR
[DUEL] Epoch ended. INSTR misses = 47, DATA misses = 31. Winner = DATA
[DUEL] Epoch ended. INSTR misses = 36, DATA misses = 43. Winner = INSTR
[DUEL] Epoch ended. INSTR misses = 33, DATA misses = 20. Winner = DATA
[DUEL] Epoch ended. INSTR misses = 32, DATA misses = 27. Winner = DATA
[DUEL] Epoch ended. INSTR misses = 0, DATA misses = 0. Winner = INSTR
[DUEL] Epoch ended. INSTR misses = 1, DATA misses = 0. Winner = DATA
[DUEL] Epoch ended. INSTR misses = 15, DATA misses = 12. Winner = DATA
Heartbeat CPU 0 instructions: 60000008 cycles: 14116684 heartbeat IPC: 3.383 cumulative IPC: 3.342 (Simulation time: 00 hr 03 min 03 sec)
[DUEL] Epoch ended. INSTR misses = 23, DATA misses = 15. Winner = DATA
[DUEL] Epoch ended. INSTR misses = 15, DATA misses = 14. Winner = DATA
[DUEL] Epoch ended. INSTR misses = 28, DATA misses = 29. Winner = INSTR
[DUEL] Epoch ended. INSTR misses = 18, DATA misses = 17. Winner = DATA
[DUEL] Epoch ended. INSTR misses = 14, DATA misses = 27. Winner = INSTR
[DUEL] Epoch ended. INSTR misses = 17, DATA misses = 22. Winner = INSTR
[DUEL] Epoch ended. INSTR misses = 15, DATA misses = 14. Winner = DATA
[DUEL] Epoch ended. INSTR misses = 41, DATA misses = 46. Winner = INSTR
[DUEL] Epoch ended. INSTR misses = 19, DATA misses = 40. Winner = INSTR
[DUEL] Epoch ended. INSTR misses = 49, DATA misses = 57. Winner = INSTR
[DUEL] Epoch ended. INSTR misses = 41, DATA misses = 26. Winner = DATA
[DUEL] Epoch ended. INSTR misses = 25, DATA misses = 19. Winner = DATA
*** Reached end of trace: (0, "../traces/public_traces/compute_fp/compute_fp_6.champsimtrace.xz")
[DUEL] Epoch ended. INSTR misses = 36, DATA misses = 20. Winner = DATA
[DUEL] Epoch ended. INSTR misses = 2, DATA misses = 5. Winner = INSTR
[DUEL] Epoch ended. INSTR misses = 1, DATA misses = 0. Winner = DATA
[DUEL] Epoch ended. INSTR misses = 22, DATA misses = 19. Winner = DATA
[DUEL] Epoch ended. INSTR misses = 33, DATA misses = 27. Winner = DATA
[DUEL] Epoch ended. INSTR misses = 47, DATA misses = 30. Winner = DATA
[DUEL] Epoch ended. INSTR misses = 31, DATA misses = 24. Winner = DATA
Heartbeat CPU 0 instructions: 70000011 cycles: 16855513 heartbeat IPC: 3.651 cumulative IPC: 3.414 (Simulation time: 00 hr 03 min 38 sec)
[DUEL] Epoch ended. INSTR misses = 41, DATA misses = 40. Winner = DATA
[DUEL] Epoch ended. INSTR misses = 28, DATA misses = 18. Winner = DATA
[DUEL] Epoch ended. INSTR misses = 13, DATA misses = 0. Winner = DATA
[DUEL] Epoch ended. INSTR misses = 29, DATA misses = 29. Winner = INSTR
[DUEL] Epoch ended. INSTR misses = 15, DATA misses = 17. Winner = INSTR
[DUEL] Epoch ended. INSTR misses = 31, DATA misses = 29. Winner = DATA
[DUEL] Epoch ended. INSTR misses = 12, DATA misses = 15. Winner = INSTR
[DUEL] Epoch ended. INSTR misses = 8, DATA misses = 15. Winner = INSTR
[DUEL] Epoch ended. INSTR misses = 38, DATA misses = 48. Winner = INSTR
[DUEL] Epoch ended. INSTR misses = 8, DATA misses = 0. Winner = DATA
[DUEL] Epoch ended. INSTR misses = 24, DATA misses = 33. Winner = INSTR
[DUEL] Epoch ended. INSTR misses = 19, DATA misses = 40. Winner = INSTR
[DUEL] Epoch ended. INSTR misses = 43, DATA misses = 32. Winner = DATA
[DUEL] Epoch ended. INSTR misses = 59, DATA misses = 58. Winner = DATA
[DUEL] Epoch ended. INSTR misses = 21, DATA misses = 9. Winner = DATA
[DUEL] Epoch ended. INSTR misses = 36, DATA misses = 19. Winner = DATA
[DUEL] Epoch ended. INSTR misses = 9, DATA misses = 18. Winner = INSTR
[DUEL] Epoch ended. INSTR misses = 22, DATA misses = 21. Winner = DATA
[DUEL] Epoch ended. INSTR misses = 29, DATA misses = 27. Winner = DATA
[DUEL] Epoch ended. INSTR misses = 25, DATA misses = 32. Winner = INSTR
Heartbeat CPU 0 instructions: 80000002 cycles: 19707758 heartbeat IPC: 3.506 cumulative IPC: 3.432 (Simulation time: 00 hr 04 min 14 sec)
[DUEL] Epoch ended. INSTR misses = 40, DATA misses = 26. Winner = DATA
[DUEL] Epoch ended. INSTR misses = 32, DATA misses = 25. Winner = DATA
[DUEL] Epoch ended. INSTR misses = 25, DATA misses = 19. Winner = DATA
[DUEL] Epoch ended. INSTR misses = 12, DATA misses = 11. Winner = DATA
[DUEL] Epoch ended. INSTR misses = 29, DATA misses = 29. Winner = INSTR
[DUEL] Epoch ended. INSTR misses = 13, DATA misses = 15. Winner = INSTR
[DUEL] Epoch ended. INSTR misses = 16, DATA misses = 15. Winner = DATA
[DUEL] Epoch ended. INSTR misses = 28, DATA misses = 30. Winner = INSTR
[DUEL] Epoch ended. INSTR misses = 7, DATA misses = 15. Winner = INSTR
[DUEL] Epoch ended. INSTR misses = 37, DATA misses = 40. Winner = INSTR
[DUEL] Epoch ended. INSTR misses = 24, DATA misses = 10. Winner = DATA
[DUEL] Epoch ended. INSTR misses = 25, DATA misses = 33. Winner = INSTR
[DUEL] Epoch ended. INSTR misses = 17, DATA misses = 40. Winner = INSTR
[DUEL] Epoch ended. INSTR misses = 39, DATA misses = 32. Winner = DATA
[DUEL] Epoch ended. INSTR misses = 64, DATA misses = 75. Winner = INSTR
[DUEL] Epoch ended. INSTR misses = 20, DATA misses = 6. Winner = DATA
[DUEL] Epoch ended. INSTR misses = 36, DATA misses = 19. Winner = DATA
[DUEL] Epoch ended. INSTR misses = 26, DATA misses = 21. Winner = DATA
[DUEL] Epoch ended. INSTR misses = 14, DATA misses = 18. Winner = INSTR
Heartbeat CPU 0 instructions: 90000008 cycles: 22507129 heartbeat IPC: 3.572 cumulative IPC: 3.455 (Simulation time: 00 hr 04 min 50 sec)
[DUEL] Epoch ended. INSTR misses = 44, DATA misses = 27. Winner = DATA
[DUEL] Epoch ended. INSTR misses = 35, DATA misses = 42. Winner = INSTR
[DUEL] Epoch ended. INSTR misses = 33, DATA misses = 19. Winner = DATA
[DUEL] Epoch ended. INSTR misses = 32, DATA misses = 25. Winner = DATA
[DUEL] Epoch ended. INSTR misses = 0, DATA misses = 0. Winner = INSTR
[DUEL] Epoch ended. INSTR misses = 1, DATA misses = 0. Winner = DATA
[DUEL] Epoch ended. INSTR misses = 15, DATA misses = 12. Winner = DATA
[DUEL] Epoch ended. INSTR misses = 33, DATA misses = 20. Winner = DATA
[DUEL] Epoch ended. INSTR misses = 15, DATA misses = 14. Winner = DATA
[DUEL] Epoch ended. INSTR misses = 26, DATA misses = 28. Winner = INSTR
[DUEL] Epoch ended. INSTR misses = 18, DATA misses = 17. Winner = DATA
[DUEL] Epoch ended. INSTR misses = 14, DATA misses = 27. Winner = INSTR
[DUEL] Epoch ended. INSTR misses = 17, DATA misses = 23. Winner = INSTR
[DUEL] Epoch ended. INSTR misses = 20, DATA misses = 14. Winner = DATA
[DUEL] Epoch ended. INSTR misses = 40, DATA misses = 46. Winner = INSTR
[DUEL] Epoch ended. INSTR misses = 17, DATA misses = 40. Winner = INSTR
[DUEL] Epoch ended. INSTR misses = 49, DATA misses = 61. Winner = INSTR
[DUEL] Epoch ended. INSTR misses = 40, DATA misses = 27. Winner = DATA
[DUEL] Epoch ended. INSTR misses = 25, DATA misses = 12. Winner = DATA
*** Reached end of trace: (0, "../traces/public_traces/compute_fp/compute_fp_6.champsimtrace.xz")
[DUEL] Epoch ended. INSTR misses = 41, DATA misses = 19. Winner = DATA
Heartbeat CPU 0 instructions: 100000008 cycles: 25230522 heartbeat IPC: 3.672 cumulative IPC: 3.484 (Simulation time: 00 hr 05 min 24 sec)
[DUEL] Epoch ended. INSTR misses = 1, DATA misses = 4. Winner = INSTR
[DUEL] Epoch ended. INSTR misses = 3, DATA misses = 7. Winner = INSTR
[DUEL] Epoch ended. INSTR misses = 21, DATA misses = 19. Winner = DATA
[DUEL] Epoch ended. INSTR misses = 33, DATA misses = 27. Winner = DATA
[DUEL] Epoch ended. INSTR misses = 44, DATA misses = 44. Winner = INSTR
[DUEL] Epoch ended. INSTR misses = 31, DATA misses = 27. Winner = DATA
[DUEL] Epoch ended. INSTR misses = 39, DATA misses = 29. Winner = DATA
[DUEL] Epoch ended. INSTR misses = 27, DATA misses = 16. Winner = DATA
[DUEL] Epoch ended. INSTR misses = 14, DATA misses = 1. Winner = DATA
[DUEL] Epoch ended. INSTR misses = 29, DATA misses = 29. Winner = INSTR
[DUEL] Epoch ended. INSTR misses = 15, DATA misses = 17. Winner = INSTR
[DUEL] Epoch ended. INSTR misses = 28, DATA misses = 27. Winner = DATA
[DUEL] Epoch ended. INSTR misses = 12, DATA misses = 16. Winner = INSTR
[DUEL] Epoch ended. INSTR misses = 7, DATA misses = 15. Winner = INSTR
[DUEL] Epoch ended. INSTR misses = 38, DATA misses = 48. Winner = INSTR
[DUEL] Epoch ended. INSTR misses = 7, DATA misses = 0. Winner = DATA
[DUEL] Epoch ended. INSTR misses = 25, DATA misses = 33. Winner = INSTR
[DUEL] Epoch ended. INSTR misses = 17, DATA misses = 40. Winner = INSTR
[DUEL] Epoch ended. INSTR misses = 45, DATA misses = 40. Winner = DATA
Heartbeat CPU 0 instructions: 110000002 cycles: 27908755 heartbeat IPC: 3.734 cumulative IPC: 3.513 (Simulation time: 00 hr 05 min 59 sec)
[DUEL] Epoch ended. INSTR misses = 58, DATA misses = 57. Winner = DATA
[DUEL] Epoch ended. INSTR misses = 13, DATA misses = 5. Winner = DATA
[DUEL] Epoch ended. INSTR misses = 35, DATA misses = 18. Winner = DATA
[DUEL] Epoch ended. INSTR misses = 9, DATA misses = 17. Winner = INSTR
[DUEL] Epoch ended. INSTR misses = 22, DATA misses = 21. Winner = DATA
[DUEL] Epoch ended. INSTR misses = 29, DATA misses = 27. Winner = DATA
[DUEL] Epoch ended. INSTR misses = 28, DATA misses = 36. Winner = INSTR
[DUEL] Epoch ended. INSTR misses = 41, DATA misses = 26. Winner = DATA
[DUEL] Epoch ended. INSTR misses = 37, DATA misses = 23. Winner = DATA
[DUEL] Epoch ended. INSTR misses = 25, DATA misses = 20. Winner = DATA
[DUEL] Epoch ended. INSTR misses = 12, DATA misses = 0. Winner = DATA
[DUEL] Epoch ended. INSTR misses = 29, DATA misses = 29. Winner = INSTR
[DUEL] Epoch ended. INSTR misses = 13, DATA misses = 15. Winner = INSTR
[DUEL] Epoch ended. INSTR misses = 14, DATA misses = 15. Winner = INSTR
[DUEL] Epoch ended. INSTR misses = 28, DATA misses = 30. Winner = INSTR
[DUEL] Epoch ended. INSTR misses = 7, DATA misses = 14. Winner = INSTR
[DUEL] Epoch ended. INSTR misses = 37, DATA misses = 46. Winner = INSTR
[DUEL] Epoch ended. INSTR misses = 14, DATA misses = 1. Winner = DATA
[DUEL] Epoch ended. INSTR misses = 25, DATA misses = 33. Winner = INSTR
[DUEL] Epoch ended. INSTR misses = 17, DATA misses = 40. Winner = INSTR
Heartbeat CPU 0 instructions: 120000005 cycles: 30652245 heartbeat IPC: 3.645 cumulative IPC: 3.528 (Simulation time: 00 hr 06 min 34 sec)
[DUEL] Epoch ended. INSTR misses = 29, DATA misses = 32. Winner = INSTR
[DUEL] Epoch ended. INSTR misses = 74, DATA misses = 75. Winner = INSTR
[DUEL] Epoch ended. INSTR misses = 20, DATA misses = 5. Winner = DATA
[DUEL] Epoch ended. INSTR misses = 35, DATA misses = 18. Winner = DATA
[DUEL] Epoch ended. INSTR misses = 24, DATA misses = 20. Winner = DATA
[DUEL] Epoch ended. INSTR misses = 14, DATA misses = 18. Winner = INSTR
[DUEL] Epoch ended. INSTR misses = 45, DATA misses = 28. Winner = DATA
[DUEL] Epoch ended. INSTR misses = 35, DATA misses = 41. Winner = INSTR
[DUEL] Epoch ended. INSTR misses = 32, DATA misses = 26. Winner = DATA
[DUEL] Epoch ended. INSTR misses = 31, DATA misses = 25. Winner = DATA
[DUEL] Epoch ended. INSTR misses = 0, DATA misses = 0. Winner = INSTR
[DUEL] Epoch ended. INSTR misses = 1, DATA misses = 0. Winner = DATA
[DUEL] Epoch ended. INSTR misses = 15, DATA misses = 12. Winner = DATA
[DUEL] Epoch ended. INSTR misses = 28, DATA misses = 17. Winner = DATA
[DUEL] Epoch ended. INSTR misses = 15, DATA misses = 14. Winner = DATA
[DUEL] Epoch ended. INSTR misses = 25, DATA misses = 28. Winner = INSTR
[DUEL] Epoch ended. INSTR misses = 18, DATA misses = 17. Winner = DATA
[DUEL] Epoch ended. INSTR misses = 14, DATA misses = 27. Winner = INSTR
[DUEL] Epoch ended. INSTR misses = 17, DATA misses = 22. Winner = INSTR
Heartbeat CPU 0 instructions: 130000008 cycles: 33294667 heartbeat IPC: 3.784 cumulative IPC: 3.552 (Simulation time: 00 hr 07 min 08 sec)
Simulation finished CPU 0 instructions: 100000006 cycles: 28155442 cumulative IPC: 3.552 (Simulation time: 00 hr 07 min 08 sec)
Simulation complete CPU 0 instructions: 100000006 cycles: 28155442 cumulative IPC: 3.552 (Simulation time: 00 hr 07 min 08 sec)

ChampSim completed all CPUs

=== Simulation ===
CPU 0 runs ../traces/public_traces/compute_fp/compute_fp_6.champsimtrace.xz
Region of Interest Statistics

CPU 0 cumulative IPC: 3.552 instructions: 100000006 cycles: 28155442
CPU 0 Branch Prediction Accuracy: 98.5% MPKI: 1.002 Average ROB Occupancy at Mispredict: 98.11
Branch type MPKI
BRANCH_DIRECT_JUMP: 0
BRANCH_INDIRECT: 0.577
BRANCH_CONDITIONAL: 0.425
BRANCH_DIRECT_CALL: 0
BRANCH_INDIRECT_CALL: 0
BRANCH_RETURN: 0

LLC TOTAL        ACCESS:    1587975 HIT:     254712 MISS:    1333263
LLC LOAD         ACCESS:     148121 HIT:      35349 MISS:     112772
LLC RFO          ACCESS:      36710 HIT:      22030 MISS:      14680
LLC PREFETCH     ACCESS:    1322653 HIT:     142913 MISS:    1179740
LLC WRITE        ACCESS:      72497 HIT:      52291 MISS:      20206
LLC TRANSLATION  ACCESS:       7994 HIT:       2129 MISS:       5865
LLC PREFETCH REQUESTED:          0 ISSUED:          0 USEFUL:          0 USELESS:          0
LLC AVERAGE MISS LATENCY: 229.6 cycles
cpu0_DTLB TOTAL        ACCESS:   18514146 HIT:   18336109 MISS:     178037
cpu0_DTLB LOAD         ACCESS:   18514146 HIT:   18336109 MISS:     178037
cpu0_DTLB RFO          ACCESS:          0 HIT:          0 MISS:          0
cpu0_DTLB PREFETCH     ACCESS:          0 HIT:          0 MISS:          0
cpu0_DTLB WRITE        ACCESS:          0 HIT:          0 MISS:          0
cpu0_DTLB TRANSLATION  ACCESS:          0 HIT:          0 MISS:          0
cpu0_DTLB PREFETCH REQUESTED:          0 ISSUED:          0 USEFUL:          0 USELESS:          0
cpu0_DTLB AVERAGE MISS LATENCY: 12.63 cycles
cpu0_ITLB TOTAL        ACCESS:      61916 HIT:      61916 MISS:          0
cpu0_ITLB LOAD         ACCESS:      61916 HIT:      61916 MISS:          0
cpu0_ITLB RFO          ACCESS:          0 HIT:          0 MISS:          0
cpu0_ITLB PREFETCH     ACCESS:          0 HIT:          0 MISS:          0
cpu0_ITLB WRITE        ACCESS:          0 HIT:          0 MISS:          0
cpu0_ITLB TRANSLATION  ACCESS:          0 HIT:          0 MISS:          0
cpu0_ITLB PREFETCH REQUESTED:          0 ISSUED:          0 USEFUL:          0 USELESS:          0
cpu0_ITLB AVERAGE MISS LATENCY: -nan cycles
cpu0_L1D TOTAL        ACCESS:   39099945 HIT:   31342099 MISS:    7757846
cpu0_L1D LOAD         ACCESS:   19302200 HIT:   17403163 MISS:    1899037
cpu0_L1D RFO          ACCESS:          0 HIT:          0 MISS:          0
cpu0_L1D PREFETCH     ACCESS:   18281209 HIT:   12546681 MISS:    5734528
cpu0_L1D WRITE        ACCESS:    1480669 HIT:    1378230 MISS:     102439
cpu0_L1D TRANSLATION  ACCESS:      35867 HIT:      14025 MISS:      21842
cpu0_L1D PREFETCH REQUESTED:   79517881 ISSUED:   18281218 USEFUL:     797735 USELESS:     173609
cpu0_L1D AVERAGE MISS LATENCY: 17.85 cycles
cpu0_L1I TOTAL        ACCESS:      89656 HIT:      84461 MISS:       5195
cpu0_L1I LOAD         ACCESS:      44656 HIT:      42686 MISS:       1970
cpu0_L1I RFO          ACCESS:          0 HIT:          0 MISS:          0
cpu0_L1I PREFETCH     ACCESS:      45000 HIT:      41775 MISS:       3225
cpu0_L1I WRITE        ACCESS:          0 HIT:          0 MISS:          0
cpu0_L1I TRANSLATION  ACCESS:          0 HIT:          0 MISS:          0
cpu0_L1I PREFETCH REQUESTED:      55873 ISSUED:      45000 USEFUL:       2692 USELESS:         62
cpu0_L1I AVERAGE MISS LATENCY: 201.2 cycles
cpu0_L2C TOTAL        ACCESS:   10773436 HIT:    5272521 MISS:    5500915
cpu0_L2C LOAD         ACCESS:     702537 HIT:     508325 MISS:     194212
cpu0_L2C RFO          ACCESS:      56139 HIT:      19404 MISS:      36735
cpu0_L2C PREFETCH     ACCESS:    9887576 HIT:    4625676 MISS:    5261900
cpu0_L2C WRITE        ACCESS:     105569 HIT:     105495 MISS:         74
cpu0_L2C TRANSLATION  ACCESS:      21615 HIT:      13621 MISS:       7994
cpu0_L2C PREFETCH REQUESTED:    5778389 ISSUED:    4843202 USEFUL:     404253 USELESS:     341153
cpu0_L2C AVERAGE MISS LATENCY: 60.26 cycles
cpu0_STLB TOTAL        ACCESS:      71622 HIT:      35831 MISS:      35791
cpu0_STLB LOAD         ACCESS:      71622 HIT:      35831 MISS:      35791
cpu0_STLB RFO          ACCESS:          0 HIT:          0 MISS:          0
cpu0_STLB PREFETCH     ACCESS:          0 HIT:          0 MISS:          0
cpu0_STLB WRITE        ACCESS:          0 HIT:          0 MISS:          0
cpu0_STLB TRANSLATION  ACCESS:          0 HIT:          0 MISS:          0
cpu0_STLB PREFETCH REQUESTED:          0 ISSUED:          0 USEFUL:          0 USELESS:          0
cpu0_STLB AVERAGE MISS LATENCY: 79.56 cycles

DRAM Statistics

Channel 0 RQ ROW_BUFFER_HIT:     470586
  ROW_BUFFER_MISS:     188359
 AVG DBUS CONGESTED CYCLE: 3.908
WQ ROW_BUFFER_HIT: Channel 0 
  ROW_BUFFER_MISS:       1919
  FULL:      13625

Channel 1 RQ ROW_BUFFER_HIT:     469295
  ROW_BUFFER_MISS:     184700
 AVG DBUS CONGESTED CYCLE: 3.904
WQ ROW_BUFFER_HIT: Channel 1 
  ROW_BUFFER_MISS:       2211
  FULL:      13542
BERTI TO_L1: 52616876 TO_L2: 55680965 TO_L2_BC_MSHR: 3841907
BERTI AVG_LAT: 90.8004 NUM_TRACK_LATENCY: 2158293 NUM_CANT_TRACK_LATENCY: 0
BERTI CROSS_PAGE 24193810 NO_CROSS_PAGE: 84104031
BERTI FOUND_BERTI: 17601467 NO_FOUND_BERTI: 8070801
BERTI AVERAGE_ISSUED: 2.45244
CPU 0 L1I Entangling prefetcher final stats
IP accesses: cb 32c0 1691 / 50140
IP misses: 784 1e100 350 / 7454
IP hits: 0 0 0 / 0
IP late: 3847 e11c0 9 / 1074
IP wrong: 202 8080 6 / 62
miss rate: 0.148664
coverage: 0
coverage_late: 0.144084
accuracy: 0
accuracy_late: 0.945423
discarded: 0
evicts entangled j table: 0
evicts entangled k table: 87
max bb size: 13
formats: 31 0 63 34 40 45 0 
hist_lookups: 24 35 32 55 51 37 44 45 35 32 19 15 17 8 2 0 9 1257 
hist_lookups_evict: 0.524171 %
hist_lookups_shortlat: 73.2091 %
bb_found_hist: 0 4594 2005 758 653 165 552 93 72 67 0 9 57 149 0 0 0 0 0 0 0 0 0 0 0 0 0 0 0 0 0 0 0 0 0 0 0 0 0 0 0 0 0 0 0 0 0 0 0 0 0 0 0 0 0 0 0 0 0 0 0 0 0 0 
bb_found_summary: 22177 9174 2.41738
entangled_found_hist: 0 1858 1744 1596 242 485 121 0 
entangled_found_summary: 14253 6046 2.35743
bb_ent_found_hist: 0 3837 2590 1048 616 114 281 498 170 75 0 7 9 0 0 0 0 0 0 0 0 0 0 0 0 0 0 0 0 0 0 0 0 0 0 0 0 0 0 0 0 0 0 0 0 0 0 0 0 0 0 0 0 0 0 0 0 0 0 0 0 0 0 0 
bb_ent_found_summary: 22587 9245 2.44316
