WARNING: physical memory size is smaller than virtual memory size.

*** ChampSim Multicore Out-of-Order Simulator ***
Warmup Instructions: 30000000
Simulation Instructions: 100000000
Number of CPUs: 1
Page size: 4096

BTB:
Basic BTB sets: 1024 ways: 8
Indirect:
history lengths: 0 0 10 16 27 44 60 96 109 219 449 487 714 1313 2146 3881 
ITTAGE tables: 64768 bytes;Region table: 240 bytes;IUM: 384 bytes;Total Storage= 65392 bytes;
RAS:
RAS size: 64
[LLC] INSTR Demand IPV: 1 2 2 1 4 Prefetch IPV: 1 2 1 1 4
[LLC] DATA  Demand IPV: 1 1 1 2 4 Prefetch IPV: 1 1 2 2 4
Berti Prefetcher
CPU 0 Entangling prefetcher
Off-chip DRAM Size: 8 GiB Channels: 2 Width: 64-bit Data Race: 6400 MT/s
[DUEL] Epoch ended. INSTR misses = 81, DATA misses = 68. Winner = DATA
[DUEL] Epoch ended. INSTR misses = 80, DATA misses = 80. Winner = INSTR
[DUEL] Epoch ended. INSTR misses = 79, DATA misses = 80. Winner = INSTR
[DUEL] Epoch ended. INSTR misses = 64, DATA misses = 64. Winner = INSTR
[DUEL] Epoch ended. INSTR misses = 80, DATA misses = 80. Winner = INSTR
[DUEL] Epoch ended. INSTR misses = 64, DATA misses = 70. Winner = INSTR
[DUEL] Epoch ended. INSTR misses = 11, DATA misses = 0. Winner = DATA
[DUEL] Epoch ended. INSTR misses = 51, DATA misses = 67. Winner = INSTR
[DUEL] Epoch ended. INSTR misses = 107, DATA misses = 114. Winner = INSTR
[DUEL] Epoch ended. INSTR misses = 80, DATA misses = 81. Winner = INSTR
[DUEL] Epoch ended. INSTR misses = 80, DATA misses = 80. Winner = INSTR
[DUEL] Epoch ended. INSTR misses = 80, DATA misses = 80. Winner = INSTR
[DUEL] Epoch ended. INSTR misses = 63, DATA misses = 61. Winner = DATA
[DUEL] Epoch ended. INSTR misses = 80, DATA misses = 80. Winner = INSTR
[DUEL] Epoch ended. INSTR misses = 68, DATA misses = 61. Winner = DATA
[DUEL] Epoch ended. INSTR misses = 83, DATA misses = 79. Winner = DATA
[DUEL] Epoch ended. INSTR misses = 49, DATA misses = 51. Winner = INSTR
[DUEL] Epoch ended. INSTR misses = 72, DATA misses = 48. Winner = DATA
[DUEL] Epoch ended. INSTR misses = 86, DATA misses = 82. Winner = DATA
Heartbeat CPU 0 instructions: 10000009 cycles: 2055552 heartbeat IPC: 4.865 cumulative IPC: 4.865 (Simulation time: 00 hr 00 min 28 sec)
[DUEL] Epoch ended. INSTR misses = 74, DATA misses = 76. Winner = INSTR
[DUEL] Epoch ended. INSTR misses = 80, DATA misses = 80. Winner = INSTR
[DUEL] Epoch ended. INSTR misses = 80, DATA misses = 80. Winner = INSTR
[DUEL] Epoch ended. INSTR misses = 80, DATA misses = 66. Winner = DATA
[DUEL] Epoch ended. INSTR misses = 80, DATA misses = 80. Winner = INSTR
[DUEL] Epoch ended. INSTR misses = 80, DATA misses = 72. Winner = DATA
[DUEL] Epoch ended. INSTR misses = 73, DATA misses = 71. Winner = DATA
[DUEL] Epoch ended. INSTR misses = 13, DATA misses = 10. Winner = DATA
[DUEL] Epoch ended. INSTR misses = 15, DATA misses = 19. Winner = INSTR
[DUEL] Epoch ended. INSTR misses = 46, DATA misses = 72. Winner = INSTR
[DUEL] Epoch ended. INSTR misses = 174, DATA misses = 159. Winner = DATA
[DUEL] Epoch ended. INSTR misses = 177, DATA misses = 147. Winner = DATA
[DUEL] Epoch ended. INSTR misses = 88, DATA misses = 121. Winner = INSTR
[DUEL] Epoch ended. INSTR misses = 131, DATA misses = 123. Winner = DATA
[DUEL] Epoch ended. INSTR misses = 170, DATA misses = 147. Winner = DATA
[DUEL] Epoch ended. INSTR misses = 170, DATA misses = 186. Winner = INSTR
[DUEL] Epoch ended. INSTR misses = 133, DATA misses = 186. Winner = INSTR
[DUEL] Epoch ended. INSTR misses = 127, DATA misses = 114. Winner = DATA
[DUEL] Epoch ended. INSTR misses = 139, DATA misses = 124. Winner = DATA
[DUEL] Epoch ended. INSTR misses = 96, DATA misses = 90. Winner = DATA
Heartbeat CPU 0 instructions: 20000006 cycles: 3870780 heartbeat IPC: 5.509 cumulative IPC: 5.167 (Simulation time: 00 hr 00 min 56 sec)
[DUEL] Epoch ended. INSTR misses = 185, DATA misses = 208. Winner = INSTR
[DUEL] Epoch ended. INSTR misses = 139, DATA misses = 106. Winner = DATA
[DUEL] Epoch ended. INSTR misses = 150, DATA misses = 144. Winner = DATA
[DUEL] Epoch ended. INSTR misses = 70, DATA misses = 100. Winner = INSTR
[DUEL] Epoch ended. INSTR misses = 140, DATA misses = 128. Winner = DATA
[DUEL] Epoch ended. INSTR misses = 156, DATA misses = 139. Winner = DATA
[DUEL] Epoch ended. INSTR misses = 132, DATA misses = 125. Winner = DATA
[DUEL] Epoch ended. INSTR misses = 146, DATA misses = 140. Winner = DATA
[DUEL] Epoch ended. INSTR misses = 163, DATA misses = 143. Winner = DATA
[DUEL] Epoch ended. INSTR misses = 134, DATA misses = 121. Winner = DATA
[DUEL] Epoch ended. INSTR misses = 124, DATA misses = 138. Winner = INSTR
[DUEL] Epoch ended. INSTR misses = 173, DATA misses = 178. Winner = INSTR
[DUEL] Epoch ended. INSTR misses = 137, DATA misses = 136. Winner = DATA
[DUEL] Epoch ended. INSTR misses = 148, DATA misses = 147. Winner = DATA
[DUEL] Epoch ended. INSTR misses = 118, DATA misses = 131. Winner = INSTR
[DUEL] Epoch ended. INSTR misses = 128, DATA misses = 132. Winner = INSTR
[DUEL] Epoch ended. INSTR misses = 156, DATA misses = 154. Winner = DATA
[DUEL] Epoch ended. INSTR misses = 120, DATA misses = 123. Winner = INSTR
[DUEL] Epoch ended. INSTR misses = 31, DATA misses = 31. Winner = INSTR
Heartbeat CPU 0 instructions: 30000005 cycles: 5587012 heartbeat IPC: 5.827 cumulative IPC: 5.37 (Simulation time: 00 hr 01 min 25 sec)
Warmup finished CPU 0 instructions: 30000005 cycles: 5587013 cumulative IPC: 5.37 (Simulation time: 00 hr 01 min 25 sec)
Warmup complete CPU 0 instructions: 30000005 cycles: 5587013 cumulative IPC: 5.37 (Simulation time: 00 hr 01 min 25 sec)
*** Reached end of trace: (0, "../traces/public_traces/compute_fp/compute_fp_1.champsimtrace.xz")
[DUEL] Epoch ended. INSTR misses = 49, DATA misses = 50. Winner = INSTR
[DUEL] Epoch ended. INSTR misses = 80, DATA misses = 86. Winner = INSTR
[DUEL] Epoch ended. INSTR misses = 80, DATA misses = 69. Winner = DATA
[DUEL] Epoch ended. INSTR misses = 79, DATA misses = 80. Winner = INSTR
[DUEL] Epoch ended. INSTR misses = 80, DATA misses = 80. Winner = INSTR
[DUEL] Epoch ended. INSTR misses = 80, DATA misses = 72. Winner = DATA
[DUEL] Epoch ended. INSTR misses = 43, DATA misses = 43. Winner = INSTR
[DUEL] Epoch ended. INSTR misses = 1, DATA misses = 0. Winner = DATA
[DUEL] Epoch ended. INSTR misses = 97, DATA misses = 102. Winner = INSTR
[DUEL] Epoch ended. INSTR misses = 91, DATA misses = 116. Winner = INSTR
[DUEL] Epoch ended. INSTR misses = 80, DATA misses = 81. Winner = INSTR
[DUEL] Epoch ended. INSTR misses = 80, DATA misses = 80. Winner = INSTR
[DUEL] Epoch ended. INSTR misses = 80, DATA misses = 80. Winner = INSTR
[DUEL] Epoch ended. INSTR misses = 80, DATA misses = 80. Winner = INSTR
[DUEL] Epoch ended. INSTR misses = 80, DATA misses = 80. Winner = INSTR
[DUEL] Epoch ended. INSTR misses = 71, DATA misses = 65. Winner = DATA
[DUEL] Epoch ended. INSTR misses = 66, DATA misses = 69. Winner = INSTR
[DUEL] Epoch ended. INSTR misses = 56, DATA misses = 59. Winner = INSTR
[DUEL] Epoch ended. INSTR misses = 82, DATA misses = 64. Winner = DATA
[DUEL] Epoch ended. INSTR misses = 80, DATA misses = 68. Winner = DATA
Heartbeat CPU 0 instructions: 40000002 cycles: 12337744 heartbeat IPC: 1.481 cumulative IPC: 1.481 (Simulation time: 00 hr 02 min 19 sec)
[DUEL] Epoch ended. INSTR misses = 78, DATA misses = 80. Winner = INSTR
[DUEL] Epoch ended. INSTR misses = 80, DATA misses = 80. Winner = INSTR
[DUEL] Epoch ended. INSTR misses = 80, DATA misses = 80. Winner = INSTR
[DUEL] Epoch ended. INSTR misses = 80, DATA misses = 77. Winner = DATA
[DUEL] Epoch ended. INSTR misses = 80, DATA misses = 80. Winner = INSTR
[DUEL] Epoch ended. INSTR misses = 80, DATA misses = 76. Winner = DATA
[DUEL] Epoch ended. INSTR misses = 63, DATA misses = 66. Winner = INSTR
[DUEL] Epoch ended. INSTR misses = 15, DATA misses = 9. Winner = DATA
[DUEL] Epoch ended. INSTR misses = 15, DATA misses = 20. Winner = INSTR
[DUEL] Epoch ended. INSTR misses = 69, DATA misses = 84. Winner = INSTR
[DUEL] Epoch ended. INSTR misses = 184, DATA misses = 160. Winner = DATA
[DUEL] Epoch ended. INSTR misses = 148, DATA misses = 121. Winner = DATA
[DUEL] Epoch ended. INSTR misses = 90, DATA misses = 117. Winner = INSTR
[DUEL] Epoch ended. INSTR misses = 188, DATA misses = 149. Winner = DATA
[DUEL] Epoch ended. INSTR misses = 169, DATA misses = 140. Winner = DATA
[DUEL] Epoch ended. INSTR misses = 160, DATA misses = 157. Winner = DATA
[DUEL] Epoch ended. INSTR misses = 100, DATA misses = 117. Winner = INSTR
[DUEL] Epoch ended. INSTR misses = 150, DATA misses = 161. Winner = INSTR
[DUEL] Epoch ended. INSTR misses = 98, DATA misses = 78. Winner = DATA
Heartbeat CPU 0 instructions: 50000011 cycles: 23139939 heartbeat IPC: 0.9257 cumulative IPC: 1.139 (Simulation time: 00 hr 03 min 51 sec)
[DUEL] Epoch ended. INSTR misses = 125, DATA misses = 136. Winner = INSTR
[DUEL] Epoch ended. INSTR misses = 171, DATA misses = 180. Winner = INSTR
[DUEL] Epoch ended. INSTR misses = 139, DATA misses = 123. Winner = DATA
[DUEL] Epoch ended. INSTR misses = 115, DATA misses = 107. Winner = DATA
[DUEL] Epoch ended. INSTR misses = 106, DATA misses = 110. Winner = INSTR
[DUEL] Epoch ended. INSTR misses = 150, DATA misses = 119. Winner = DATA
[DUEL] Epoch ended. INSTR misses = 125, DATA misses = 121. Winner = DATA
[DUEL] Epoch ended. INSTR misses = 136, DATA misses = 123. Winner = DATA
[DUEL] Epoch ended. INSTR misses = 158, DATA misses = 137. Winner = DATA
[DUEL] Epoch ended. INSTR misses = 137, DATA misses = 111. Winner = DATA
[DUEL] Epoch ended. INSTR misses = 122, DATA misses = 131. Winner = INSTR
[DUEL] Epoch ended. INSTR misses = 114, DATA misses = 122. Winner = INSTR
[DUEL] Epoch ended. INSTR misses = 155, DATA misses = 131. Winner = DATA
[DUEL] Epoch ended. INSTR misses = 138, DATA misses = 116. Winner = DATA
[DUEL] Epoch ended. INSTR misses = 148, DATA misses = 147. Winner = DATA
[DUEL] Epoch ended. INSTR misses = 116, DATA misses = 128. Winner = INSTR
[DUEL] Epoch ended. INSTR misses = 129, DATA misses = 122. Winner = DATA
[DUEL] Epoch ended. INSTR misses = 161, DATA misses = 152. Winner = DATA
[DUEL] Epoch ended. INSTR misses = 118, DATA misses = 110. Winner = DATA
[DUEL] Epoch ended. INSTR misses = 14, DATA misses = 17. Winner = INSTR
Heartbeat CPU 0 instructions: 60000002 cycles: 38812120 heartbeat IPC: 0.6381 cumulative IPC: 0.9029 (Simulation time: 00 hr 06 min 08 sec)
*** Reached end of trace: (0, "../traces/public_traces/compute_fp/compute_fp_1.champsimtrace.xz")
[DUEL] Epoch ended. INSTR misses = 49, DATA misses = 59. Winner = INSTR
[DUEL] Epoch ended. INSTR misses = 80, DATA misses = 80. Winner = INSTR
[DUEL] Epoch ended. INSTR misses = 80, DATA misses = 79. Winner = DATA
[DUEL] Epoch ended. INSTR misses = 79, DATA misses = 80. Winner = INSTR
[DUEL] Epoch ended. INSTR misses = 80, DATA misses = 79. Winner = DATA
[DUEL] Epoch ended. INSTR misses = 96, DATA misses = 89. Winner = DATA
[DUEL] Epoch ended. INSTR misses = 11, DATA misses = 15. Winner = INSTR
[DUEL] Epoch ended. INSTR misses = 17, DATA misses = 16. Winner = DATA
[DUEL] Epoch ended. INSTR misses = 122, DATA misses = 145. Winner = INSTR
[DUEL] Epoch ended. INSTR misses = 86, DATA misses = 97. Winner = INSTR
[DUEL] Epoch ended. INSTR misses = 79, DATA misses = 80. Winner = INSTR
[DUEL] Epoch ended. INSTR misses = 80, DATA misses = 80. Winner = INSTR
[DUEL] Epoch ended. INSTR misses = 80, DATA misses = 80. Winner = INSTR
[DUEL] Epoch ended. INSTR misses = 80, DATA misses = 80. Winner = INSTR
[DUEL] Epoch ended. INSTR misses = 79, DATA misses = 79. Winner = INSTR
[DUEL] Epoch ended. INSTR misses = 82, DATA misses = 78. Winner = DATA
[DUEL] Epoch ended. INSTR misses = 71, DATA misses = 74. Winner = INSTR
[DUEL] Epoch ended. INSTR misses = 59, DATA misses = 34. Winner = DATA
[DUEL] Epoch ended. INSTR misses = 76, DATA misses = 80. Winner = INSTR
Heartbeat CPU 0 instructions: 70000002 cycles: 45595878 heartbeat IPC: 1.474 cumulative IPC: 0.9998 (Simulation time: 00 hr 07 min 02 sec)
[DUEL] Epoch ended. INSTR misses = 94, DATA misses = 85. Winner = DATA
[DUEL] Epoch ended. INSTR misses = 80, DATA misses = 80. Winner = INSTR
[DUEL] Epoch ended. INSTR misses = 80, DATA misses = 80. Winner = INSTR
[DUEL] Epoch ended. INSTR misses = 80, DATA misses = 77. Winner = DATA
[DUEL] Epoch ended. INSTR misses = 80, DATA misses = 80. Winner = INSTR
[DUEL] Epoch ended. INSTR misses = 71, DATA misses = 64. Winner = DATA
[DUEL] Epoch ended. INSTR misses = 73, DATA misses = 78. Winner = INSTR
[DUEL] Epoch ended. INSTR misses = 61, DATA misses = 60. Winner = DATA
[DUEL] Epoch ended. INSTR misses = 15, DATA misses = 16. Winner = INSTR
[DUEL] Epoch ended. INSTR misses = 39, DATA misses = 40. Winner = INSTR
[DUEL] Epoch ended. INSTR misses = 143, DATA misses = 122. Winner = DATA
[DUEL] Epoch ended. INSTR misses = 164, DATA misses = 122. Winner = DATA
[DUEL] Epoch ended. INSTR misses = 115, DATA misses = 106. Winner = DATA
[DUEL] Epoch ended. INSTR misses = 150, DATA misses = 138. Winner = DATA
[DUEL] Epoch ended. INSTR misses = 185, DATA misses = 141. Winner = DATA
[DUEL] Epoch ended. INSTR misses = 165, DATA misses = 131. Winner = DATA
[DUEL] Epoch ended. INSTR misses = 160, DATA misses = 179. Winner = INSTR
[DUEL] Epoch ended. INSTR misses = 129, DATA misses = 94. Winner = DATA
[DUEL] Epoch ended. INSTR misses = 121, DATA misses = 138. Winner = INSTR
[DUEL] Epoch ended. INSTR misses = 97, DATA misses = 89. Winner = DATA
Heartbeat CPU 0 instructions: 80000005 cycles: 56237121 heartbeat IPC: 0.9397 cumulative IPC: 0.9872 (Simulation time: 00 hr 08 min 33 sec)
[DUEL] Epoch ended. INSTR misses = 146, DATA misses = 162. Winner = INSTR
[DUEL] Epoch ended. INSTR misses = 163, DATA misses = 146. Winner = DATA
[DUEL] Epoch ended. INSTR misses = 159, DATA misses = 141. Winner = DATA
[DUEL] Epoch ended. INSTR misses = 69, DATA misses = 87. Winner = INSTR
[DUEL] Epoch ended. INSTR misses = 100, DATA misses = 99. Winner = DATA
[DUEL] Epoch ended. INSTR misses = 181, DATA misses = 146. Winner = DATA
[DUEL] Epoch ended. INSTR misses = 126, DATA misses = 116. Winner = DATA
[DUEL] Epoch ended. INSTR misses = 133, DATA misses = 117. Winner = DATA
[DUEL] Epoch ended. INSTR misses = 135, DATA misses = 104. Winner = DATA
[DUEL] Epoch ended. INSTR misses = 138, DATA misses = 115. Winner = DATA
[DUEL] Epoch ended. INSTR misses = 135, DATA misses = 159. Winner = INSTR
[DUEL] Epoch ended. INSTR misses = 136, DATA misses = 135. Winner = DATA
[DUEL] Epoch ended. INSTR misses = 156, DATA misses = 105. Winner = DATA
[DUEL] Epoch ended. INSTR misses = 124, DATA misses = 107. Winner = DATA
[DUEL] Epoch ended. INSTR misses = 142, DATA misses = 139. Winner = DATA
[DUEL] Epoch ended. INSTR misses = 130, DATA misses = 121. Winner = DATA
[DUEL] Epoch ended. INSTR misses = 138, DATA misses = 145. Winner = INSTR
[DUEL] Epoch ended. INSTR misses = 183, DATA misses = 135. Winner = DATA
[DUEL] Epoch ended. INSTR misses = 54, DATA misses = 40. Winner = DATA
Heartbeat CPU 0 instructions: 90000002 cycles: 71434938 heartbeat IPC: 0.658 cumulative IPC: 0.9112 (Simulation time: 00 hr 10 min 47 sec)
[DUEL] Epoch ended. INSTR misses = 16, DATA misses = 23. Winner = INSTR
*** Reached end of trace: (0, "../traces/public_traces/compute_fp/compute_fp_1.champsimtrace.xz")
[DUEL] Epoch ended. INSTR misses = 76, DATA misses = 84. Winner = INSTR
[DUEL] Epoch ended. INSTR misses = 80, DATA misses = 76. Winner = DATA
[DUEL] Epoch ended. INSTR misses = 80, DATA misses = 78. Winner = DATA
[DUEL] Epoch ended. INSTR misses = 80, DATA misses = 80. Winner = INSTR
[DUEL] Epoch ended. INSTR misses = 80, DATA misses = 79. Winner = DATA
[DUEL] Epoch ended. INSTR misses = 64, DATA misses = 66. Winner = INSTR
[DUEL] Epoch ended. INSTR misses = 12, DATA misses = 6. Winner = DATA
[DUEL] Epoch ended. INSTR misses = 57, DATA misses = 69. Winner = INSTR
[DUEL] Epoch ended. INSTR misses = 122, DATA misses = 152. Winner = INSTR
[DUEL] Epoch ended. INSTR misses = 85, DATA misses = 79. Winner = DATA
[DUEL] Epoch ended. INSTR misses = 80, DATA misses = 80. Winner = INSTR
[DUEL] Epoch ended. INSTR misses = 80, DATA misses = 80. Winner = INSTR
[DUEL] Epoch ended. INSTR misses = 80, DATA misses = 80. Winner = INSTR
[DUEL] Epoch ended. INSTR misses = 80, DATA misses = 80. Winner = INSTR
[DUEL] Epoch ended. INSTR misses = 78, DATA misses = 73. Winner = DATA
[DUEL] Epoch ended. INSTR misses = 68, DATA misses = 65. Winner = DATA
[DUEL] Epoch ended. INSTR misses = 74, DATA misses = 79. Winner = INSTR
[DUEL] Epoch ended. INSTR misses = 75, DATA misses = 49. Winner = DATA
[DUEL] Epoch ended. INSTR misses = 76, DATA misses = 80. Winner = INSTR
Heartbeat CPU 0 instructions: 100000001 cycles: 78094706 heartbeat IPC: 1.502 cumulative IPC: 0.9654 (Simulation time: 00 hr 11 min 40 sec)
[DUEL] Epoch ended. INSTR misses = 96, DATA misses = 88. Winner = DATA
[DUEL] Epoch ended. INSTR misses = 80, DATA misses = 80. Winner = INSTR
[DUEL] Epoch ended. INSTR misses = 80, DATA misses = 80. Winner = INSTR
[DUEL] Epoch ended. INSTR misses = 79, DATA misses = 59. Winner = DATA
[DUEL] Epoch ended. INSTR misses = 78, DATA misses = 80. Winner = INSTR
[DUEL] Epoch ended. INSTR misses = 67, DATA misses = 79. Winner = INSTR
[DUEL] Epoch ended. INSTR misses = 93, DATA misses = 97. Winner = INSTR
[DUEL] Epoch ended. INSTR misses = 15, DATA misses = 11. Winner = DATA
[DUEL] Epoch ended. INSTR misses = 15, DATA misses = 16. Winner = INSTR
[DUEL] Epoch ended. INSTR misses = 46, DATA misses = 43. Winner = DATA
[DUEL] Epoch ended. INSTR misses = 174, DATA misses = 154. Winner = DATA
[DUEL] Epoch ended. INSTR misses = 159, DATA misses = 125. Winner = DATA
[DUEL] Epoch ended. INSTR misses = 75, DATA misses = 99. Winner = INSTR
[DUEL] Epoch ended. INSTR misses = 165, DATA misses = 130. Winner = DATA
[DUEL] Epoch ended. INSTR misses = 181, DATA misses = 130. Winner = DATA
[DUEL] Epoch ended. INSTR misses = 169, DATA misses = 157. Winner = DATA
[DUEL] Epoch ended. INSTR misses = 156, DATA misses = 162. Winner = INSTR
[DUEL] Epoch ended. INSTR misses = 123, DATA misses = 107. Winner = DATA
[DUEL] Epoch ended. INSTR misses = 117, DATA misses = 118. Winner = INSTR
Heartbeat CPU 0 instructions: 110000007 cycles: 88811201 heartbeat IPC: 0.9331 cumulative IPC: 0.9613 (Simulation time: 00 hr 13 min 12 sec)
[DUEL] Epoch ended. INSTR misses = 110, DATA misses = 111. Winner = INSTR
[DUEL] Epoch ended. INSTR misses = 152, DATA misses = 154. Winner = INSTR
[DUEL] Epoch ended. INSTR misses = 160, DATA misses = 136. Winner = DATA
[DUEL] Epoch ended. INSTR misses = 136, DATA misses = 122. Winner = DATA
[DUEL] Epoch ended. INSTR misses = 67, DATA misses = 88. Winner = INSTR
[DUEL] Epoch ended. INSTR misses = 132, DATA misses = 117. Winner = DATA
[DUEL] Epoch ended. INSTR misses = 175, DATA misses = 130. Winner = DATA
[DUEL] Epoch ended. INSTR misses = 113, DATA misses = 110. Winner = DATA
[DUEL] Epoch ended. INSTR misses = 146, DATA misses = 116. Winner = DATA
[DUEL] Epoch ended. INSTR misses = 118, DATA misses = 96. Winner = DATA
[DUEL] Epoch ended. INSTR misses = 158, DATA misses = 136. Winner = DATA
[DUEL] Epoch ended. INSTR misses = 107, DATA misses = 122. Winner = INSTR
[DUEL] Epoch ended. INSTR misses = 161, DATA misses = 130. Winner = DATA
[DUEL] Epoch ended. INSTR misses = 148, DATA misses = 119. Winner = DATA
[DUEL] Epoch ended. INSTR misses = 148, DATA misses = 129. Winner = DATA
[DUEL] Epoch ended. INSTR misses = 111, DATA misses = 119. Winner = INSTR
[DUEL] Epoch ended. INSTR misses = 139, DATA misses = 126. Winner = DATA
[DUEL] Epoch ended. INSTR misses = 150, DATA misses = 145. Winner = DATA
[DUEL] Epoch ended. INSTR misses = 127, DATA misses = 114. Winner = DATA
[DUEL] Epoch ended. INSTR misses = 32, DATA misses = 28. Winner = DATA
Heartbeat CPU 0 instructions: 120000005 cycles: 104209326 heartbeat IPC: 0.6494 cumulative IPC: 0.9126 (Simulation time: 00 hr 15 min 27 sec)
*** Reached end of trace: (0, "../traces/public_traces/compute_fp/compute_fp_1.champsimtrace.xz")
[DUEL] Epoch ended. INSTR misses = 43, DATA misses = 48. Winner = INSTR
[DUEL] Epoch ended. INSTR misses = 81, DATA misses = 86. Winner = INSTR
[DUEL] Epoch ended. INSTR misses = 80, DATA misses = 72. Winner = DATA
[DUEL] Epoch ended. INSTR misses = 80, DATA misses = 80. Winner = INSTR
[DUEL] Epoch ended. INSTR misses = 64, DATA misses = 64. Winner = INSTR
[DUEL] Epoch ended. INSTR misses = 80, DATA misses = 79. Winner = DATA
[DUEL] Epoch ended. INSTR misses = 59, DATA misses = 50. Winner = DATA
[DUEL] Epoch ended. INSTR misses = 1, DATA misses = 6. Winner = INSTR
[DUEL] Epoch ended. INSTR misses = 89, DATA misses = 110. Winner = INSTR
[DUEL] Epoch ended. INSTR misses = 94, DATA misses = 115. Winner = INSTR
[DUEL] Epoch ended. INSTR misses = 80, DATA misses = 83. Winner = INSTR
[DUEL] Epoch ended. INSTR misses = 80, DATA misses = 80. Winner = INSTR
[DUEL] Epoch ended. INSTR misses = 80, DATA misses = 80. Winner = INSTR
[DUEL] Epoch ended. INSTR misses = 80, DATA misses = 80. Winner = INSTR
[DUEL] Epoch ended. INSTR misses = 80, DATA misses = 80. Winner = INSTR
[DUEL] Epoch ended. INSTR misses = 71, DATA misses = 65. Winner = DATA
[DUEL] Epoch ended. INSTR misses = 71, DATA misses = 71. Winner = INSTR
[DUEL] Epoch ended. INSTR misses = 56, DATA misses = 60. Winner = INSTR
[DUEL] Epoch ended. INSTR misses = 83, DATA misses = 65. Winner = DATA
Heartbeat CPU 0 instructions: 130000001 cycles: 110858708 heartbeat IPC: 1.504 cumulative IPC: 0.9499 (Simulation time: 00 hr 16 min 20 sec)
Simulation finished CPU 0 instructions: 100000002 cycles: 105271698 cumulative IPC: 0.9499 (Simulation time: 00 hr 16 min 20 sec)
Simulation complete CPU 0 instructions: 100000002 cycles: 105271698 cumulative IPC: 0.9499 (Simulation time: 00 hr 16 min 20 sec)

ChampSim completed all CPUs

=== Simulation ===
CPU 0 runs ../traces/public_traces/compute_fp/compute_fp_1.champsimtrace.xz
Region of Interest Statistics

CPU 0 cumulative IPC: 0.9499 instructions: 100000002 cycles: 105271698
CPU 0 Branch Prediction Accuracy: 95.94% MPKI: 6.03 Average ROB Occupancy at Mispredict: 37.48
Branch type MPKI
BRANCH_DIRECT_JUMP: 0
BRANCH_INDIRECT: 0.158
BRANCH_CONDITIONAL: 5.87
BRANCH_DIRECT_CALL: 0
BRANCH_INDIRECT_CALL: 3e-05
BRANCH_RETURN: 4e-05

LLC TOTAL        ACCESS:    7168257 HIT:    1825713 MISS:    5342544
LLC LOAD         ACCESS:    1302526 HIT:     502439 MISS:     800087
LLC RFO          ACCESS:      31871 HIT:       5336 MISS:      26535
LLC PREFETCH     ACCESS:    4263963 HIT:     545758 MISS:    3718205
LLC WRITE        ACCESS:    1545272 HIT:     770098 MISS:     775174
LLC TRANSLATION  ACCESS:      24625 HIT:       2082 MISS:      22543
LLC PREFETCH REQUESTED:          0 ISSUED:          0 USEFUL:          0 USELESS:          0
LLC AVERAGE MISS LATENCY: 338.8 cycles
cpu0_DTLB TOTAL        ACCESS:   26918461 HIT:   26130735 MISS:     787726
cpu0_DTLB LOAD         ACCESS:   26918461 HIT:   26130735 MISS:     787726
cpu0_DTLB RFO          ACCESS:          0 HIT:          0 MISS:          0
cpu0_DTLB PREFETCH     ACCESS:          0 HIT:          0 MISS:          0
cpu0_DTLB WRITE        ACCESS:          0 HIT:          0 MISS:          0
cpu0_DTLB TRANSLATION  ACCESS:          0 HIT:          0 MISS:          0
cpu0_DTLB PREFETCH REQUESTED:          0 ISSUED:          0 USEFUL:          0 USELESS:          0
cpu0_DTLB AVERAGE MISS LATENCY: 21.08 cycles
cpu0_ITLB TOTAL        ACCESS:      13322 HIT:      13322 MISS:          0
cpu0_ITLB LOAD         ACCESS:      13322 HIT:      13322 MISS:          0
cpu0_ITLB RFO          ACCESS:          0 HIT:          0 MISS:          0
cpu0_ITLB PREFETCH     ACCESS:          0 HIT:          0 MISS:          0
cpu0_ITLB WRITE        ACCESS:          0 HIT:          0 MISS:          0
cpu0_ITLB TRANSLATION  ACCESS:          0 HIT:          0 MISS:          0
cpu0_ITLB PREFETCH REQUESTED:          0 ISSUED:          0 USEFUL:          0 USELESS:          0
cpu0_ITLB AVERAGE MISS LATENCY: -nan cycles
cpu0_L1D TOTAL        ACCESS:   58043225 HIT:   40393152 MISS:   17650073
cpu0_L1D LOAD         ACCESS:   17539994 HIT:    9884960 MISS:    7655034
cpu0_L1D RFO          ACCESS:          0 HIT:          0 MISS:          0
cpu0_L1D PREFETCH     ACCESS:   33683803 HIT:   24015185 MISS:    9668618
cpu0_L1D WRITE        ACCESS:    6733011 HIT:    6446592 MISS:     286419
cpu0_L1D TRANSLATION  ACCESS:      86417 HIT:      46415 MISS:      40002
cpu0_L1D PREFETCH REQUESTED:  149167979 ISSUED:   33683812 USEFUL:    1761672 USELESS:     228234
cpu0_L1D AVERAGE MISS LATENCY: 58.88 cycles
cpu0_L1I TOTAL        ACCESS:      19393 HIT:      15937 MISS:       3456
cpu0_L1I LOAD         ACCESS:       8902 HIT:       7483 MISS:       1419
cpu0_L1I RFO          ACCESS:          0 HIT:          0 MISS:          0
cpu0_L1I PREFETCH     ACCESS:      10491 HIT:       8454 MISS:       2037
cpu0_L1I WRITE        ACCESS:          0 HIT:          0 MISS:          0
cpu0_L1I TRANSLATION  ACCESS:          0 HIT:          0 MISS:          0
cpu0_L1I PREFETCH REQUESTED:      12587 ISSUED:      10491 USEFUL:       1724 USELESS:         29
cpu0_L1I AVERAGE MISS LATENCY: 232.9 cycles
cpu0_L2C TOTAL        ACCESS:   22742173 HIT:    6490473 MISS:   16251700
cpu0_L2C LOAD         ACCESS:    3033416 HIT:     895153 MISS:    2138263
cpu0_L2C RFO          ACCESS:      53092 HIT:      21218 MISS:      31874
cpu0_L2C PREFETCH     ACCESS:   17814757 HIT:    3757819 MISS:   14056938
cpu0_L2C WRITE        ACCESS:    1801273 HIT:    1801273 MISS:          0
cpu0_L2C TRANSLATION  ACCESS:      39635 HIT:      15010 MISS:      24625
cpu0_L2C PREFETCH REQUESTED:   10836239 ISSUED:   10210102 USEFUL:    1091868 USELESS:    1409015
cpu0_L2C AVERAGE MISS LATENCY: 109.9 cycles
cpu0_STLB TOTAL        ACCESS:     369462 HIT:     284619 MISS:      84843
cpu0_STLB LOAD         ACCESS:     369462 HIT:     284619 MISS:      84843
cpu0_STLB RFO          ACCESS:          0 HIT:          0 MISS:          0
cpu0_STLB PREFETCH     ACCESS:          0 HIT:          0 MISS:          0
cpu0_STLB WRITE        ACCESS:          0 HIT:          0 MISS:          0
cpu0_STLB TRANSLATION  ACCESS:          0 HIT:          0 MISS:          0
cpu0_STLB PREFETCH REQUESTED:          0 ISSUED:          0 USEFUL:          0 USELESS:          0
cpu0_STLB AVERAGE MISS LATENCY: 210.1 cycles

DRAM Statistics

Channel 0 RQ ROW_BUFFER_HIT:    1120681
  ROW_BUFFER_MISS:    1167401
 AVG DBUS CONGESTED CYCLE: 3.949
WQ ROW_BUFFER_HIT: Channel 0 
  ROW_BUFFER_MISS:      12082
  FULL:     418559

Channel 1 RQ ROW_BUFFER_HIT:    1121967
  ROW_BUFFER_MISS:    1154505
 AVG DBUS CONGESTED CYCLE: 3.944
WQ ROW_BUFFER_HIT: Channel 1 
  ROW_BUFFER_MISS:      13003
  FULL:     418759
BERTI TO_L1: 62447462 TO_L2: 117052416 TO_L2_BC_MSHR: 53224222
BERTI AVG_LAT: 216.68 NUM_TRACK_LATENCY: 6569561 NUM_CANT_TRACK_LATENCY: 185
BERTI CROSS_PAGE 23444507 NO_CROSS_PAGE: 156055371
BERTI FOUND_BERTI: 51641645 NO_FOUND_BERTI: 1148716
BERTI AVERAGE_ISSUED: 3.60501
CPU 0 L1I Entangling prefetcher final stats
IP accesses: 30c6 c3180 241 / 9713
IP misses: 30c6 c3180 241 / 2230
IP hits: 0 0 0 / 0
IP late: f6 3d80 7 / 721
IP wrong: d8a 36280 4 / 29
miss rate: 0.22959
coverage: 0
coverage_late: 0.323319
accuracy: 0
accuracy_late: 0.961334
discarded: 0
evicts entangled j table: 0
evicts entangled k table: 47
max bb size: 19
formats: 9 0 51 31 19 19 0 
hist_lookups: 10 10 13 15 29 26 28 13 15 26 28 16 16 8 1 0 21 905 
hist_lookups_evict: 1.77967 %
hist_lookups_shortlat: 76.695 %
bb_found_hist: 0 1352 410 211 73 126 54 4 6 43 24 7 8 7 38 5 0 0 0 7 0 0 0 0 0 0 0 0 0 0 0 0 0 0 0 0 0 0 0 0 0 0 0 0 0 0 0 0 0 0 0 0 0 0 0 0 0 0 0 0 0 0 0 0 
bb_found_summary: 5758 2375 2.42443
entangled_found_hist: 0 588 333 382 121 29 0 0 
entangled_found_summary: 3029 1453 2.08466
bb_ent_found_hist: 0 919 584 234 151 13 82 8 12 21 22 7 7 0 46 0 0 0 0 14 0 0 0 0 0 0 0 0 0 0 0 0 0 0 0 0 0 0 0 0 0 0 0 0 0 0 0 0 0 0 0 0 0 0 0 0 0 0 0 0 0 0 0 0 
bb_ent_found_summary: 5582 2120 2.63302
