WARNING: physical memory size is smaller than virtual memory size.

*** ChampSim Multicore Out-of-Order Simulator ***
Warmup Instructions: 30000000
Simulation Instructions: 100000000
Number of CPUs: 1
Page size: 4096

BTB:
Basic BTB sets: 1024 ways: 8
Indirect:
history lengths: 0 0 10 16 27 44 60 96 109 219 449 487 714 1313 2146 3881 
ITTAGE tables: 64768 bytes;Region table: 240 bytes;IUM: 384 bytes;Total Storage= 65392 bytes;
RAS:
RAS size: 64
Berti Prefetcher
CPU 0 Entangling prefetcher
Off-chip DRAM Size: 8 GiB Channels: 2 Width: 64-bit Data Race: 6400 MT/s
Heartbeat CPU 0 instructions: 10000005 cycles: 1698526 heartbeat IPC: 5.887 cumulative IPC: 5.887 (Simulation time: 00 hr 00 min 42 sec)
Heartbeat CPU 0 instructions: 20000008 cycles: 3397370 heartbeat IPC: 5.886 cumulative IPC: 5.887 (Simulation time: 00 hr 01 min 28 sec)
Heartbeat CPU 0 instructions: 30000000 cycles: 5095618 heartbeat IPC: 5.888 cumulative IPC: 5.887 (Simulation time: 00 hr 02 min 09 sec)
Warmup finished CPU 0 instructions: 30000000 cycles: 5095619 cumulative IPC: 5.887 (Simulation time: 00 hr 02 min 09 sec)
Warmup complete CPU 0 instructions: 30000000 cycles: 5095619 cumulative IPC: 5.887 (Simulation time: 00 hr 02 min 09 sec)
*** Reached end of trace: (0, "../traces/public_traces/srv/srv_3.champsimtrace.xz")
Heartbeat CPU 0 instructions: 40000001 cycles: 8404943 heartbeat IPC: 3.022 cumulative IPC: 3.022 (Simulation time: 00 hr 03 min 10 sec)
Heartbeat CPU 0 instructions: 50000002 cycles: 11803160 heartbeat IPC: 2.943 cumulative IPC: 2.982 (Simulation time: 00 hr 04 min 23 sec)
Heartbeat CPU 0 instructions: 60000002 cycles: 15084066 heartbeat IPC: 3.048 cumulative IPC: 3.003 (Simulation time: 00 hr 05 min 32 sec)
*** Reached end of trace: (0, "../traces/public_traces/srv/srv_3.champsimtrace.xz")
Heartbeat CPU 0 instructions: 70000000 cycles: 18377623 heartbeat IPC: 3.036 cumulative IPC: 3.012 (Simulation time: 00 hr 06 min 49 sec)
Heartbeat CPU 0 instructions: 80000008 cycles: 21735755 heartbeat IPC: 2.978 cumulative IPC: 3.005 (Simulation time: 00 hr 08 min 01 sec)
Heartbeat CPU 0 instructions: 90000003 cycles: 24957501 heartbeat IPC: 3.104 cumulative IPC: 3.021 (Simulation time: 00 hr 08 min 59 sec)
*** Reached end of trace: (0, "../traces/public_traces/srv/srv_3.champsimtrace.xz")
Heartbeat CPU 0 instructions: 100000007 cycles: 28268464 heartbeat IPC: 3.02 cumulative IPC: 3.021 (Simulation time: 00 hr 09 min 58 sec)
Heartbeat CPU 0 instructions: 110000007 cycles: 31546762 heartbeat IPC: 3.05 cumulative IPC: 3.024 (Simulation time: 00 hr 10 min 58 sec)
Heartbeat CPU 0 instructions: 120000000 cycles: 34797108 heartbeat IPC: 3.077 cumulative IPC: 3.03 (Simulation time: 00 hr 11 min 57 sec)
*** Reached end of trace: (0, "../traces/public_traces/srv/srv_3.champsimtrace.xz")
Heartbeat CPU 0 instructions: 130000009 cycles: 38102537 heartbeat IPC: 3.025 cumulative IPC: 3.03 (Simulation time: 00 hr 13 min 02 sec)
Simulation finished CPU 0 instructions: 100000009 cycles: 33006919 cumulative IPC: 3.03 (Simulation time: 00 hr 13 min 02 sec)
Simulation complete CPU 0 instructions: 100000009 cycles: 33006919 cumulative IPC: 3.03 (Simulation time: 00 hr 13 min 02 sec)

ChampSim completed all CPUs

=== Simulation ===
CPU 0 runs ../traces/public_traces/srv/srv_3.champsimtrace.xz
Region of Interest Statistics

CPU 0 cumulative IPC: 3.03 instructions: 100000009 cycles: 33006919
CPU 0 Branch Prediction Accuracy: 96.73% MPKI: 5.858 Average ROB Occupancy at Mispredict: 61.31
Branch type MPKI
BRANCH_DIRECT_JUMP: 0.432
BRANCH_INDIRECT: 3.14
BRANCH_CONDITIONAL: 0.794
BRANCH_DIRECT_CALL: 0.817
BRANCH_INDIRECT_CALL: 0.0503
BRANCH_RETURN: 0.628

LLC TOTAL        ACCESS:     664752 HIT:     484712 MISS:     180040
LLC LOAD         ACCESS:     116412 HIT:      70982 MISS:      45430
LLC RFO          ACCESS:      29867 HIT:      14639 MISS:      15228
LLC PREFETCH     ACCESS:     332323 HIT:     234885 MISS:      97438
LLC WRITE        ACCESS:     138851 HIT:     137752 MISS:       1099
LLC TRANSLATION  ACCESS:      47299 HIT:      26454 MISS:      20845
LLC PREFETCH REQUESTED:          0 ISSUED:          0 USEFUL:          0 USELESS:          0
LLC AVERAGE MISS LATENCY: 154 cycles
cpu0_DTLB TOTAL        ACCESS:   16562048 HIT:   15586129 MISS:     975919
cpu0_DTLB LOAD         ACCESS:   16562048 HIT:   15586129 MISS:     975919
cpu0_DTLB RFO          ACCESS:          0 HIT:          0 MISS:          0
cpu0_DTLB PREFETCH     ACCESS:          0 HIT:          0 MISS:          0
cpu0_DTLB WRITE        ACCESS:          0 HIT:          0 MISS:          0
cpu0_DTLB TRANSLATION  ACCESS:          0 HIT:          0 MISS:          0
cpu0_DTLB PREFETCH REQUESTED:          0 ISSUED:          0 USEFUL:          0 USELESS:          0
cpu0_DTLB AVERAGE MISS LATENCY: 9.113 cycles
cpu0_ITLB TOTAL        ACCESS:   16595982 HIT:   16093636 MISS:     502346
cpu0_ITLB LOAD         ACCESS:   16595982 HIT:   16093636 MISS:     502346
cpu0_ITLB RFO          ACCESS:          0 HIT:          0 MISS:          0
cpu0_ITLB PREFETCH     ACCESS:          0 HIT:          0 MISS:          0
cpu0_ITLB WRITE        ACCESS:          0 HIT:          0 MISS:          0
cpu0_ITLB TRANSLATION  ACCESS:          0 HIT:          0 MISS:          0
cpu0_ITLB PREFETCH REQUESTED:          0 ISSUED:          0 USEFUL:          0 USELESS:          0
cpu0_ITLB AVERAGE MISS LATENCY: 5.609 cycles
cpu0_L1D TOTAL        ACCESS:   25093075 HIT:   22887039 MISS:    2206036
cpu0_L1D LOAD         ACCESS:   14923439 HIT:   13272322 MISS:    1651117
cpu0_L1D RFO          ACCESS:          0 HIT:          0 MISS:          0
cpu0_L1D PREFETCH     ACCESS:        760 HIT:        289 MISS:        471
cpu0_L1D WRITE        ACCESS:   10071397 HIT:    9607076 MISS:     464321
cpu0_L1D TRANSLATION  ACCESS:      97479 HIT:       7352 MISS:      90127
cpu0_L1D PREFETCH REQUESTED:        760 ISSUED:        760 USEFUL:         13 USELESS:          0
cpu0_L1D AVERAGE MISS LATENCY: 13.85 cycles
cpu0_L1I TOTAL        ACCESS:   24751811 HIT:   20883785 MISS:    3868026
cpu0_L1I LOAD         ACCESS:    8546305 HIT:    7297042 MISS:    1249263
cpu0_L1I RFO          ACCESS:          0 HIT:          0 MISS:          0
cpu0_L1I PREFETCH     ACCESS:   16205506 HIT:   13586743 MISS:    2618763
cpu0_L1I WRITE        ACCESS:          0 HIT:          0 MISS:          0
cpu0_L1I TRANSLATION  ACCESS:          0 HIT:          0 MISS:          0
cpu0_L1I PREFETCH REQUESTED:   43464840 ISSUED:   16205511 USEFUL:    1787933 USELESS:     720074
cpu0_L1I AVERAGE MISS LATENCY: 12.2 cycles
cpu0_L2C TOTAL        ACCESS:    9115771 HIT:    8463965 MISS:     651806
cpu0_L2C LOAD         ACCESS:    1927259 HIT:    1777306 MISS:     149953
cpu0_L2C RFO          ACCESS:     163973 HIT:     133778 MISS:      30195
cpu0_L2C PREFETCH     ACCESS:    6421630 HIT:    5997324 MISS:     424306
cpu0_L2C WRITE        ACCESS:     513420 HIT:     513367 MISS:         53
cpu0_L2C TRANSLATION  ACCESS:      89489 HIT:      42190 MISS:      47299
cpu0_L2C PREFETCH REQUESTED:    4435717 ISSUED:    3913172 USEFUL:      92226 USELESS:      98246
cpu0_L2C AVERAGE MISS LATENCY: 56.05 cycles
cpu0_STLB TOTAL        ACCESS:     918475 HIT:     851123 MISS:      67352
cpu0_STLB LOAD         ACCESS:     918475 HIT:     851123 MISS:      67352
cpu0_STLB RFO          ACCESS:          0 HIT:          0 MISS:          0
cpu0_STLB PREFETCH     ACCESS:          0 HIT:          0 MISS:          0
cpu0_STLB WRITE        ACCESS:          0 HIT:          0 MISS:          0
cpu0_STLB TRANSLATION  ACCESS:          0 HIT:          0 MISS:          0
cpu0_STLB PREFETCH REQUESTED:          0 ISSUED:          0 USEFUL:          0 USELESS:          0
cpu0_STLB AVERAGE MISS LATENCY: 93.04 cycles

DRAM Statistics

Channel 0 RQ ROW_BUFFER_HIT:      22923
  ROW_BUFFER_MISS:      68171
 AVG DBUS CONGESTED CYCLE: 3.872
WQ ROW_BUFFER_HIT: Channel 0 
  ROW_BUFFER_MISS:      10213
  FULL:      38823

Channel 1 RQ ROW_BUFFER_HIT:      22542
  ROW_BUFFER_MISS:      65300
 AVG DBUS CONGESTED CYCLE: 3.868
WQ ROW_BUFFER_HIT: Channel 1 
  ROW_BUFFER_MISS:      10194
  FULL:      37361
BERTI TO_L1: 13 TO_L2: 754 TO_L2_BC_MSHR: 0
BERTI AVG_LAT: 18.9207 NUM_TRACK_LATENCY: 1395660 NUM_CANT_TRACK_LATENCY: 0
BERTI CROSS_PAGE 23 NO_CROSS_PAGE: 744
BERTI FOUND_BERTI: 461857 NO_FOUND_BERTI: 19328662
BERTI AVERAGE_ISSUED: 1.30888
CPU 0 L1I Entangling prefetcher final stats
IP accesses: bfb3 2fecc0 103580 / 8594887
IP misses: 3a80 ea000 6122 / 1297845
IP hits: 0 0 0 / 0
IP late: 3a83 ea0c0 2416 / 554559
IP wrong: 46fd 11bf40 2008 / 716820
miss rate: 0.151002
coverage: 0
coverage_late: 0.427293
accuracy: 0
accuracy_late: 0.436188
discarded: 0
evicts entangled j table: 0
evicts entangled k table: 154005
max bb size: 111
formats: 21582 25765 96943 20787 14491 20081 0 
hist_lookups: 52641 83808 87198 91031 84148 67259 52427 40699 32069 24376 17665 11664 7542 4004 1341 0 708 166498 
hist_lookups_evict: 0.0858101 %
hist_lookups_shortlat: 20.1797 %
bb_found_hist: 0 1904383 1042504 406117 294361 189237 101124 118487 166050 100885 41675 78057 42824 11567 15131 35853 11946 2498 3425 1747 3719 1457 571 994 242 1589 744 679 494 0 10 752 510 302 267 20 0 0 0 0 423 0 0 0 242 252 0 252 0 0 0 0 0 0 0 0 0 0 0 0 252 0 252 0 
bb_found_summary: 14400214 4581894 3.14286
entangled_found_hist: 0 1343777 1233095 1427929 175937 67194 4606 0 
entangled_found_summary: 9161108 4252538 2.15427
bb_ent_found_hist: 0 2736606 1764450 845981 427840 450930 225082 70401 201367 91632 32252 74988 44443 34786 19894 105621 42246 7472 7123 4846 12260 2163 345 0 0 4142 2854 1784 51 0 33 1024 764 298 1547 0 0 0 0 0 1408 0 0 0 1131 252 0 1489 0 0 0 0 0 0 0 0 0 0 0 0 0 0 407 0 
bb_ent_found_summary: 22925201 7219912 3.17528
