WARNING: physical memory size is smaller than virtual memory size.

*** ChampSim Multicore Out-of-Order Simulator ***
Warmup Instructions: 30000000
Simulation Instructions: 100000000
Number of CPUs: 1
Page size: 4096

BTB:
Basic BTB sets: 1024 ways: 8
Indirect:
history lengths: 0 0 10 16 27 44 60 96 109 219 449 487 714 1313 2146 3881 
ITTAGE tables: 64768 bytes;Region table: 240 bytes;IUM: 384 bytes;Total Storage= 65392 bytes;
RAS:
RAS size: 64
Berti Prefetcher
CPU 0 Entangling prefetcher
Off-chip DRAM Size: 8 GiB Channels: 2 Width: 64-bit Data Race: 6400 MT/s
Heartbeat CPU 0 instructions: 10000002 cycles: 1725292 heartbeat IPC: 5.796 cumulative IPC: 5.796 (Simulation time: 00 hr 00 min 41 sec)
Heartbeat CPU 0 instructions: 20000000 cycles: 3449037 heartbeat IPC: 5.801 cumulative IPC: 5.799 (Simulation time: 00 hr 01 min 23 sec)
Heartbeat CPU 0 instructions: 30000000 cycles: 5175620 heartbeat IPC: 5.792 cumulative IPC: 5.796 (Simulation time: 00 hr 02 min 08 sec)
Warmup finished CPU 0 instructions: 30000000 cycles: 5175621 cumulative IPC: 5.796 (Simulation time: 00 hr 02 min 08 sec)
Warmup complete CPU 0 instructions: 30000000 cycles: 5175621 cumulative IPC: 5.796 (Simulation time: 00 hr 02 min 08 sec)
*** Reached end of trace: (0, "../traces/public_traces/srv/srv_27.champsimtrace.xz")
Heartbeat CPU 0 instructions: 40000000 cycles: 8192396 heartbeat IPC: 3.315 cumulative IPC: 3.315 (Simulation time: 00 hr 03 min 10 sec)
Heartbeat CPU 0 instructions: 50000001 cycles: 11141489 heartbeat IPC: 3.391 cumulative IPC: 3.352 (Simulation time: 00 hr 04 min 09 sec)
Heartbeat CPU 0 instructions: 60000010 cycles: 14119198 heartbeat IPC: 3.358 cumulative IPC: 3.354 (Simulation time: 00 hr 05 min 08 sec)
*** Reached end of trace: (0, "../traces/public_traces/srv/srv_27.champsimtrace.xz")
Heartbeat CPU 0 instructions: 70000005 cycles: 17074266 heartbeat IPC: 3.384 cumulative IPC: 3.362 (Simulation time: 00 hr 06 min 07 sec)
Heartbeat CPU 0 instructions: 80000008 cycles: 20012840 heartbeat IPC: 3.403 cumulative IPC: 3.37 (Simulation time: 00 hr 07 min 05 sec)
Heartbeat CPU 0 instructions: 90000009 cycles: 22980925 heartbeat IPC: 3.369 cumulative IPC: 3.37 (Simulation time: 00 hr 08 min 04 sec)
*** Reached end of trace: (0, "../traces/public_traces/srv/srv_27.champsimtrace.xz")
Heartbeat CPU 0 instructions: 100000008 cycles: 25957621 heartbeat IPC: 3.359 cumulative IPC: 3.368 (Simulation time: 00 hr 09 min 03 sec)
Heartbeat CPU 0 instructions: 110000000 cycles: 28844695 heartbeat IPC: 3.464 cumulative IPC: 3.38 (Simulation time: 00 hr 10 min 04 sec)
Heartbeat CPU 0 instructions: 120000008 cycles: 31825005 heartbeat IPC: 3.355 cumulative IPC: 3.377 (Simulation time: 00 hr 11 min 04 sec)
*** Reached end of trace: (0, "../traces/public_traces/srv/srv_27.champsimtrace.xz")
Heartbeat CPU 0 instructions: 130000001 cycles: 34826855 heartbeat IPC: 3.331 cumulative IPC: 3.373 (Simulation time: 00 hr 12 min 03 sec)
Simulation finished CPU 0 instructions: 100000001 cycles: 29651235 cumulative IPC: 3.373 (Simulation time: 00 hr 12 min 03 sec)
Simulation complete CPU 0 instructions: 100000001 cycles: 29651235 cumulative IPC: 3.373 (Simulation time: 00 hr 12 min 03 sec)

ChampSim completed all CPUs

=== Simulation ===
CPU 0 runs ../traces/public_traces/srv/srv_27.champsimtrace.xz
Region of Interest Statistics

CPU 0 cumulative IPC: 3.373 instructions: 100000001 cycles: 29651235
CPU 0 Branch Prediction Accuracy: 99.82% MPKI: 0.3323 Average ROB Occupancy at Mispredict: 152.5
Branch type MPKI
BRANCH_DIRECT_JUMP: 7e-05
BRANCH_INDIRECT: 0.225
BRANCH_CONDITIONAL: 0.107
BRANCH_DIRECT_CALL: 0.00015
BRANCH_INDIRECT_CALL: 1e-05
BRANCH_RETURN: 0.0003

LLC TOTAL        ACCESS:     384339 HIT:     162515 MISS:     221824
LLC LOAD         ACCESS:     125334 HIT:      32736 MISS:      92598
LLC RFO          ACCESS:      49616 HIT:      24317 MISS:      25299
LLC PREFETCH     ACCESS:     112971 HIT:      32202 MISS:      80769
LLC WRITE        ACCESS:      68450 HIT:      67450 MISS:       1000
LLC TRANSLATION  ACCESS:      27968 HIT:       5810 MISS:      22158
LLC PREFETCH REQUESTED:          0 ISSUED:          0 USEFUL:          0 USELESS:          0
LLC AVERAGE MISS LATENCY: 165.5 cycles
cpu0_DTLB TOTAL        ACCESS:   16792030 HIT:   16027842 MISS:     764188
cpu0_DTLB LOAD         ACCESS:   16792030 HIT:   16027842 MISS:     764188
cpu0_DTLB RFO          ACCESS:          0 HIT:          0 MISS:          0
cpu0_DTLB PREFETCH     ACCESS:          0 HIT:          0 MISS:          0
cpu0_DTLB WRITE        ACCESS:          0 HIT:          0 MISS:          0
cpu0_DTLB TRANSLATION  ACCESS:          0 HIT:          0 MISS:          0
cpu0_DTLB PREFETCH REQUESTED:          0 ISSUED:          0 USEFUL:          0 USELESS:          0
cpu0_DTLB AVERAGE MISS LATENCY: 11.52 cycles
cpu0_ITLB TOTAL        ACCESS:   16140246 HIT:   16139152 MISS:       1094
cpu0_ITLB LOAD         ACCESS:   16140246 HIT:   16139152 MISS:       1094
cpu0_ITLB RFO          ACCESS:          0 HIT:          0 MISS:          0
cpu0_ITLB PREFETCH     ACCESS:          0 HIT:          0 MISS:          0
cpu0_ITLB WRITE        ACCESS:          0 HIT:          0 MISS:          0
cpu0_ITLB TRANSLATION  ACCESS:          0 HIT:          0 MISS:          0
cpu0_ITLB PREFETCH REQUESTED:          0 ISSUED:          0 USEFUL:          0 USELESS:          0
cpu0_ITLB AVERAGE MISS LATENCY: 84.19 cycles
cpu0_L1D TOTAL        ACCESS:   29028475 HIT:   28115330 MISS:     913145
cpu0_L1D LOAD         ACCESS:   15689129 HIT:   15238479 MISS:     450650
cpu0_L1D RFO          ACCESS:          0 HIT:          0 MISS:          0
cpu0_L1D PREFETCH     ACCESS:    1265044 HIT:    1161768 MISS:     103276
cpu0_L1D WRITE        ACCESS:   12024585 HIT:   11710015 MISS:     314570
cpu0_L1D TRANSLATION  ACCESS:      49717 HIT:       5068 MISS:      44649
cpu0_L1D PREFETCH REQUESTED:    2885667 ISSUED:    1265044 USEFUL:       9186 USELESS:       4523
cpu0_L1D AVERAGE MISS LATENCY: 32.46 cycles
cpu0_L1I TOTAL        ACCESS:   23333736 HIT:   22837521 MISS:     496215
cpu0_L1I LOAD         ACCESS:   10223878 HIT:    9881248 MISS:     342630
cpu0_L1I RFO          ACCESS:          0 HIT:          0 MISS:          0
cpu0_L1I PREFETCH     ACCESS:   13109858 HIT:   12956273 MISS:     153585
cpu0_L1I WRITE        ACCESS:          0 HIT:          0 MISS:          0
cpu0_L1I TRANSLATION  ACCESS:          0 HIT:          0 MISS:          0
cpu0_L1I PREFETCH REQUESTED:   30639185 ISSUED:   13109840 USEFUL:     118084 USELESS:      18694
cpu0_L1I AVERAGE MISS LATENCY: 11.31 cycles
cpu0_L2C TOTAL        ACCESS:    1322338 HIT:     902388 MISS:     419950
cpu0_L2C LOAD         ACCESS:     412803 HIT:     279127 MISS:     133676
cpu0_L2C RFO          ACCESS:      57942 HIT:       8306 MISS:      49636
cpu0_L2C PREFETCH     ACCESS:     722475 HIT:     513958 MISS:     208517
cpu0_L2C WRITE        ACCESS:      84938 HIT:      84785 MISS:        153
cpu0_L2C TRANSLATION  ACCESS:      44180 HIT:      16212 MISS:      27968
cpu0_L2C PREFETCH REQUESTED:     623993 ISSUED:     511402 USEFUL:      17365 USELESS:      71466
cpu0_L2C AVERAGE MISS LATENCY: 101.8 cycles
cpu0_STLB TOTAL        ACCESS:     578211 HIT:     544823 MISS:      33388
cpu0_STLB LOAD         ACCESS:     578211 HIT:     544823 MISS:      33388
cpu0_STLB RFO          ACCESS:          0 HIT:          0 MISS:          0
cpu0_STLB PREFETCH     ACCESS:          0 HIT:          0 MISS:          0
cpu0_STLB WRITE        ACCESS:          0 HIT:          0 MISS:          0
cpu0_STLB TRANSLATION  ACCESS:          0 HIT:          0 MISS:          0
cpu0_STLB PREFETCH REQUESTED:          0 ISSUED:          0 USEFUL:          0 USELESS:          0
cpu0_STLB AVERAGE MISS LATENCY: 151.2 cycles

DRAM Statistics

Channel 0 RQ ROW_BUFFER_HIT:      23980
  ROW_BUFFER_MISS:      87533
 AVG DBUS CONGESTED CYCLE: 3.797
WQ ROW_BUFFER_HIT: Channel 0 
  ROW_BUFFER_MISS:       3235
  FULL:      14253

Channel 1 RQ ROW_BUFFER_HIT:      23037
  ROW_BUFFER_MISS:      86216
 AVG DBUS CONGESTED CYCLE: 3.781
WQ ROW_BUFFER_HIT: Channel 1 
  ROW_BUFFER_MISS:       3303
  FULL:      13439
BERTI TO_L1: 2309127 TO_L2: 2655714 TO_L2_BC_MSHR: 232910
BERTI AVG_LAT: 88.9763 NUM_TRACK_LATENCY: 249289 NUM_CANT_TRACK_LATENCY: 0
BERTI CROSS_PAGE 139569 NO_CROSS_PAGE: 4825272
BERTI FOUND_BERTI: 2952189 NO_FOUND_BERTI: 18602288
BERTI AVERAGE_ISSUED: 3.3225
CPU 0 L1I Entangling prefetcher final stats
IP accesses: 5cd0 173400 577604 / 10232437
IP misses: 13c3 4f0c0 1560 / 351189
IP hits: 0 0 0 / 0
IP late: 9d10 274400 510 / 150188
IP wrong: 5b87 16e1c0 356 / 18152
miss rate: 0.0343212
coverage: 0
coverage_late: 0.427656
accuracy: 0
accuracy_late: 0.892171
discarded: 0
evicts entangled j table: 0
evicts entangled k table: 31284
max bb size: 13
formats: 5016 0 20755 7234 3031 4715 0 
hist_lookups: 4692 10991 18307 23607 21921 18228 13517 11323 9651 9223 7321 4770 3214 1814 567 0 54 51916 
hist_lookups_evict: 0.0255784 %
hist_lookups_shortlat: 24.5913 %
bb_found_hist: 0 2759500 966984 400180 160904 58269 81124 2389 399 2 365 0 0 380 0 0 0 0 0 0 0 0 0 0 0 0 0 0 0 0 0 0 0 0 0 0 0 0 0 0 0 0 0 0 0 0 0 0 0 0 0 0 0 0 0 0 0 0 0 0 0 0 0 0 
bb_found_summary: 7344236 4430496 1.65766
entangled_found_hist: 0 2244836 515209 1169095 924721 52733 2027 0 
entangled_found_summary: 10757250 4908621 2.19151
bb_ent_found_hist: 0 2813533 1866514 962467 215257 19889 410994 4319 2701 5 1475 0 0 1355 0 0 0 0 0 0 0 0 0 0 0 0 0 0 0 0 0 0 0 0 0 0 0 0 0 0 0 0 0 0 0 0 0 0 0 0 0 0 0 0 0 0 0 0 0 0 0 0 0 0 
bb_ent_found_summary: 12944650 6298509 2.0552
