WARNING: physical memory size is smaller than virtual memory size.

*** ChampSim Multicore Out-of-Order Simulator ***
Warmup Instructions: 30000000
Simulation Instructions: 100000000
Number of CPUs: 1
Page size: 4096

BTB:
Basic BTB sets: 1024 ways: 8
Indirect:
history lengths: 0 0 10 16 27 44 60 96 109 219 449 487 714 1313 2146 3881 
ITTAGE tables: 64768 bytes;Region table: 240 bytes;IUM: 384 bytes;Total Storage= 65392 bytes;
RAS:
RAS size: 64
Berti Prefetcher
CPU 0 Entangling prefetcher
Off-chip DRAM Size: 8 GiB Channels: 2 Width: 64-bit Data Race: 6400 MT/s
Heartbeat CPU 0 instructions: 10000003 cycles: 2095789 heartbeat IPC: 4.771 cumulative IPC: 4.771 (Simulation time: 00 hr 00 min 58 sec)
Heartbeat CPU 0 instructions: 20000000 cycles: 4206247 heartbeat IPC: 4.738 cumulative IPC: 4.755 (Simulation time: 00 hr 01 min 57 sec)
Heartbeat CPU 0 instructions: 30000001 cycles: 6297106 heartbeat IPC: 4.783 cumulative IPC: 4.764 (Simulation time: 00 hr 02 min 56 sec)
Warmup finished CPU 0 instructions: 30000001 cycles: 6297107 cumulative IPC: 4.764 (Simulation time: 00 hr 02 min 56 sec)
Warmup complete CPU 0 instructions: 30000001 cycles: 6297107 cumulative IPC: 4.764 (Simulation time: 00 hr 02 min 56 sec)
*** Reached end of trace: (0, "../traces/public_traces/srv/srv_34.champsimtrace.xz")
Heartbeat CPU 0 instructions: 40000009 cycles: 12701653 heartbeat IPC: 1.561 cumulative IPC: 1.561 (Simulation time: 00 hr 04 min 43 sec)
Heartbeat CPU 0 instructions: 50000005 cycles: 19256339 heartbeat IPC: 1.526 cumulative IPC: 1.543 (Simulation time: 00 hr 06 min 30 sec)
Heartbeat CPU 0 instructions: 60000009 cycles: 25734958 heartbeat IPC: 1.544 cumulative IPC: 1.543 (Simulation time: 00 hr 08 min 35 sec)
*** Reached end of trace: (0, "../traces/public_traces/srv/srv_34.champsimtrace.xz")
Heartbeat CPU 0 instructions: 70000000 cycles: 32119397 heartbeat IPC: 1.566 cumulative IPC: 1.549 (Simulation time: 00 hr 10 min 37 sec)
Heartbeat CPU 0 instructions: 80000003 cycles: 38592538 heartbeat IPC: 1.545 cumulative IPC: 1.548 (Simulation time: 00 hr 12 min 34 sec)
Heartbeat CPU 0 instructions: 90000002 cycles: 45173747 heartbeat IPC: 1.519 cumulative IPC: 1.543 (Simulation time: 00 hr 14 min 23 sec)
*** Reached end of trace: (0, "../traces/public_traces/srv/srv_34.champsimtrace.xz")
Heartbeat CPU 0 instructions: 100000007 cycles: 51582570 heartbeat IPC: 1.56 cumulative IPC: 1.546 (Simulation time: 00 hr 16 min 24 sec)
Heartbeat CPU 0 instructions: 110000001 cycles: 58016077 heartbeat IPC: 1.554 cumulative IPC: 1.547 (Simulation time: 00 hr 18 min 12 sec)
Heartbeat CPU 0 instructions: 120000001 cycles: 64612021 heartbeat IPC: 1.516 cumulative IPC: 1.543 (Simulation time: 00 hr 19 min 53 sec)
*** Reached end of trace: (0, "../traces/public_traces/srv/srv_34.champsimtrace.xz")
Heartbeat CPU 0 instructions: 130000000 cycles: 70905742 heartbeat IPC: 1.589 cumulative IPC: 1.548 (Simulation time: 00 hr 21 min 37 sec)
Simulation finished CPU 0 instructions: 100000002 cycles: 64608637 cumulative IPC: 1.548 (Simulation time: 00 hr 21 min 37 sec)
Simulation complete CPU 0 instructions: 100000002 cycles: 64608637 cumulative IPC: 1.548 (Simulation time: 00 hr 21 min 37 sec)

ChampSim completed all CPUs

=== Simulation ===
CPU 0 runs ../traces/public_traces/srv/srv_34.champsimtrace.xz
Region of Interest Statistics

CPU 0 cumulative IPC: 1.548 instructions: 100000002 cycles: 64608637
CPU 0 Branch Prediction Accuracy: 99.87% MPKI: 0.1928 Average ROB Occupancy at Mispredict: 208.8
Branch type MPKI
BRANCH_DIRECT_JUMP: 6e-05
BRANCH_INDIRECT: 0.146
BRANCH_CONDITIONAL: 0.0456
BRANCH_DIRECT_CALL: 0
BRANCH_INDIRECT_CALL: 0
BRANCH_RETURN: 0.0013

LLC TOTAL        ACCESS:    4653629 HIT:    2702534 MISS:    1951095
LLC LOAD         ACCESS:     506710 HIT:     347826 MISS:     158884
LLC RFO          ACCESS:    1560575 HIT:     257861 MISS:    1302714
LLC PREFETCH     ACCESS:     781146 HIT:     310561 MISS:     470585
LLC WRITE        ACCESS:    1793781 HIT:    1784489 MISS:       9292
LLC TRANSLATION  ACCESS:      11417 HIT:       1797 MISS:       9620
LLC PREFETCH REQUESTED:          0 ISSUED:          0 USEFUL:          0 USELESS:          0
LLC AVERAGE MISS LATENCY: 340.2 cycles
cpu0_DTLB TOTAL        ACCESS:   18304901 HIT:   17289630 MISS:    1015271
cpu0_DTLB LOAD         ACCESS:   18304901 HIT:   17289630 MISS:    1015271
cpu0_DTLB RFO          ACCESS:          0 HIT:          0 MISS:          0
cpu0_DTLB PREFETCH     ACCESS:          0 HIT:          0 MISS:          0
cpu0_DTLB WRITE        ACCESS:          0 HIT:          0 MISS:          0
cpu0_DTLB TRANSLATION  ACCESS:          0 HIT:          0 MISS:          0
cpu0_DTLB PREFETCH REQUESTED:          0 ISSUED:          0 USEFUL:          0 USELESS:          0
cpu0_DTLB AVERAGE MISS LATENCY: 7.959 cycles
cpu0_ITLB TOTAL        ACCESS:   14843391 HIT:   14822136 MISS:      21255
cpu0_ITLB LOAD         ACCESS:   14843391 HIT:   14822136 MISS:      21255
cpu0_ITLB RFO          ACCESS:          0 HIT:          0 MISS:          0
cpu0_ITLB PREFETCH     ACCESS:          0 HIT:          0 MISS:          0
cpu0_ITLB WRITE        ACCESS:          0 HIT:          0 MISS:          0
cpu0_ITLB TRANSLATION  ACCESS:          0 HIT:          0 MISS:          0
cpu0_ITLB PREFETCH REQUESTED:          0 ISSUED:          0 USEFUL:          0 USELESS:          0
cpu0_ITLB AVERAGE MISS LATENCY: 18.75 cycles
cpu0_L1D TOTAL        ACCESS:   33326510 HIT:   20296462 MISS:   13030048
cpu0_L1D LOAD         ACCESS:   13111897 HIT:   10231955 MISS:    2879942
cpu0_L1D RFO          ACCESS:          0 HIT:          0 MISS:          0
cpu0_L1D PREFETCH     ACCESS:    3158161 HIT:    1050556 MISS:    2107605
cpu0_L1D WRITE        ACCESS:   17024017 HIT:    9001012 MISS:    8023005
cpu0_L1D TRANSLATION  ACCESS:      32435 HIT:      12939 MISS:      19496
cpu0_L1D PREFETCH REQUESTED:   17814448 ISSUED:    3158160 USEFUL:     294610 USELESS:      45402
cpu0_L1D AVERAGE MISS LATENCY: 47.8 cycles
cpu0_L1I TOTAL        ACCESS:   21589574 HIT:   15229729 MISS:    6359845
cpu0_L1I LOAD         ACCESS:   11244444 HIT:    6482126 MISS:    4762318
cpu0_L1I RFO          ACCESS:          0 HIT:          0 MISS:          0
cpu0_L1I PREFETCH     ACCESS:   10345130 HIT:    8747603 MISS:    1597527
cpu0_L1I WRITE        ACCESS:          0 HIT:          0 MISS:          0
cpu0_L1I TRANSLATION  ACCESS:          0 HIT:          0 MISS:          0
cpu0_L1I PREFETCH REQUESTED:   32962868 ISSUED:   10345152 USEFUL:    1284502 USELESS:     148874
cpu0_L1I AVERAGE MISS LATENCY: 9.22 cycles
cpu0_L2C TOTAL        ACCESS:   17167853 HIT:   12397858 MISS:    4769995
cpu0_L2C LOAD         ACCESS:    4543904 HIT:    3946344 MISS:     597560
cpu0_L2C RFO          ACCESS:    1822586 HIT:     261599 MISS:    1560987
cpu0_L2C PREFETCH     ACCESS:    8596294 HIT:    5996292 MISS:    2600002
cpu0_L2C WRITE        ACCESS:    2185713 HIT:    2185684 MISS:         29
cpu0_L2C TRANSLATION  ACCESS:      19356 HIT:       7939 MISS:      11417
cpu0_L2C PREFETCH REQUESTED:    7585119 ISSUED:    5559485 USEFUL:     122567 USELESS:     177466
cpu0_L2C AVERAGE MISS LATENCY: 147.8 cycles
cpu0_STLB TOTAL        ACCESS:     500334 HIT:     470898 MISS:      29436
cpu0_STLB LOAD         ACCESS:     500334 HIT:     470898 MISS:      29436
cpu0_STLB RFO          ACCESS:          0 HIT:          0 MISS:          0
cpu0_STLB PREFETCH     ACCESS:          0 HIT:          0 MISS:          0
cpu0_STLB WRITE        ACCESS:          0 HIT:          0 MISS:          0
cpu0_STLB TRANSLATION  ACCESS:          0 HIT:          0 MISS:          0
cpu0_STLB PREFETCH REQUESTED:          0 ISSUED:          0 USEFUL:          0 USELESS:          0
cpu0_STLB AVERAGE MISS LATENCY: 219.5 cycles

DRAM Statistics

Channel 0 RQ ROW_BUFFER_HIT:     359182
  ROW_BUFFER_MISS:     624168
 AVG DBUS CONGESTED CYCLE: 3.964
WQ ROW_BUFFER_HIT: Channel 0 
  ROW_BUFFER_MISS:      57400
  FULL:     635544

Channel 1 RQ ROW_BUFFER_HIT:     362885
  ROW_BUFFER_MISS:     594348
 AVG DBUS CONGESTED CYCLE: 3.956
WQ ROW_BUFFER_HIT: Channel 1 
  ROW_BUFFER_MISS:      61291
  FULL:     613918
BERTI TO_L1: 3535199 TO_L2: 17293246 TO_L2_BC_MSHR: 8767761
BERTI AVG_LAT: 83.6817 NUM_TRACK_LATENCY: 2124265 NUM_CANT_TRACK_LATENCY: 1
BERTI CROSS_PAGE 2804646 NO_CROSS_PAGE: 18023799
BERTI FOUND_BERTI: 4619252 NO_FOUND_BERTI: 16022146
BERTI AVERAGE_ISSUED: 4.89985
CPU 0 L1I Entangling prefetcher final stats
IP accesses: 5cd0 173400 136368 / 11346709
IP misses: 13dd 4f740 19011 / 4864583
IP hits: 0 0 0 / 0
IP late: 9d3d 274f40 8682 / 2085375
IP wrong: 55ff 157fc0 7717 / 143102
miss rate: 0.428722
coverage: 0
coverage_late: 0.428686
accuracy: 0
accuracy_late: 0.935785
discarded: 0
evicts entangled j table: 0
evicts entangled k table: 362504
max bb size: 13
formats: 65017 0 258499 83318 34738 53331 0 
hist_lookups: 48452 133933 225872 312686 294226 256487 177460 143139 132315 124018 96584 62464 39578 20851 6315 0 561 783771 
hist_lookups_evict: 0.0196243 %
hist_lookups_shortlat: 27.417 %
bb_found_hist: 0 2408648 1173614 493313 215789 111445 65399 32070 4939 969 0 463 0 4513 0 0 0 0 0 0 0 0 0 0 0 0 0 0 0 0 0 0 0 0 0 0 0 0 0 0 0 0 0 0 0 0 0 0 0 0 0 0 0 0 0 0 0 0 0 0 0 0 0 0 
bb_found_summary: 8385075 4511162 1.85874
entangled_found_hist: 0 1236941 714344 2329026 562394 76686 39728 0 
entangled_found_summary: 12524081 4959119 2.52547
bb_ent_found_hist: 0 3852818 2516723 1089612 519476 185989 189562 85819 18224 3583 0 2406 0 18032 0 0 0 0 0 0 0 0 0 0 0 0 0 0 0 0 0 0 0 0 0 0 0 0 0 0 0 0 0 0 0 0 0 0 0 0 0 0 0 0 0 0 0 0 0 0 0 0 0 0 
bb_ent_found_summary: 17339975 8482244 2.04427
