WARNING: physical memory size is smaller than virtual memory size.

*** ChampSim Multicore Out-of-Order Simulator ***
Warmup Instructions: 30000000
Simulation Instructions: 100000000
Number of CPUs: 1
Page size: 4096

BTB:
Basic BTB sets: 1024 ways: 8
Indirect:
history lengths: 0 0 10 16 27 44 60 96 109 219 449 487 714 1313 2146 3881 
ITTAGE tables: 64768 bytes;Region table: 240 bytes;IUM: 384 bytes;Total Storage= 65392 bytes;
RAS:
RAS size: 64
Berti Prefetcher
CPU 0 Entangling prefetcher
Off-chip DRAM Size: 8 GiB Channels: 2 Width: 64-bit Data Race: 6400 MT/s
Heartbeat CPU 0 instructions: 10000007 cycles: 1698406 heartbeat IPC: 5.888 cumulative IPC: 5.888 (Simulation time: 00 hr 00 min 46 sec)
Heartbeat CPU 0 instructions: 20000001 cycles: 3398141 heartbeat IPC: 5.883 cumulative IPC: 5.886 (Simulation time: 00 hr 01 min 33 sec)
Heartbeat CPU 0 instructions: 30000008 cycles: 5099760 heartbeat IPC: 5.877 cumulative IPC: 5.883 (Simulation time: 00 hr 02 min 15 sec)
Warmup finished CPU 0 instructions: 30000008 cycles: 5099761 cumulative IPC: 5.883 (Simulation time: 00 hr 02 min 15 sec)
Warmup complete CPU 0 instructions: 30000008 cycles: 5099761 cumulative IPC: 5.883 (Simulation time: 00 hr 02 min 15 sec)
*** Reached end of trace: (0, "../traces/public_traces/srv/srv_63.champsimtrace.xz")
Heartbeat CPU 0 instructions: 40000005 cycles: 8597812 heartbeat IPC: 2.859 cumulative IPC: 2.859 (Simulation time: 00 hr 03 min 22 sec)
Heartbeat CPU 0 instructions: 50000001 cycles: 12150632 heartbeat IPC: 2.815 cumulative IPC: 2.837 (Simulation time: 00 hr 04 min 22 sec)
Heartbeat CPU 0 instructions: 60000002 cycles: 15779235 heartbeat IPC: 2.756 cumulative IPC: 2.809 (Simulation time: 00 hr 05 min 22 sec)
*** Reached end of trace: (0, "../traces/public_traces/srv/srv_63.champsimtrace.xz")
Heartbeat CPU 0 instructions: 70000008 cycles: 19220553 heartbeat IPC: 2.906 cumulative IPC: 2.833 (Simulation time: 00 hr 06 min 21 sec)
Heartbeat CPU 0 instructions: 80000007 cycles: 22716519 heartbeat IPC: 2.86 cumulative IPC: 2.838 (Simulation time: 00 hr 07 min 24 sec)
Heartbeat CPU 0 instructions: 90000011 cycles: 26267366 heartbeat IPC: 2.816 cumulative IPC: 2.835 (Simulation time: 00 hr 08 min 37 sec)
*** Reached end of trace: (0, "../traces/public_traces/srv/srv_63.champsimtrace.xz")
Heartbeat CPU 0 instructions: 100000006 cycles: 29728883 heartbeat IPC: 2.889 cumulative IPC: 2.842 (Simulation time: 00 hr 09 min 38 sec)
Heartbeat CPU 0 instructions: 110000001 cycles: 33186930 heartbeat IPC: 2.892 cumulative IPC: 2.848 (Simulation time: 00 hr 10 min 43 sec)
Heartbeat CPU 0 instructions: 120000000 cycles: 36614891 heartbeat IPC: 2.917 cumulative IPC: 2.856 (Simulation time: 00 hr 11 min 46 sec)
*** Reached end of trace: (0, "../traces/public_traces/srv/srv_63.champsimtrace.xz")
Heartbeat CPU 0 instructions: 130000001 cycles: 40181982 heartbeat IPC: 2.803 cumulative IPC: 2.85 (Simulation time: 00 hr 12 min 50 sec)
Simulation finished CPU 0 instructions: 100000006 cycles: 35082225 cumulative IPC: 2.85 (Simulation time: 00 hr 12 min 50 sec)
Simulation complete CPU 0 instructions: 100000006 cycles: 35082225 cumulative IPC: 2.85 (Simulation time: 00 hr 12 min 50 sec)

ChampSim completed all CPUs

=== Simulation ===
CPU 0 runs ../traces/public_traces/srv/srv_63.champsimtrace.xz
Region of Interest Statistics

CPU 0 cumulative IPC: 2.85 instructions: 100000006 cycles: 35082225
CPU 0 Branch Prediction Accuracy: 96.3% MPKI: 6.633 Average ROB Occupancy at Mispredict: 55.42
Branch type MPKI
BRANCH_DIRECT_JUMP: 0.502
BRANCH_INDIRECT: 3.56
BRANCH_CONDITIONAL: 0.886
BRANCH_DIRECT_CALL: 0.931
BRANCH_INDIRECT_CALL: 0.0586
BRANCH_RETURN: 0.693

LLC TOTAL        ACCESS:     769533 HIT:     576851 MISS:     192682
LLC LOAD         ACCESS:     135050 HIT:      87852 MISS:      47198
LLC RFO          ACCESS:      33558 HIT:      17599 MISS:      15959
LLC PREFETCH     ACCESS:     397306 HIT:     296011 MISS:     101295
LLC WRITE        ACCESS:     143906 HIT:     142558 MISS:       1348
LLC TRANSLATION  ACCESS:      59713 HIT:      32831 MISS:      26882
LLC PREFETCH REQUESTED:          0 ISSUED:          0 USEFUL:          0 USELESS:          0
LLC AVERAGE MISS LATENCY: 155.6 cycles
cpu0_DTLB TOTAL        ACCESS:   16640903 HIT:   15611716 MISS:    1029187
cpu0_DTLB LOAD         ACCESS:   16640903 HIT:   15611716 MISS:    1029187
cpu0_DTLB RFO          ACCESS:          0 HIT:          0 MISS:          0
cpu0_DTLB PREFETCH     ACCESS:          0 HIT:          0 MISS:          0
cpu0_DTLB WRITE        ACCESS:          0 HIT:          0 MISS:          0
cpu0_DTLB TRANSLATION  ACCESS:          0 HIT:          0 MISS:          0
cpu0_DTLB PREFETCH REQUESTED:          0 ISSUED:          0 USEFUL:          0 USELESS:          0
cpu0_DTLB AVERAGE MISS LATENCY: 10 cycles
cpu0_ITLB TOTAL        ACCESS:   16809707 HIT:   16293195 MISS:     516512
cpu0_ITLB LOAD         ACCESS:   16809707 HIT:   16293195 MISS:     516512
cpu0_ITLB RFO          ACCESS:          0 HIT:          0 MISS:          0
cpu0_ITLB PREFETCH     ACCESS:          0 HIT:          0 MISS:          0
cpu0_ITLB WRITE        ACCESS:          0 HIT:          0 MISS:          0
cpu0_ITLB TRANSLATION  ACCESS:          0 HIT:          0 MISS:          0
cpu0_ITLB PREFETCH REQUESTED:          0 ISSUED:          0 USEFUL:          0 USELESS:          0
cpu0_ITLB AVERAGE MISS LATENCY: 6.574 cycles
cpu0_L1D TOTAL        ACCESS:   25139982 HIT:   22899503 MISS:    2240479
cpu0_L1D LOAD         ACCESS:   14942898 HIT:   13277711 MISS:    1665187
cpu0_L1D RFO          ACCESS:          0 HIT:          0 MISS:          0
cpu0_L1D PREFETCH     ACCESS:        921 HIT:        372 MISS:        549
cpu0_L1D WRITE        ACCESS:   10078466 HIT:    9611621 MISS:     466845
cpu0_L1D TRANSLATION  ACCESS:     117697 HIT:       9799 MISS:     107898
cpu0_L1D PREFETCH REQUESTED:        921 ISSUED:        921 USEFUL:          7 USELESS:          0
cpu0_L1D AVERAGE MISS LATENCY: 14.9 cycles
cpu0_L1I TOTAL        ACCESS:   25105689 HIT:   21152068 MISS:    3953621
cpu0_L1I LOAD         ACCESS:    8585063 HIT:    7328078 MISS:    1256985
cpu0_L1I RFO          ACCESS:          0 HIT:          0 MISS:          0
cpu0_L1I PREFETCH     ACCESS:   16520626 HIT:   13823990 MISS:    2696636
cpu0_L1I WRITE        ACCESS:          0 HIT:          0 MISS:          0
cpu0_L1I TRANSLATION  ACCESS:          0 HIT:          0 MISS:          0
cpu0_L1I PREFETCH REQUESTED:   40587246 ISSUED:   16520600 USEFUL:    1815847 USELESS:     770354
cpu0_L1I AVERAGE MISS LATENCY: 12.25 cycles
cpu0_L2C TOTAL        ACCESS:    9360521 HIT:    8585063 MISS:     775458
cpu0_L2C LOAD         ACCESS:    1949688 HIT:    1780533 MISS:     169155
cpu0_L2C RFO          ACCESS:     165496 HIT:     131533 MISS:      33963
cpu0_L2C PREFETCH     ACCESS:    6617863 HIT:    6105276 MISS:     512587
cpu0_L2C WRITE        ACCESS:     520495 HIT:     520458 MISS:         37
cpu0_L2C TRANSLATION  ACCESS:     106979 HIT:      47263 MISS:      59716
cpu0_L2C PREFETCH REQUESTED:    4536444 ISSUED:    4031075 USEFUL:      97812 USELESS:     122139
cpu0_L2C AVERAGE MISS LATENCY: 52.51 cycles
cpu0_STLB TOTAL        ACCESS:     970390 HIT:     887374 MISS:      83016
cpu0_STLB LOAD         ACCESS:     970390 HIT:     887374 MISS:      83016
cpu0_STLB RFO          ACCESS:          0 HIT:          0 MISS:          0
cpu0_STLB PREFETCH     ACCESS:          0 HIT:          0 MISS:          0
cpu0_STLB WRITE        ACCESS:          0 HIT:          0 MISS:          0
cpu0_STLB TRANSLATION  ACCESS:          0 HIT:          0 MISS:          0
cpu0_STLB PREFETCH REQUESTED:          0 ISSUED:          0 USEFUL:          0 USELESS:          0
cpu0_STLB AVERAGE MISS LATENCY: 95.78 cycles

DRAM Statistics

Channel 0 RQ ROW_BUFFER_HIT:      23294
  ROW_BUFFER_MISS:      74388
 AVG DBUS CONGESTED CYCLE: 3.863
WQ ROW_BUFFER_HIT: Channel 0 
  ROW_BUFFER_MISS:      10486
  FULL:      40477

Channel 1 RQ ROW_BUFFER_HIT:      22457
  ROW_BUFFER_MISS:      71193
 AVG DBUS CONGESTED CYCLE: 3.862
WQ ROW_BUFFER_HIT: Channel 1 
  ROW_BUFFER_MISS:      10569
  FULL:      39362
BERTI TO_L1: 7 TO_L2: 919 TO_L2_BC_MSHR: 0
BERTI AVG_LAT: 19.4131 NUM_TRACK_LATENCY: 1412927 NUM_CANT_TRACK_LATENCY: 0
BERTI CROSS_PAGE 39 NO_CROSS_PAGE: 887
BERTI FOUND_BERTI: 463208 NO_FOUND_BERTI: 19339571
BERTI AVERAGE_ISSUED: 1.23139
CPU 0 L1I Entangling prefetcher final stats
IP accesses: bfb3 2fecc0 101374 / 8629333
IP misses: 3a85 ea140 6012 / 1301255
IP hits: 0 0 0 / 0
IP late: 3a83 ea0c0 2454 / 553869
IP wrong: 3a86 ea180 2024 / 766829
miss rate: 0.150795
coverage: 0
coverage_late: 0.425643
accuracy: 0
accuracy_late: 0.419376
discarded: 0
evicts entangled j table: 0
evicts entangled k table: 160895
max bb size: 111
formats: 21379 28498 102690 22243 14218 20770 0 
hist_lookups: 54001 84984 90848 95982 88358 69491 53185 40622 32218 25150 18309 12442 8047 3909 1386 0 666 166286 
hist_lookups_evict: 0.0787342 %
hist_lookups_shortlat: 19.6583 %
bb_found_hist: 0 1905958 995306 368800 308152 177596 71191 144087 159630 35519 41994 59160 45290 12271 10339 39108 7010 2986 3497 1946 3820 1159 766 879 472 1699 709 947 0 619 27 747 657 277 281 54 0 0 0 0 249 0 0 0 222 0 0 248 0 0 0 0 0 0 0 0 0 0 0 0 249 0 249 0 
bb_found_summary: 13304838 4404170 3.02097
entangled_found_hist: 0 1234097 1172899 1427814 182246 67677 6686 0 
entangled_found_summary: 8970822 4091419 2.1926
bb_ent_found_hist: 0 2758878 1778424 758875 405124 470308 209713 71547 110900 84687 24221 68163 45327 40788 17803 93411 27312 8778 5780 6033 14720 1195 252 0 119 5773 2311 897 0 15 54 829 249 147 1177 0 0 0 0 0 1867 0 0 0 856 0 0 968 0 0 0 0 0 0 0 0 0 0 0 0 250 0 249 0 
bb_ent_found_summary: 21319734 7018000 3.03787
