WARNING: physical memory size is smaller than virtual memory size.

*** ChampSim Multicore Out-of-Order Simulator ***
Warmup Instructions: 30000000
Simulation Instructions: 100000000
Number of CPUs: 1
Page size: 4096

BTB:
Basic BTB sets: 1024 ways: 8
Indirect:
history lengths: 0 0 10 16 27 44 60 96 109 219 449 487 714 1313 2146 3881 
ITTAGE tables: 64768 bytes;Region table: 240 bytes;IUM: 384 bytes;Total Storage= 65392 bytes;
RAS:
RAS size: 64
Berti Prefetcher
CPU 0 Entangling prefetcher
Off-chip DRAM Size: 8 GiB Channels: 2 Width: 64-bit Data Race: 6400 MT/s
Heartbeat CPU 0 instructions: 10000010 cycles: 1697484 heartbeat IPC: 5.891 cumulative IPC: 5.891 (Simulation time: 00 hr 00 min 57 sec)
Heartbeat CPU 0 instructions: 20000002 cycles: 3395718 heartbeat IPC: 5.888 cumulative IPC: 5.89 (Simulation time: 00 hr 01 min 54 sec)
Heartbeat CPU 0 instructions: 30000005 cycles: 5096162 heartbeat IPC: 5.881 cumulative IPC: 5.887 (Simulation time: 00 hr 02 min 50 sec)
Warmup finished CPU 0 instructions: 30000005 cycles: 5096163 cumulative IPC: 5.887 (Simulation time: 00 hr 02 min 50 sec)
Warmup complete CPU 0 instructions: 30000005 cycles: 5096163 cumulative IPC: 5.887 (Simulation time: 00 hr 02 min 50 sec)
*** Reached end of trace: (0, "../traces/public_traces/srv/srv_67.champsimtrace.xz")
Heartbeat CPU 0 instructions: 40000009 cycles: 8170607 heartbeat IPC: 3.253 cumulative IPC: 3.253 (Simulation time: 00 hr 03 min 59 sec)
Heartbeat CPU 0 instructions: 50000002 cycles: 11573216 heartbeat IPC: 2.939 cumulative IPC: 3.088 (Simulation time: 00 hr 05 min 11 sec)
Heartbeat CPU 0 instructions: 60000005 cycles: 14869158 heartbeat IPC: 3.034 cumulative IPC: 3.07 (Simulation time: 00 hr 06 min 22 sec)
*** Reached end of trace: (0, "../traces/public_traces/srv/srv_67.champsimtrace.xz")
Heartbeat CPU 0 instructions: 70000000 cycles: 17879793 heartbeat IPC: 3.322 cumulative IPC: 3.129 (Simulation time: 00 hr 07 min 20 sec)
Heartbeat CPU 0 instructions: 80000002 cycles: 21206037 heartbeat IPC: 3.006 cumulative IPC: 3.104 (Simulation time: 00 hr 08 min 20 sec)
Heartbeat CPU 0 instructions: 90000000 cycles: 24374812 heartbeat IPC: 3.156 cumulative IPC: 3.112 (Simulation time: 00 hr 09 min 21 sec)
*** Reached end of trace: (0, "../traces/public_traces/srv/srv_67.champsimtrace.xz")
Heartbeat CPU 0 instructions: 100000005 cycles: 27424202 heartbeat IPC: 3.279 cumulative IPC: 3.135 (Simulation time: 00 hr 10 min 21 sec)
Heartbeat CPU 0 instructions: 110000000 cycles: 30738777 heartbeat IPC: 3.017 cumulative IPC: 3.12 (Simulation time: 00 hr 11 min 26 sec)
Heartbeat CPU 0 instructions: 120000001 cycles: 33831693 heartbeat IPC: 3.233 cumulative IPC: 3.132 (Simulation time: 00 hr 12 min 36 sec)
*** Reached end of trace: (0, "../traces/public_traces/srv/srv_67.champsimtrace.xz")
Heartbeat CPU 0 instructions: 130000001 cycles: 36942263 heartbeat IPC: 3.215 cumulative IPC: 3.14 (Simulation time: 00 hr 13 min 46 sec)
Simulation finished CPU 0 instructions: 100000001 cycles: 31846103 cumulative IPC: 3.14 (Simulation time: 00 hr 13 min 46 sec)
Simulation complete CPU 0 instructions: 100000001 cycles: 31846103 cumulative IPC: 3.14 (Simulation time: 00 hr 13 min 46 sec)

ChampSim completed all CPUs

=== Simulation ===
CPU 0 runs ../traces/public_traces/srv/srv_67.champsimtrace.xz
Region of Interest Statistics

CPU 0 cumulative IPC: 3.14 instructions: 100000001 cycles: 31846103
CPU 0 Branch Prediction Accuracy: 97.13% MPKI: 5.129 Average ROB Occupancy at Mispredict: 61.1
Branch type MPKI
BRANCH_DIRECT_JUMP: 0.386
BRANCH_INDIRECT: 2.72
BRANCH_CONDITIONAL: 0.713
BRANCH_DIRECT_CALL: 0.731
BRANCH_INDIRECT_CALL: 0.0454
BRANCH_RETURN: 0.533

LLC TOTAL        ACCESS:     626517 HIT:     440282 MISS:     186235
LLC LOAD         ACCESS:     109484 HIT:      61802 MISS:      47682
LLC RFO          ACCESS:      31462 HIT:      15555 MISS:      15907
LLC PREFETCH     ACCESS:     302836 HIT:     203329 MISS:      99507
LLC WRITE        ACCESS:     137502 HIT:     136160 MISS:       1342
LLC TRANSLATION  ACCESS:      45233 HIT:      23436 MISS:      21797
LLC PREFETCH REQUESTED:          0 ISSUED:          0 USEFUL:          0 USELESS:          0
LLC AVERAGE MISS LATENCY: 155 cycles
cpu0_DTLB TOTAL        ACCESS:   16454227 HIT:   15433919 MISS:    1020308
cpu0_DTLB LOAD         ACCESS:   16454227 HIT:   15433919 MISS:    1020308
cpu0_DTLB RFO          ACCESS:          0 HIT:          0 MISS:          0
cpu0_DTLB PREFETCH     ACCESS:          0 HIT:          0 MISS:          0
cpu0_DTLB WRITE        ACCESS:          0 HIT:          0 MISS:          0
cpu0_DTLB TRANSLATION  ACCESS:          0 HIT:          0 MISS:          0
cpu0_DTLB PREFETCH REQUESTED:          0 ISSUED:          0 USEFUL:          0 USELESS:          0
cpu0_DTLB AVERAGE MISS LATENCY: 8.946 cycles
cpu0_ITLB TOTAL        ACCESS:   16200361 HIT:   15701570 MISS:     498791
cpu0_ITLB LOAD         ACCESS:   16200361 HIT:   15701570 MISS:     498791
cpu0_ITLB RFO          ACCESS:          0 HIT:          0 MISS:          0
cpu0_ITLB PREFETCH     ACCESS:          0 HIT:          0 MISS:          0
cpu0_ITLB WRITE        ACCESS:          0 HIT:          0 MISS:          0
cpu0_ITLB TRANSLATION  ACCESS:          0 HIT:          0 MISS:          0
cpu0_ITLB PREFETCH REQUESTED:          0 ISSUED:          0 USEFUL:          0 USELESS:          0
cpu0_ITLB AVERAGE MISS LATENCY: 6.258 cycles
cpu0_L1D TOTAL        ACCESS:   25039099 HIT:   22799723 MISS:    2239376
cpu0_L1D LOAD         ACCESS:   14830942 HIT:   13159156 MISS:    1671786
cpu0_L1D RFO          ACCESS:          0 HIT:          0 MISS:          0
cpu0_L1D PREFETCH     ACCESS:       2208 HIT:        988 MISS:       1220
cpu0_L1D WRITE        ACCESS:   10103910 HIT:    9631710 MISS:     472200
cpu0_L1D TRANSLATION  ACCESS:     102039 HIT:       7869 MISS:      94170
cpu0_L1D PREFETCH REQUESTED:       2208 ISSUED:       2208 USEFUL:          2 USELESS:          0
cpu0_L1D AVERAGE MISS LATENCY: 13.91 cycles
cpu0_L1I TOTAL        ACCESS:   24121053 HIT:   20252444 MISS:    3868609
cpu0_L1I LOAD         ACCESS:    8638182 HIT:    7284592 MISS:    1353590
cpu0_L1I RFO          ACCESS:          0 HIT:          0 MISS:          0
cpu0_L1I PREFETCH     ACCESS:   15482871 HIT:   12967852 MISS:    2515019
cpu0_L1I WRITE        ACCESS:          0 HIT:          0 MISS:          0
cpu0_L1I TRANSLATION  ACCESS:          0 HIT:          0 MISS:          0
cpu0_L1I PREFETCH REQUESTED:   43253421 ISSUED:   15482871 USEFUL:    1704945 USELESS:     698339
cpu0_L1I AVERAGE MISS LATENCY: 12.02 cycles
cpu0_L2C TOTAL        ACCESS:    8998090 HIT:    8389006 MISS:     609084
cpu0_L2C LOAD         ACCESS:    1992368 HIT:    1848519 MISS:     143849
cpu0_L2C RFO          ACCESS:     162682 HIT:     130646 MISS:      32036
cpu0_L2C PREFETCH     ACCESS:    6238804 HIT:    5850852 MISS:     387952
cpu0_L2C WRITE        ACCESS:     510609 HIT:     510600 MISS:          9
cpu0_L2C TRANSLATION  ACCESS:      93627 HIT:      48389 MISS:      45238
cpu0_L2C PREFETCH REQUESTED:    4396892 ISSUED:    3834280 USEFUL:      90262 USELESS:      90701
cpu0_L2C AVERAGE MISS LATENCY: 60.58 cycles
cpu0_STLB TOTAL        ACCESS:     960147 HIT:     889990 MISS:      70157
cpu0_STLB LOAD         ACCESS:     960147 HIT:     889990 MISS:      70157
cpu0_STLB RFO          ACCESS:          0 HIT:          0 MISS:          0
cpu0_STLB PREFETCH     ACCESS:          0 HIT:          0 MISS:          0
cpu0_STLB WRITE        ACCESS:          0 HIT:          0 MISS:          0
cpu0_STLB TRANSLATION  ACCESS:          0 HIT:          0 MISS:          0
cpu0_STLB PREFETCH REQUESTED:          0 ISSUED:          0 USEFUL:          0 USELESS:          0
cpu0_STLB AVERAGE MISS LATENCY: 92.3 cycles

DRAM Statistics

Channel 0 RQ ROW_BUFFER_HIT:      23682
  ROW_BUFFER_MISS:      70633
 AVG DBUS CONGESTED CYCLE: 3.88
WQ ROW_BUFFER_HIT: Channel 0 
  ROW_BUFFER_MISS:       9840
  FULL:      39654

Channel 1 RQ ROW_BUFFER_HIT:      22740
  ROW_BUFFER_MISS:      67828
 AVG DBUS CONGESTED CYCLE: 3.874
WQ ROW_BUFFER_HIT: Channel 1 
  ROW_BUFFER_MISS:      10211
  FULL:      38204
BERTI TO_L1: 4 TO_L2: 2207 TO_L2_BC_MSHR: 0
BERTI AVG_LAT: 19.0127 NUM_TRACK_LATENCY: 1393093 NUM_CANT_TRACK_LATENCY: 0
BERTI CROSS_PAGE 90 NO_CROSS_PAGE: 2121
BERTI FOUND_BERTI: 475563 NO_FOUND_BERTI: 19212480
BERTI AVERAGE_ISSUED: 1.17669
CPU 0 L1I Entangling prefetcher final stats
IP accesses: bfb3 2fecc0 100596 / 8686325
IP misses: 4b3d 12cf40 6065 / 1401733
IP hits: 0 0 0 / 0
IP late: 3a7a e9e80 1956 / 595368
IP wrong: 46fd 11bf40 1991 / 694895
miss rate: 0.161373
coverage: 0
coverage_late: 0.424738
accuracy: 0
accuracy_late: 0.461432
discarded: 0
evicts entangled j table: 0
evicts entangled k table: 157195
max bb size: 111
formats: 21989 27489 101152 21997 13325 20667 0 
hist_lookups: 52031 84939 92060 97328 85849 68937 52762 41605 33551 25992 19570 12997 7970 4191 1513 0 636 181509 
hist_lookups_evict: 0.0736589 %
hist_lookups_shortlat: 21.0217 %
bb_found_hist: 0 1814291 1003047 534476 236358 201858 129153 124110 151589 48455 68173 54360 49633 12857 9664 39507 11307 3983 3431 3001 824 3925 5387 2585 1600 750 500 495 253 248 502 750 1014 0 0 6 0 274 0 0 0 0 0 0 249 251 0 185 0 0 0 0 251 0 0 0 0 0 249 0 0 0 0 255 
bb_found_summary: 14339034 4519806 3.17249
entangled_found_hist: 0 1223368 1229494 1415402 176278 53642 4720 0 
entangled_found_summary: 8930204 4102904 2.17656
bb_ent_found_hist: 0 2710270 1639139 835795 327383 306135 346763 94291 114110 64266 120829 64221 30283 41929 8851 168314 17587 7454 19424 7498 1176 831 18790 1886 7088 710 2361 0 773 497 1898 7 995 0 0 0 0 979 0 0 0 0 0 0 1279 502 0 1473 0 0 0 0 0 0 0 0 0 0 164 0 0 0 0 272 
bb_ent_found_summary: 23023050 6966223 3.30496
