WARNING: physical memory size is smaller than virtual memory size.

*** ChampSim Multicore Out-of-Order Simulator ***
Warmup Instructions: 30000000
Simulation Instructions: 100000000
Number of CPUs: 1
Page size: 4096

BTB:
Basic BTB sets: 1024 ways: 8
Indirect:
history lengths: 0 0 10 16 27 44 60 96 109 219 449 487 714 1313 2146 3881 
ITTAGE tables: 64768 bytes;Region table: 240 bytes;IUM: 384 bytes;Total Storage= 65392 bytes;
RAS:
RAS size: 64
Berti Prefetcher
CPU 0 Entangling prefetcher
Off-chip DRAM Size: 8 GiB Channels: 2 Width: 64-bit Data Race: 6400 MT/s
Heartbeat CPU 0 instructions: 10000005 cycles: 2094435 heartbeat IPC: 4.775 cumulative IPC: 4.775 (Simulation time: 00 hr 01 min 00 sec)
Heartbeat CPU 0 instructions: 20000001 cycles: 4195339 heartbeat IPC: 4.76 cumulative IPC: 4.767 (Simulation time: 00 hr 01 min 58 sec)
Heartbeat CPU 0 instructions: 30000007 cycles: 6309335 heartbeat IPC: 4.73 cumulative IPC: 4.755 (Simulation time: 00 hr 02 min 57 sec)
Warmup finished CPU 0 instructions: 30000007 cycles: 6309336 cumulative IPC: 4.755 (Simulation time: 00 hr 02 min 57 sec)
Warmup complete CPU 0 instructions: 30000007 cycles: 6309336 cumulative IPC: 4.755 (Simulation time: 00 hr 02 min 57 sec)
*** Reached end of trace: (0, "../traces/public_traces/srv/srv_35.champsimtrace.xz")
Heartbeat CPU 0 instructions: 40000002 cycles: 12710078 heartbeat IPC: 1.562 cumulative IPC: 1.562 (Simulation time: 00 hr 05 min 01 sec)
Heartbeat CPU 0 instructions: 50000000 cycles: 19041351 heartbeat IPC: 1.579 cumulative IPC: 1.571 (Simulation time: 00 hr 06 min 52 sec)
Heartbeat CPU 0 instructions: 60000004 cycles: 25787717 heartbeat IPC: 1.482 cumulative IPC: 1.54 (Simulation time: 00 hr 08 min 37 sec)
*** Reached end of trace: (0, "../traces/public_traces/srv/srv_35.champsimtrace.xz")
Heartbeat CPU 0 instructions: 70000011 cycles: 32265644 heartbeat IPC: 1.544 cumulative IPC: 1.541 (Simulation time: 00 hr 10 min 37 sec)
Heartbeat CPU 0 instructions: 80000000 cycles: 38566013 heartbeat IPC: 1.587 cumulative IPC: 1.55 (Simulation time: 00 hr 12 min 15 sec)
Heartbeat CPU 0 instructions: 90000001 cycles: 45257257 heartbeat IPC: 1.494 cumulative IPC: 1.541 (Simulation time: 00 hr 14 min 00 sec)
*** Reached end of trace: (0, "../traces/public_traces/srv/srv_35.champsimtrace.xz")
Heartbeat CPU 0 instructions: 100000000 cycles: 51829744 heartbeat IPC: 1.521 cumulative IPC: 1.538 (Simulation time: 00 hr 15 min 55 sec)
Heartbeat CPU 0 instructions: 110000002 cycles: 58120640 heartbeat IPC: 1.59 cumulative IPC: 1.544 (Simulation time: 00 hr 17 min 53 sec)
Heartbeat CPU 0 instructions: 120000010 cycles: 64833230 heartbeat IPC: 1.49 cumulative IPC: 1.538 (Simulation time: 00 hr 19 min 54 sec)
*** Reached end of trace: (0, "../traces/public_traces/srv/srv_35.champsimtrace.xz")
Heartbeat CPU 0 instructions: 130000006 cycles: 71390248 heartbeat IPC: 1.525 cumulative IPC: 1.537 (Simulation time: 00 hr 21 min 42 sec)
Simulation finished CPU 0 instructions: 100000002 cycles: 65080914 cumulative IPC: 1.537 (Simulation time: 00 hr 21 min 42 sec)
Simulation complete CPU 0 instructions: 100000002 cycles: 65080914 cumulative IPC: 1.537 (Simulation time: 00 hr 21 min 42 sec)

ChampSim completed all CPUs

=== Simulation ===
CPU 0 runs ../traces/public_traces/srv/srv_35.champsimtrace.xz
Region of Interest Statistics

CPU 0 cumulative IPC: 1.537 instructions: 100000002 cycles: 65080914
CPU 0 Branch Prediction Accuracy: 99.87% MPKI: 0.1989 Average ROB Occupancy at Mispredict: 208.5
Branch type MPKI
BRANCH_DIRECT_JUMP: 0.00046
BRANCH_INDIRECT: 0.144
BRANCH_CONDITIONAL: 0.0506
BRANCH_DIRECT_CALL: 0.00147
BRANCH_INDIRECT_CALL: 0.00013
BRANCH_RETURN: 0.00182

LLC TOTAL        ACCESS:    4689141 HIT:    2736361 MISS:    1952780
LLC LOAD         ACCESS:     495578 HIT:     334583 MISS:     160995
LLC RFO          ACCESS:    1586837 HIT:     280354 MISS:    1306483
LLC PREFETCH     ACCESS:     775356 HIT:     309388 MISS:     465968
LLC WRITE        ACCESS:    1818254 HIT:    1810314 MISS:       7940
LLC TRANSLATION  ACCESS:      13116 HIT:       1722 MISS:      11394
LLC PREFETCH REQUESTED:          0 ISSUED:          0 USEFUL:          0 USELESS:          0
LLC AVERAGE MISS LATENCY: 339.2 cycles
cpu0_DTLB TOTAL        ACCESS:   18271898 HIT:   17239938 MISS:    1031960
cpu0_DTLB LOAD         ACCESS:   18271898 HIT:   17239938 MISS:    1031960
cpu0_DTLB RFO          ACCESS:          0 HIT:          0 MISS:          0
cpu0_DTLB PREFETCH     ACCESS:          0 HIT:          0 MISS:          0
cpu0_DTLB WRITE        ACCESS:          0 HIT:          0 MISS:          0
cpu0_DTLB TRANSLATION  ACCESS:          0 HIT:          0 MISS:          0
cpu0_DTLB PREFETCH REQUESTED:          0 ISSUED:          0 USEFUL:          0 USELESS:          0
cpu0_DTLB AVERAGE MISS LATENCY: 8.407 cycles
cpu0_ITLB TOTAL        ACCESS:   14868461 HIT:   14844875 MISS:      23586
cpu0_ITLB LOAD         ACCESS:   14868461 HIT:   14844875 MISS:      23586
cpu0_ITLB RFO          ACCESS:          0 HIT:          0 MISS:          0
cpu0_ITLB PREFETCH     ACCESS:          0 HIT:          0 MISS:          0
cpu0_ITLB WRITE        ACCESS:          0 HIT:          0 MISS:          0
cpu0_ITLB TRANSLATION  ACCESS:          0 HIT:          0 MISS:          0
cpu0_ITLB PREFETCH REQUESTED:          0 ISSUED:          0 USEFUL:          0 USELESS:          0
cpu0_ITLB AVERAGE MISS LATENCY: 26.6 cycles
cpu0_L1D TOTAL        ACCESS:   33317243 HIT:   20294933 MISS:   13022310
cpu0_L1D LOAD         ACCESS:   13104381 HIT:   10244877 MISS:    2859504
cpu0_L1D RFO          ACCESS:          0 HIT:          0 MISS:          0
cpu0_L1D PREFETCH     ACCESS:    3185236 HIT:    1070337 MISS:    2114899
cpu0_L1D WRITE        ACCESS:   16993244 HIT:    8966766 MISS:    8026478
cpu0_L1D TRANSLATION  ACCESS:      34382 HIT:      12953 MISS:      21429
cpu0_L1D PREFETCH REQUESTED:   18464432 ISSUED:    3185236 USEFUL:     295229 USELESS:      44243
cpu0_L1D AVERAGE MISS LATENCY: 47.86 cycles
cpu0_L1I TOTAL        ACCESS:   21603761 HIT:   15262375 MISS:    6341386
cpu0_L1I LOAD         ACCESS:   11215127 HIT:    6504577 MISS:    4710550
cpu0_L1I RFO          ACCESS:          0 HIT:          0 MISS:          0
cpu0_L1I PREFETCH     ACCESS:   10388634 HIT:    8757798 MISS:    1630836
cpu0_L1I WRITE        ACCESS:          0 HIT:          0 MISS:          0
cpu0_L1I TRANSLATION  ACCESS:          0 HIT:          0 MISS:          0
cpu0_L1I PREFETCH REQUESTED:   33120419 ISSUED:   10388631 USEFUL:    1310104 USELESS:     156376
cpu0_L1I AVERAGE MISS LATENCY: 9.439 cycles
cpu0_L2C TOTAL        ACCESS:   17175729 HIT:   12439685 MISS:    4736044
cpu0_L2C LOAD         ACCESS:    4517446 HIT:    3931082 MISS:     586364
cpu0_L2C RFO          ACCESS:    1817847 HIT:     230611 MISS:    1587236
cpu0_L2C PREFETCH     ACCESS:    8640069 HIT:    6090767 MISS:    2549302
cpu0_L2C WRITE        ACCESS:    2179111 HIT:    2179085 MISS:         26
cpu0_L2C TRANSLATION  ACCESS:      21256 HIT:       8140 MISS:      13116
cpu0_L2C PREFETCH REQUESTED:    7596863 ISSUED:    5565216 USEFUL:     123460 USELESS:     177842
cpu0_L2C AVERAGE MISS LATENCY: 148.8 cycles
cpu0_STLB TOTAL        ACCESS:     511112 HIT:     480407 MISS:      30705
cpu0_STLB LOAD         ACCESS:     511112 HIT:     480407 MISS:      30705
cpu0_STLB RFO          ACCESS:          0 HIT:          0 MISS:          0
cpu0_STLB PREFETCH     ACCESS:          0 HIT:          0 MISS:          0
cpu0_STLB WRITE        ACCESS:          0 HIT:          0 MISS:          0
cpu0_STLB TRANSLATION  ACCESS:          0 HIT:          0 MISS:          0
cpu0_STLB PREFETCH REQUESTED:          0 ISSUED:          0 USEFUL:          0 USELESS:          0
cpu0_STLB AVERAGE MISS LATENCY: 236.4 cycles

DRAM Statistics

Channel 0 RQ ROW_BUFFER_HIT:     358024
  ROW_BUFFER_MISS:     626348
 AVG DBUS CONGESTED CYCLE: 3.964
WQ ROW_BUFFER_HIT: Channel 0 
  ROW_BUFFER_MISS:      53555
  FULL:     641677

Channel 1 RQ ROW_BUFFER_HIT:     361539
  ROW_BUFFER_MISS:     597576
 AVG DBUS CONGESTED CYCLE: 3.956
WQ ROW_BUFFER_HIT: Channel 1 
  ROW_BUFFER_MISS:      58798
  FULL:     618925
BERTI TO_L1: 3567403 TO_L2: 17932383 TO_L2_BC_MSHR: 8932475
BERTI AVG_LAT: 81.9901 NUM_TRACK_LATENCY: 2131258 NUM_CANT_TRACK_LATENCY: 4
BERTI CROSS_PAGE 2936510 NO_CROSS_PAGE: 18563276
BERTI FOUND_BERTI: 4719831 NO_FOUND_BERTI: 16025769
BERTI AVERAGE_ISSUED: 4.84055
CPU 0 L1I Entangling prefetcher final stats
IP accesses: 5cd0 173400 136135 / 11333025
IP misses: 13dd 4f740 19533 / 4828448
IP hits: 0 0 0 / 0
IP late: 9d3d 274f40 8564 / 2070228
IP wrong: 51bf 146fc0 4590 / 149801
miss rate: 0.426052
coverage: 0
coverage_late: 0.428757
accuracy: 0
accuracy_late: 0.932523
discarded: 0
evicts entangled j table: 0
evicts entangled k table: 356414
max bb size: 13
formats: 65956 0 252073 83433 34865 52808 0 
hist_lookups: 46858 125178 220279 292134 289436 246164 171681 139078 133105 126417 99078 66276 41035 22091 6910 0 375 794425 
hist_lookups_evict: 0.0132955 %
hist_lookups_shortlat: 28.166 %
bb_found_hist: 0 2445450 1193479 493854 222011 118504 65794 31155 5738 453 0 464 0 4493 0 0 0 0 0 0 0 0 0 0 0 0 0 0 0 0 0 0 0 0 0 0 0 0 0 0 0 0 0 0 0 0 0 0 0 0 0 0 0 0 0 0 0 0 0 0 0 0 0 0 
bb_found_summary: 8520877 4581395 1.85989
entangled_found_hist: 0 1255371 731109 2273758 588128 85694 29076 0 
entangled_found_summary: 12494301 4963136 2.51743
bb_ent_found_hist: 0 3959697 2420506 1082853 612658 202866 169002 71640 22764 3561 0 2845 0 19136 0 0 0 0 0 0 0 0 0 0 0 0 0 0 0 0 0 0 0 0 0 0 0 0 0 0 0 0 0 0 0 0 0 0 0 0 0 0 0 0 0 0 0 0 0 0 0 0 0 0 
bb_ent_found_summary: 17523946 8567528 2.0454
