WARNING: physical memory size is smaller than virtual memory size.

*** ChampSim Multicore Out-of-Order Simulator ***
Warmup Instructions: 30000000
Simulation Instructions: 100000000
Number of CPUs: 1
Page size: 4096

BTB:
Basic BTB sets: 1024 ways: 8
Indirect:
history lengths: 0 0 10 16 27 44 60 96 109 219 449 487 714 1313 2146 3881 
ITTAGE tables: 64768 bytes;Region table: 240 bytes;IUM: 384 bytes;Total Storage= 65392 bytes;
RAS:
RAS size: 64
Berti Prefetcher
CPU 0 Entangling prefetcher
Off-chip DRAM Size: 8 GiB Channels: 2 Width: 64-bit Data Race: 6400 MT/s
Heartbeat CPU 0 instructions: 10000008 cycles: 1771240 heartbeat IPC: 5.646 cumulative IPC: 5.646 (Simulation time: 00 hr 00 min 43 sec)
Heartbeat CPU 0 instructions: 20000000 cycles: 3539619 heartbeat IPC: 5.655 cumulative IPC: 5.65 (Simulation time: 00 hr 01 min 27 sec)
Heartbeat CPU 0 instructions: 30000008 cycles: 5308877 heartbeat IPC: 5.652 cumulative IPC: 5.651 (Simulation time: 00 hr 02 min 15 sec)
Warmup finished CPU 0 instructions: 30000008 cycles: 5308878 cumulative IPC: 5.651 (Simulation time: 00 hr 02 min 15 sec)
Warmup complete CPU 0 instructions: 30000008 cycles: 5308878 cumulative IPC: 5.651 (Simulation time: 00 hr 02 min 15 sec)
*** Reached end of trace: (0, "../traces/public_traces/srv/srv_42.champsimtrace.xz")
Heartbeat CPU 0 instructions: 40000003 cycles: 9188462 heartbeat IPC: 2.578 cumulative IPC: 2.578 (Simulation time: 00 hr 03 min 18 sec)
Heartbeat CPU 0 instructions: 50000001 cycles: 13011472 heartbeat IPC: 2.616 cumulative IPC: 2.597 (Simulation time: 00 hr 04 min 20 sec)
Heartbeat CPU 0 instructions: 60000002 cycles: 16852317 heartbeat IPC: 2.604 cumulative IPC: 2.599 (Simulation time: 00 hr 05 min 22 sec)
*** Reached end of trace: (0, "../traces/public_traces/srv/srv_42.champsimtrace.xz")
Heartbeat CPU 0 instructions: 70000004 cycles: 20619205 heartbeat IPC: 2.655 cumulative IPC: 2.613 (Simulation time: 00 hr 06 min 24 sec)
Heartbeat CPU 0 instructions: 80000009 cycles: 24352680 heartbeat IPC: 2.678 cumulative IPC: 2.626 (Simulation time: 00 hr 07 min 28 sec)
Heartbeat CPU 0 instructions: 90000001 cycles: 28162938 heartbeat IPC: 2.624 cumulative IPC: 2.625 (Simulation time: 00 hr 08 min 37 sec)
*** Reached end of trace: (0, "../traces/public_traces/srv/srv_42.champsimtrace.xz")
Heartbeat CPU 0 instructions: 100000008 cycles: 31913796 heartbeat IPC: 2.666 cumulative IPC: 2.631 (Simulation time: 00 hr 09 min 43 sec)
Heartbeat CPU 0 instructions: 110000000 cycles: 35648172 heartbeat IPC: 2.678 cumulative IPC: 2.637 (Simulation time: 00 hr 10 min 45 sec)
Heartbeat CPU 0 instructions: 120000004 cycles: 39455080 heartbeat IPC: 2.627 cumulative IPC: 2.636 (Simulation time: 00 hr 11 min 48 sec)
*** Reached end of trace: (0, "../traces/public_traces/srv/srv_42.champsimtrace.xz")
Heartbeat CPU 0 instructions: 130000000 cycles: 43177042 heartbeat IPC: 2.687 cumulative IPC: 2.641 (Simulation time: 00 hr 12 min 56 sec)
Simulation finished CPU 0 instructions: 100000000 cycles: 37868167 cumulative IPC: 2.641 (Simulation time: 00 hr 12 min 56 sec)
Simulation complete CPU 0 instructions: 100000000 cycles: 37868167 cumulative IPC: 2.641 (Simulation time: 00 hr 12 min 56 sec)

ChampSim completed all CPUs

=== Simulation ===
CPU 0 runs ../traces/public_traces/srv/srv_42.champsimtrace.xz
Region of Interest Statistics

CPU 0 cumulative IPC: 2.641 instructions: 100000000 cycles: 37868167
CPU 0 Branch Prediction Accuracy: 94.76% MPKI: 9.311 Average ROB Occupancy at Mispredict: 42.92
Branch type MPKI
BRANCH_DIRECT_JUMP: 1.23
BRANCH_INDIRECT: 4.07
BRANCH_CONDITIONAL: 1.17
BRANCH_DIRECT_CALL: 1.55
BRANCH_INDIRECT_CALL: 0.215
BRANCH_RETURN: 1.08

LLC TOTAL        ACCESS:     370369 HIT:     337482 MISS:      32887
LLC LOAD         ACCESS:      92977 HIT:      81058 MISS:      11919
LLC RFO          ACCESS:      51912 HIT:      47149 MISS:       4763
LLC PREFETCH     ACCESS:      97410 HIT:      86104 MISS:      11306
LLC WRITE        ACCESS:     108140 HIT:     107759 MISS:        381
LLC TRANSLATION  ACCESS:      19930 HIT:      15412 MISS:       4518
LLC PREFETCH REQUESTED:          0 ISSUED:          0 USEFUL:          0 USELESS:          0
LLC AVERAGE MISS LATENCY: 144.7 cycles
cpu0_DTLB TOTAL        ACCESS:   19822735 HIT:   18919689 MISS:     903046
cpu0_DTLB LOAD         ACCESS:   19822735 HIT:   18919689 MISS:     903046
cpu0_DTLB RFO          ACCESS:          0 HIT:          0 MISS:          0
cpu0_DTLB PREFETCH     ACCESS:          0 HIT:          0 MISS:          0
cpu0_DTLB WRITE        ACCESS:          0 HIT:          0 MISS:          0
cpu0_DTLB TRANSLATION  ACCESS:          0 HIT:          0 MISS:          0
cpu0_DTLB PREFETCH REQUESTED:          0 ISSUED:          0 USEFUL:          0 USELESS:          0
cpu0_DTLB AVERAGE MISS LATENCY: 6.147 cycles
cpu0_ITLB TOTAL        ACCESS:   18859598 HIT:   18151418 MISS:     708180
cpu0_ITLB LOAD         ACCESS:   18859598 HIT:   18151418 MISS:     708180
cpu0_ITLB RFO          ACCESS:          0 HIT:          0 MISS:          0
cpu0_ITLB PREFETCH     ACCESS:          0 HIT:          0 MISS:          0
cpu0_ITLB WRITE        ACCESS:          0 HIT:          0 MISS:          0
cpu0_ITLB TRANSLATION  ACCESS:          0 HIT:          0 MISS:          0
cpu0_ITLB PREFETCH REQUESTED:          0 ISSUED:          0 USEFUL:          0 USELESS:          0
cpu0_ITLB AVERAGE MISS LATENCY: 3.816 cycles
cpu0_L1D TOTAL        ACCESS:   30520471 HIT:   26342482 MISS:    4177989
cpu0_L1D LOAD         ACCESS:   17553869 HIT:   15259865 MISS:    2294004
cpu0_L1D RFO          ACCESS:          0 HIT:          0 MISS:          0
cpu0_L1D PREFETCH     ACCESS:       1555 HIT:        697 MISS:        858
cpu0_L1D WRITE        ACCESS:   12935551 HIT:   11081538 MISS:    1854013
cpu0_L1D TRANSLATION  ACCESS:      29496 HIT:        382 MISS:      29114
cpu0_L1D PREFETCH REQUESTED:      13802 ISSUED:       1555 USEFUL:         50 USELESS:        156
cpu0_L1D AVERAGE MISS LATENCY: 6.658 cycles
cpu0_L1I TOTAL        ACCESS:   27464109 HIT:   21670579 MISS:    5793530
cpu0_L1I LOAD         ACCESS:    8615670 HIT:    7511057 MISS:    1104613
cpu0_L1I RFO          ACCESS:          0 HIT:          0 MISS:          0
cpu0_L1I PREFETCH     ACCESS:   18848439 HIT:   14159522 MISS:    4688917
cpu0_L1I WRITE        ACCESS:          0 HIT:          0 MISS:          0
cpu0_L1I TRANSLATION  ACCESS:          0 HIT:          0 MISS:          0
cpu0_L1I PREFETCH REQUESTED:   28070899 ISSUED:   18848435 USEFUL:    3610335 USELESS:     939521
cpu0_L1I AVERAGE MISS LATENCY: 10.8 cycles
cpu0_L2C TOTAL        ACCESS:   15405554 HIT:   15114631 MISS:     290923
cpu0_L2C LOAD         ACCESS:    2422588 HIT:    2323328 MISS:      99260
cpu0_L2C RFO          ACCESS:     641599 HIT:     589023 MISS:      52576
cpu0_L2C PREFETCH     ACCESS:   11261578 HIT:   11142421 MISS:     119157
cpu0_L2C WRITE        ACCESS:    1051971 HIT:    1051971 MISS:          0
cpu0_L2C TRANSLATION  ACCESS:      27818 HIT:       7888 MISS:      19930
cpu0_L2C PREFETCH REQUESTED:    6973148 ISSUED:    6711020 USEFUL:      32014 USELESS:      51826
cpu0_L2C AVERAGE MISS LATENCY: 34.15 cycles
cpu0_STLB TOTAL        ACCESS:    1017736 HIT:    1002447 MISS:      15289
cpu0_STLB LOAD         ACCESS:    1017736 HIT:    1002447 MISS:      15289
cpu0_STLB RFO          ACCESS:          0 HIT:          0 MISS:          0
cpu0_STLB PREFETCH     ACCESS:          0 HIT:          0 MISS:          0
cpu0_STLB WRITE        ACCESS:          0 HIT:          0 MISS:          0
cpu0_STLB TRANSLATION  ACCESS:          0 HIT:          0 MISS:          0
cpu0_STLB PREFETCH REQUESTED:          0 ISSUED:          0 USEFUL:          0 USELESS:          0
cpu0_STLB AVERAGE MISS LATENCY: 115.7 cycles

DRAM Statistics

Channel 0 RQ ROW_BUFFER_HIT:       4785
  ROW_BUFFER_MISS:      13409
 AVG DBUS CONGESTED CYCLE: 3.736
WQ ROW_BUFFER_HIT: Channel 0 
  ROW_BUFFER_MISS:        987
  FULL:       5344

Channel 1 RQ ROW_BUFFER_HIT:       3594
  ROW_BUFFER_MISS:      10715
 AVG DBUS CONGESTED CYCLE: 3.686
WQ ROW_BUFFER_HIT: Channel 1 
  ROW_BUFFER_MISS:        778
  FULL:       4022
BERTI TO_L1: 1661 TO_L2: 16044 TO_L2_BC_MSHR: 8869
BERTI AVG_LAT: 11.7607 NUM_TRACK_LATENCY: 2154296 NUM_CANT_TRACK_LATENCY: 0
BERTI CROSS_PAGE 15330 NO_CROSS_PAGE: 2375
BERTI FOUND_BERTI: 1537115 NO_FOUND_BERTI: 21228102
BERTI AVERAGE_ISSUED: 3.27497
CPU 0 L1I Entangling prefetcher final stats
IP accesses: da2e 368b80 28833 / 8617357
IP misses: dabe 36af80 6680 / 1106300
IP hits: 0 0 0 / 0
IP late: 21e3 878c0 2653 / 518619
IP wrong: c733 31ccc0 3869 / 932914
miss rate: 0.128381
coverage: 0
coverage_late: 0.468787
accuracy: 0
accuracy_late: 0.357291
discarded: 0
evicts entangled j table: 0
evicts entangled k table: 201210
max bb size: 40
formats: 97970 0 117451 16652 14147 24267 0 
hist_lookups: 77431 105661 119211 125930 106947 78704 60611 39979 32926 22588 14463 10294 6678 3010 1900 0 0 210002 
hist_lookups_evict: 0 %
hist_lookups_shortlat: 20.6627 %
bb_found_hist: 0 2230206 925457 429910 153770 64732 26464 24806 10327 313 3957 1702 0 2551 2569 0 849 1588 0 849 0 0 0 0 0 0 0 0 0 0 0 0 0 0 0 849 0 1698 849 0 1698 0 0 0 0 0 0 0 0 0 0 0 0 0 0 0 0 0 0 0 0 0 0 0 
bb_found_summary: 7104304 3885144 1.82859
entangled_found_hist: 0 1551600 917062 1997737 184555 52926 25660 0 
entangled_found_summary: 10535745 4729540 2.22765
bb_ent_found_hist: 0 3332904 1780115 895600 345935 190948 56640 71341 26197 1517 15472 10897 0 14401 7268 0 1698 10712 0 1210 0 0 0 0 0 0 0 0 0 0 0 0 0 0 0 0 0 0 5861 0 2 0 0 0 0 0 0 0 0 0 0 0 0 0 0 0 0 0 0 0 0 0 0 0 
bb_ent_found_summary: 13999482 6768718 2.06827
