WARNING: physical memory size is smaller than virtual memory size.

*** ChampSim Multicore Out-of-Order Simulator ***
Warmup Instructions: 30000000
Simulation Instructions: 100000000
Number of CPUs: 1
Page size: 4096

BTB:
Basic BTB sets: 1024 ways: 8
Indirect:
history lengths: 0 0 10 16 27 44 60 96 109 219 449 487 714 1313 2146 3881 
ITTAGE tables: 64768 bytes;Region table: 240 bytes;IUM: 384 bytes;Total Storage= 65392 bytes;
RAS:
RAS size: 64
Berti Prefetcher
CPU 0 Entangling prefetcher
Off-chip DRAM Size: 8 GiB Channels: 2 Width: 64-bit Data Race: 6400 MT/s
Heartbeat CPU 0 instructions: 10000003 cycles: 1740736 heartbeat IPC: 5.745 cumulative IPC: 5.745 (Simulation time: 00 hr 00 min 45 sec)
Heartbeat CPU 0 instructions: 20000009 cycles: 3480969 heartbeat IPC: 5.746 cumulative IPC: 5.746 (Simulation time: 00 hr 01 min 30 sec)
Heartbeat CPU 0 instructions: 30000004 cycles: 5221739 heartbeat IPC: 5.745 cumulative IPC: 5.745 (Simulation time: 00 hr 02 min 15 sec)
Warmup finished CPU 0 instructions: 30000004 cycles: 5221740 cumulative IPC: 5.745 (Simulation time: 00 hr 02 min 15 sec)
Warmup complete CPU 0 instructions: 30000004 cycles: 5221740 cumulative IPC: 5.745 (Simulation time: 00 hr 02 min 15 sec)
*** Reached end of trace: (0, "../traces/public_traces/srv/srv_18.champsimtrace.xz")
Heartbeat CPU 0 instructions: 40000001 cycles: 9005013 heartbeat IPC: 2.643 cumulative IPC: 2.643 (Simulation time: 00 hr 03 min 22 sec)
Heartbeat CPU 0 instructions: 50000005 cycles: 12628025 heartbeat IPC: 2.76 cumulative IPC: 2.7 (Simulation time: 00 hr 04 min 28 sec)
Heartbeat CPU 0 instructions: 60000003 cycles: 16277860 heartbeat IPC: 2.74 cumulative IPC: 2.713 (Simulation time: 00 hr 05 min 36 sec)
*** Reached end of trace: (0, "../traces/public_traces/srv/srv_18.champsimtrace.xz")
Heartbeat CPU 0 instructions: 70000006 cycles: 19888845 heartbeat IPC: 2.769 cumulative IPC: 2.727 (Simulation time: 00 hr 06 min 39 sec)
Heartbeat CPU 0 instructions: 80000011 cycles: 23455999 heartbeat IPC: 2.803 cumulative IPC: 2.742 (Simulation time: 00 hr 07 min 41 sec)
Heartbeat CPU 0 instructions: 90000002 cycles: 27038542 heartbeat IPC: 2.791 cumulative IPC: 2.75 (Simulation time: 00 hr 08 min 48 sec)
*** Reached end of trace: (0, "../traces/public_traces/srv/srv_18.champsimtrace.xz")
Heartbeat CPU 0 instructions: 100000003 cycles: 30600258 heartbeat IPC: 2.808 cumulative IPC: 2.758 (Simulation time: 00 hr 09 min 51 sec)
Heartbeat CPU 0 instructions: 110000006 cycles: 34134563 heartbeat IPC: 2.829 cumulative IPC: 2.767 (Simulation time: 00 hr 10 min 53 sec)
Heartbeat CPU 0 instructions: 120000001 cycles: 37681076 heartbeat IPC: 2.82 cumulative IPC: 2.773 (Simulation time: 00 hr 11 min 56 sec)
*** Reached end of trace: (0, "../traces/public_traces/srv/srv_18.champsimtrace.xz")
Heartbeat CPU 0 instructions: 130000002 cycles: 41211777 heartbeat IPC: 2.832 cumulative IPC: 2.779 (Simulation time: 00 hr 12 min 58 sec)
Simulation finished CPU 0 instructions: 100000003 cycles: 35990039 cumulative IPC: 2.779 (Simulation time: 00 hr 12 min 58 sec)
Simulation complete CPU 0 instructions: 100000003 cycles: 35990039 cumulative IPC: 2.779 (Simulation time: 00 hr 12 min 58 sec)

ChampSim completed all CPUs

=== Simulation ===
CPU 0 runs ../traces/public_traces/srv/srv_18.champsimtrace.xz
Region of Interest Statistics

CPU 0 cumulative IPC: 2.779 instructions: 100000003 cycles: 35990039
CPU 0 Branch Prediction Accuracy: 95.33% MPKI: 8.45 Average ROB Occupancy at Mispredict: 48.88
Branch type MPKI
BRANCH_DIRECT_JUMP: 0.509
BRANCH_INDIRECT: 3.61
BRANCH_CONDITIONAL: 1.24
BRANCH_DIRECT_CALL: 1.6
BRANCH_INDIRECT_CALL: 0.258
BRANCH_RETURN: 1.24

LLC TOTAL        ACCESS:     148007 HIT:     127401 MISS:      20606
LLC LOAD         ACCESS:      66529 HIT:      56444 MISS:      10085
LLC RFO          ACCESS:      11487 HIT:       9640 MISS:       1847
LLC PREFETCH     ACCESS:      42672 HIT:      37036 MISS:       5636
LLC WRITE        ACCESS:      14116 HIT:      14024 MISS:         92
LLC TRANSLATION  ACCESS:      13203 HIT:      10257 MISS:       2946
LLC PREFETCH REQUESTED:          0 ISSUED:          0 USEFUL:          0 USELESS:          0
LLC AVERAGE MISS LATENCY: 145.1 cycles
cpu0_DTLB TOTAL        ACCESS:   19446438 HIT:   18280444 MISS:    1165994
cpu0_DTLB LOAD         ACCESS:   19446438 HIT:   18280444 MISS:    1165994
cpu0_DTLB RFO          ACCESS:          0 HIT:          0 MISS:          0
cpu0_DTLB PREFETCH     ACCESS:          0 HIT:          0 MISS:          0
cpu0_DTLB WRITE        ACCESS:          0 HIT:          0 MISS:          0
cpu0_DTLB TRANSLATION  ACCESS:          0 HIT:          0 MISS:          0
cpu0_DTLB PREFETCH REQUESTED:          0 ISSUED:          0 USEFUL:          0 USELESS:          0
cpu0_DTLB AVERAGE MISS LATENCY: 5.339 cycles
cpu0_ITLB TOTAL        ACCESS:   21748468 HIT:   20813132 MISS:     935336
cpu0_ITLB LOAD         ACCESS:   21748468 HIT:   20813132 MISS:     935336
cpu0_ITLB RFO          ACCESS:          0 HIT:          0 MISS:          0
cpu0_ITLB PREFETCH     ACCESS:          0 HIT:          0 MISS:          0
cpu0_ITLB WRITE        ACCESS:          0 HIT:          0 MISS:          0
cpu0_ITLB TRANSLATION  ACCESS:          0 HIT:          0 MISS:          0
cpu0_ITLB PREFETCH REQUESTED:          0 ISSUED:          0 USEFUL:          0 USELESS:          0
cpu0_ITLB AVERAGE MISS LATENCY: 3.94 cycles
cpu0_L1D TOTAL        ACCESS:   29857879 HIT:   24595673 MISS:    5262206
cpu0_L1D LOAD         ACCESS:   16529128 HIT:   13376958 MISS:    3152170
cpu0_L1D RFO          ACCESS:          0 HIT:          0 MISS:          0
cpu0_L1D PREFETCH     ACCESS:     263279 HIT:      58683 MISS:     204596
cpu0_L1D WRITE        ACCESS:   13044519 HIT:   11159453 MISS:    1885066
cpu0_L1D TRANSLATION  ACCESS:      20953 HIT:        579 MISS:      20374
cpu0_L1D PREFETCH REQUESTED:    1161567 ISSUED:     263279 USEFUL:       5562 USELESS:      11478
cpu0_L1D AVERAGE MISS LATENCY: 7.505 cycles
cpu0_L1I TOTAL        ACCESS:   31721673 HIT:   24498216 MISS:    7223457
cpu0_L1I LOAD         ACCESS:   10671254 HIT:    9187652 MISS:    1483602
cpu0_L1I RFO          ACCESS:          0 HIT:          0 MISS:          0
cpu0_L1I PREFETCH     ACCESS:   21050419 HIT:   15310564 MISS:    5739855
cpu0_L1I WRITE        ACCESS:          0 HIT:          0 MISS:          0
cpu0_L1I TRANSLATION  ACCESS:          0 HIT:          0 MISS:          0
cpu0_L1I PREFETCH REQUESTED:   33642271 ISSUED:   21050388 USEFUL:    4633917 USELESS:     932321
cpu0_L1I AVERAGE MISS LATENCY: 11.03 cycles
cpu0_L2C TOTAL        ACCESS:   18455643 HIT:   18300560 MISS:     155083
cpu0_L2C LOAD         ACCESS:    3323026 HIT:    3255403 MISS:      67623
cpu0_L2C RFO          ACCESS:     591714 HIT:     580206 MISS:      11508
cpu0_L2C PREFETCH     ACCESS:   13371608 HIT:   13308867 MISS:      62741
cpu0_L2C WRITE        ACCESS:    1149008 HIT:    1149002 MISS:          6
cpu0_L2C TRANSLATION  ACCESS:      20287 HIT:       7082 MISS:      13205
cpu0_L2C PREFETCH REQUESTED:    8946768 ISSUED:    7747853 USEFUL:       6041 USELESS:      30916
cpu0_L2C AVERAGE MISS LATENCY: 36.53 cycles
cpu0_STLB TOTAL        ACCESS:    1328730 HIT:    1314637 MISS:      14093
cpu0_STLB LOAD         ACCESS:    1328730 HIT:    1314637 MISS:      14093
cpu0_STLB RFO          ACCESS:          0 HIT:          0 MISS:          0
cpu0_STLB PREFETCH     ACCESS:          0 HIT:          0 MISS:          0
cpu0_STLB WRITE        ACCESS:          0 HIT:          0 MISS:          0
cpu0_STLB TRANSLATION  ACCESS:          0 HIT:          0 MISS:          0
cpu0_STLB PREFETCH REQUESTED:          0 ISSUED:          0 USEFUL:          0 USELESS:          0
cpu0_STLB AVERAGE MISS LATENCY: 79.11 cycles

DRAM Statistics

Channel 0 RQ ROW_BUFFER_HIT:       2368
  ROW_BUFFER_MISS:       8892
 AVG DBUS CONGESTED CYCLE: 3.409
WQ ROW_BUFFER_HIT: Channel 0 
  ROW_BUFFER_MISS:        168
  FULL:       1037

Channel 1 RQ ROW_BUFFER_HIT:       1836
  ROW_BUFFER_MISS:       7418
 AVG DBUS CONGESTED CYCLE: 3.34
WQ ROW_BUFFER_HIT: Channel 1 
  ROW_BUFFER_MISS:         95
  FULL:        815
BERTI TO_L1: 139137 TO_L2: 2521422 TO_L2_BC_MSHR: 1493284
BERTI AVG_LAT: 15.7751 NUM_TRACK_LATENCY: 2994832 NUM_CANT_TRACK_LATENCY: 0
BERTI CROSS_PAGE 801249 NO_CROSS_PAGE: 1859310
BERTI FOUND_BERTI: 1938075 NO_FOUND_BERTI: 19994191
BERTI AVERAGE_ISSUED: 2.47907
CPU 0 L1I Entangling prefetcher final stats
IP accesses: a3d2 28f480 44716 / 10685656
IP misses: 8fc6 23f180 9732 / 1498004
IP hits: 0 0 0 / 0
IP late: 9d10 274400 3278 / 724972
IP wrong: a3c6 28f180 4358 / 925324
miss rate: 0.140189
coverage: 0
coverage_late: 0.483959
accuracy: 0
accuracy_late: 0.439299
discarded: 0
evicts entangled j table: 0
evicts entangled k table: 243705
max bb size: 13
formats: 96659 31481 127159 24911 10726 27396 0 
hist_lookups: 67322 110069 134434 141026 130220 114379 94296 67385 51641 41700 30629 21277 13207 7813 3135 0 9 208961 
hist_lookups_evict: 0.000727271 %
hist_lookups_shortlat: 16.8857 %
bb_found_hist: 0 2730470 1129854 555737 210538 85072 90425 18339 1951 3072 6146 10353 0 1536 0 0 0 0 0 0 0 0 0 0 0 0 0 0 0 0 0 0 0 0 0 0 0 0 0 0 0 0 0 0 0 0 0 0 0 0 0 0 0 0 0 0 0 0 0 0 0 0 0 0 
bb_found_summary: 8834391 4843493 1.82398
entangled_found_hist: 0 1758670 1310075 2137994 300650 63933 30830 0 
entangled_found_summary: 12500047 5602152 2.2313
bb_ent_found_hist: 0 3926472 2308656 999932 513370 192128 217204 47616 11688 0 15475 40187 0 7301 0 0 0 0 0 0 0 0 0 0 0 0 0 0 0 0 0 0 0 0 0 0 0 0 0 0 0 0 0 0 0 0 0 0 0 0 0 0 0 0 0 0 0 0 0 0 0 0 0 0 
bb_ent_found_summary: 16979460 8280029 2.05066
