WARNING: physical memory size is smaller than virtual memory size.

*** ChampSim Multicore Out-of-Order Simulator ***
Warmup Instructions: 30000000
Simulation Instructions: 100000000
Number of CPUs: 1
Page size: 4096

BTB:
Basic BTB sets: 1024 ways: 8
Indirect:
history lengths: 0 0 10 16 27 44 60 96 109 219 449 487 714 1313 2146 3881 
ITTAGE tables: 64768 bytes;Region table: 240 bytes;IUM: 384 bytes;Total Storage= 65392 bytes;
RAS:
RAS size: 64
Berti Prefetcher
CPU 0 Entangling prefetcher
Off-chip DRAM Size: 8 GiB Channels: 2 Width: 64-bit Data Race: 6400 MT/s
Heartbeat CPU 0 instructions: 10000003 cycles: 1752869 heartbeat IPC: 5.705 cumulative IPC: 5.705 (Simulation time: 00 hr 00 min 45 sec)
Heartbeat CPU 0 instructions: 20000010 cycles: 3502486 heartbeat IPC: 5.716 cumulative IPC: 5.71 (Simulation time: 00 hr 01 min 30 sec)
Heartbeat CPU 0 instructions: 30000011 cycles: 5250377 heartbeat IPC: 5.721 cumulative IPC: 5.714 (Simulation time: 00 hr 02 min 15 sec)
Warmup finished CPU 0 instructions: 30000011 cycles: 5250378 cumulative IPC: 5.714 (Simulation time: 00 hr 02 min 15 sec)
Warmup complete CPU 0 instructions: 30000011 cycles: 5250378 cumulative IPC: 5.714 (Simulation time: 00 hr 02 min 15 sec)
*** Reached end of trace: (0, "../traces/public_traces/srv/srv_15.champsimtrace.xz")
Heartbeat CPU 0 instructions: 40000008 cycles: 8724953 heartbeat IPC: 2.878 cumulative IPC: 2.878 (Simulation time: 00 hr 03 min 17 sec)
Heartbeat CPU 0 instructions: 50000001 cycles: 12229016 heartbeat IPC: 2.854 cumulative IPC: 2.866 (Simulation time: 00 hr 04 min 17 sec)
Heartbeat CPU 0 instructions: 60000005 cycles: 15620814 heartbeat IPC: 2.948 cumulative IPC: 2.893 (Simulation time: 00 hr 05 min 19 sec)
*** Reached end of trace: (0, "../traces/public_traces/srv/srv_15.champsimtrace.xz")
Heartbeat CPU 0 instructions: 70000010 cycles: 19060594 heartbeat IPC: 2.907 cumulative IPC: 2.896 (Simulation time: 00 hr 06 min 20 sec)
Heartbeat CPU 0 instructions: 80000010 cycles: 22537841 heartbeat IPC: 2.876 cumulative IPC: 2.892 (Simulation time: 00 hr 07 min 21 sec)
Heartbeat CPU 0 instructions: 90000009 cycles: 25897776 heartbeat IPC: 2.976 cumulative IPC: 2.906 (Simulation time: 00 hr 08 min 22 sec)
*** Reached end of trace: (0, "../traces/public_traces/srv/srv_15.champsimtrace.xz")
Heartbeat CPU 0 instructions: 100000008 cycles: 29346539 heartbeat IPC: 2.9 cumulative IPC: 2.905 (Simulation time: 00 hr 09 min 24 sec)
Heartbeat CPU 0 instructions: 110000006 cycles: 32763675 heartbeat IPC: 2.926 cumulative IPC: 2.908 (Simulation time: 00 hr 10 min 25 sec)
Heartbeat CPU 0 instructions: 120000002 cycles: 36161085 heartbeat IPC: 2.943 cumulative IPC: 2.912 (Simulation time: 00 hr 11 min 26 sec)
*** Reached end of trace: (0, "../traces/public_traces/srv/srv_15.champsimtrace.xz")
Heartbeat CPU 0 instructions: 130000010 cycles: 39625345 heartbeat IPC: 2.887 cumulative IPC: 2.909 (Simulation time: 00 hr 12 min 27 sec)
Simulation finished CPU 0 instructions: 100000001 cycles: 34374969 cumulative IPC: 2.909 (Simulation time: 00 hr 12 min 27 sec)
Simulation complete CPU 0 instructions: 100000001 cycles: 34374969 cumulative IPC: 2.909 (Simulation time: 00 hr 12 min 27 sec)

ChampSim completed all CPUs

=== Simulation ===
CPU 0 runs ../traces/public_traces/srv/srv_15.champsimtrace.xz
Region of Interest Statistics

CPU 0 cumulative IPC: 2.909 instructions: 100000001 cycles: 34374969
CPU 0 Branch Prediction Accuracy: 95.36% MPKI: 8.371 Average ROB Occupancy at Mispredict: 42.68
Branch type MPKI
BRANCH_DIRECT_JUMP: 0.58
BRANCH_INDIRECT: 3.4
BRANCH_CONDITIONAL: 1.17
BRANCH_DIRECT_CALL: 1.65
BRANCH_INDIRECT_CALL: 0.272
BRANCH_RETURN: 1.29

LLC TOTAL        ACCESS:      46558 HIT:      45547 MISS:       1011
LLC LOAD         ACCESS:      23336 HIT:      23092 MISS:        244
LLC RFO          ACCESS:       3544 HIT:       3543 MISS:          1
LLC PREFETCH     ACCESS:      14348 HIT:      13674 MISS:        674
LLC WRITE        ACCESS:       4967 HIT:       4966 MISS:          1
LLC TRANSLATION  ACCESS:        363 HIT:        272 MISS:         91
LLC PREFETCH REQUESTED:          0 ISSUED:          0 USEFUL:          0 USELESS:          0
LLC AVERAGE MISS LATENCY: 154 cycles
cpu0_DTLB TOTAL        ACCESS:   19440609 HIT:   18427667 MISS:    1012942
cpu0_DTLB LOAD         ACCESS:   19440609 HIT:   18427667 MISS:    1012942
cpu0_DTLB RFO          ACCESS:          0 HIT:          0 MISS:          0
cpu0_DTLB PREFETCH     ACCESS:          0 HIT:          0 MISS:          0
cpu0_DTLB WRITE        ACCESS:          0 HIT:          0 MISS:          0
cpu0_DTLB TRANSLATION  ACCESS:          0 HIT:          0 MISS:          0
cpu0_DTLB PREFETCH REQUESTED:          0 ISSUED:          0 USEFUL:          0 USELESS:          0
cpu0_DTLB AVERAGE MISS LATENCY: 4.791 cycles
cpu0_ITLB TOTAL        ACCESS:   22511589 HIT:   21495529 MISS:    1016060
cpu0_ITLB LOAD         ACCESS:   22511589 HIT:   21495529 MISS:    1016060
cpu0_ITLB RFO          ACCESS:          0 HIT:          0 MISS:          0
cpu0_ITLB PREFETCH     ACCESS:          0 HIT:          0 MISS:          0
cpu0_ITLB WRITE        ACCESS:          0 HIT:          0 MISS:          0
cpu0_ITLB TRANSLATION  ACCESS:          0 HIT:          0 MISS:          0
cpu0_ITLB PREFETCH REQUESTED:          0 ISSUED:          0 USEFUL:          0 USELESS:          0
cpu0_ITLB AVERAGE MISS LATENCY: 3.764 cycles
cpu0_L1D TOTAL        ACCESS:   29964620 HIT:   25012231 MISS:    4952389
cpu0_L1D LOAD         ACCESS:   16468036 HIT:   13532608 MISS:    2935428
cpu0_L1D RFO          ACCESS:          0 HIT:          0 MISS:          0
cpu0_L1D PREFETCH     ACCESS:     231841 HIT:      89843 MISS:     141998
cpu0_L1D WRITE        ACCESS:   13263664 HIT:   11389774 MISS:    1873890
cpu0_L1D TRANSLATION  ACCESS:       1079 HIT:          6 MISS:       1073
cpu0_L1D PREFETCH REQUESTED:    1126954 ISSUED:     231841 USEFUL:      14433 USELESS:       1904
cpu0_L1D AVERAGE MISS LATENCY: 6.77 cycles
cpu0_L1I TOTAL        ACCESS:   32860503 HIT:   25155028 MISS:    7705475
cpu0_L1I LOAD         ACCESS:   10896944 HIT:    8992044 MISS:    1904900
cpu0_L1I RFO          ACCESS:          0 HIT:          0 MISS:          0
cpu0_L1I PREFETCH     ACCESS:   21963559 HIT:   16162984 MISS:    5800575
cpu0_L1I WRITE        ACCESS:          0 HIT:          0 MISS:          0
cpu0_L1I TRANSLATION  ACCESS:          0 HIT:          0 MISS:          0
cpu0_L1I PREFETCH REQUESTED:   38863979 ISSUED:   21963558 USEFUL:    4543370 USELESS:    1066062
cpu0_L1I AVERAGE MISS LATENCY: 10.93 cycles
cpu0_L2C TOTAL        ACCESS:   18628955 HIT:   18581154 MISS:      47801
cpu0_L2C LOAD         ACCESS:    3459547 HIT:    3435915 MISS:      23632
cpu0_L2C RFO          ACCESS:     587362 HIT:     583804 MISS:       3558
cpu0_L2C PREFETCH     ACCESS:   13424118 HIT:   13403870 MISS:      20248
cpu0_L2C WRITE        ACCESS:    1156857 HIT:    1156857 MISS:          0
cpu0_L2C TRANSLATION  ACCESS:       1071 HIT:        708 MISS:        363
cpu0_L2C PREFETCH REQUESTED:    9117034 ISSUED:    7766623 USEFUL:       2862 USELESS:       7437
cpu0_L2C AVERAGE MISS LATENCY: 20.62 cycles
cpu0_STLB TOTAL        ACCESS:    1284455 HIT:    1283445 MISS:       1010
cpu0_STLB LOAD         ACCESS:    1284455 HIT:    1283445 MISS:       1010
cpu0_STLB RFO          ACCESS:          0 HIT:          0 MISS:          0
cpu0_STLB PREFETCH     ACCESS:          0 HIT:          0 MISS:          0
cpu0_STLB WRITE        ACCESS:          0 HIT:          0 MISS:          0
cpu0_STLB TRANSLATION  ACCESS:          0 HIT:          0 MISS:          0
cpu0_STLB PREFETCH REQUESTED:          0 ISSUED:          0 USEFUL:          0 USELESS:          0
cpu0_STLB AVERAGE MISS LATENCY: 47.98 cycles

DRAM Statistics

Channel 0 RQ ROW_BUFFER_HIT:         65
  ROW_BUFFER_MISS:        396
 AVG DBUS CONGESTED CYCLE: 3.528
WQ ROW_BUFFER_HIT: Channel 0 
  ROW_BUFFER_MISS:          0
  FULL:          1

Channel 1 RQ ROW_BUFFER_HIT:         79
  ROW_BUFFER_MISS:        470
 AVG DBUS CONGESTED CYCLE: 3.596
WQ ROW_BUFFER_HIT: Channel 1 
  ROW_BUFFER_MISS:          0
  FULL:          0
BERTI TO_L1: 160632 TO_L2: 2213439 TO_L2_BC_MSHR: 1225672
BERTI AVG_LAT: 14.3293 NUM_TRACK_LATENCY: 2836428 NUM_CANT_TRACK_LATENCY: 0
BERTI CROSS_PAGE 689324 NO_CROSS_PAGE: 1684747
BERTI FOUND_BERTI: 1681713 NO_FOUND_BERTI: 20161454
BERTI AVERAGE_ISSUED: 2.48167
CPU 0 L1I Entangling prefetcher final stats
IP accesses: a3d2 28f480 46376 / 10948205
IP misses: 5641 159040 10093 / 1956161
IP hits: 0 0 0 / 0
IP late: 9d10 274400 3210 / 925282
IP wrong: 26c0 9b000 5364 / 1056997
miss rate: 0.178675
coverage: 0
coverage_late: 0.47301
accuracy: 0
accuracy_late: 0.466777
discarded: 0
evicts entangled j table: 0
evicts entangled k table: 293799
max bb size: 13
formats: 105175 29982 163999 33529 14464 36183 0 
hist_lookups: 70653 117262 150725 163687 151916 130894 106769 83308 71619 58606 44417 31628 20239 10819 4725 0 48 333757 
hist_lookups_evict: 0.00309464 %
hist_lookups_shortlat: 21.5179 %
bb_found_hist: 0 2972671 1236789 598924 266092 121521 89985 31253 21634 1629 6953 4649 4880 1550 0 0 0 0 0 0 0 0 0 0 0 0 0 0 0 0 0 0 0 0 0 0 0 0 0 0 0 0 0 0 0 0 0 0 0 0 0 0 0 0 0 0 0 0 0 0 0 0 0 0 
bb_found_summary: 10060787 5358530 1.87753
entangled_found_hist: 0 1861796 1405009 2578070 319019 87983 39674 0 
entangled_found_summary: 14360059 6291551 2.28244
bb_ent_found_hist: 0 4453545 2590605 1147546 659901 268721 232488 119243 22571 5442 17489 32195 15572 9793 0 0 0 0 0 0 0 0 0 0 0 0 0 0 0 0 0 0 0 0 0 0 0 0 0 0 0 0 0 0 0 0 0 0 0 0 0 0 0 0 0 0 0 0 0 0 0 0 0 0 
bb_ent_found_summary: 20362985 9575111 2.12666
