WARNING: physical memory size is smaller than virtual memory size.

*** ChampSim Multicore Out-of-Order Simulator ***
Warmup Instructions: 30000000
Simulation Instructions: 100000000
Number of CPUs: 1
Page size: 4096

BTB:
Basic BTB sets: 1024 ways: 8
Indirect:
history lengths: 0 0 10 16 27 44 60 96 109 219 449 487 714 1313 2146 3881 
ITTAGE tables: 64768 bytes;Region table: 240 bytes;IUM: 384 bytes;Total Storage= 65392 bytes;
RAS:
RAS size: 64
Berti Prefetcher
CPU 0 Entangling prefetcher
Off-chip DRAM Size: 8 GiB Channels: 2 Width: 64-bit Data Race: 6400 MT/s
Heartbeat CPU 0 instructions: 10000009 cycles: 2115348 heartbeat IPC: 4.727 cumulative IPC: 4.727 (Simulation time: 00 hr 00 min 47 sec)
Heartbeat CPU 0 instructions: 20000000 cycles: 4211405 heartbeat IPC: 4.771 cumulative IPC: 4.749 (Simulation time: 00 hr 01 min 35 sec)
Heartbeat CPU 0 instructions: 30000007 cycles: 6302368 heartbeat IPC: 4.782 cumulative IPC: 4.76 (Simulation time: 00 hr 02 min 35 sec)
Warmup finished CPU 0 instructions: 30000007 cycles: 6302369 cumulative IPC: 4.76 (Simulation time: 00 hr 02 min 35 sec)
Warmup complete CPU 0 instructions: 30000007 cycles: 6302369 cumulative IPC: 4.76 (Simulation time: 00 hr 02 min 35 sec)
*** Reached end of trace: (0, "../traces/public_traces/srv/srv_37.champsimtrace.xz")
Heartbeat CPU 0 instructions: 40000008 cycles: 12964674 heartbeat IPC: 1.501 cumulative IPC: 1.501 (Simulation time: 00 hr 04 min 42 sec)
Heartbeat CPU 0 instructions: 50000010 cycles: 19572324 heartbeat IPC: 1.513 cumulative IPC: 1.507 (Simulation time: 00 hr 06 min 41 sec)
Heartbeat CPU 0 instructions: 60000008 cycles: 25942189 heartbeat IPC: 1.57 cumulative IPC: 1.528 (Simulation time: 00 hr 08 min 36 sec)
*** Reached end of trace: (0, "../traces/public_traces/srv/srv_37.champsimtrace.xz")
Heartbeat CPU 0 instructions: 70000003 cycles: 32462522 heartbeat IPC: 1.534 cumulative IPC: 1.529 (Simulation time: 00 hr 10 min 32 sec)
Heartbeat CPU 0 instructions: 80000001 cycles: 39154438 heartbeat IPC: 1.494 cumulative IPC: 1.522 (Simulation time: 00 hr 12 min 14 sec)
Heartbeat CPU 0 instructions: 90000010 cycles: 45699464 heartbeat IPC: 1.528 cumulative IPC: 1.523 (Simulation time: 00 hr 13 min 59 sec)
*** Reached end of trace: (0, "../traces/public_traces/srv/srv_37.champsimtrace.xz")
Heartbeat CPU 0 instructions: 100000006 cycles: 52048496 heartbeat IPC: 1.575 cumulative IPC: 1.53 (Simulation time: 00 hr 15 min 45 sec)
Heartbeat CPU 0 instructions: 110000005 cycles: 58828218 heartbeat IPC: 1.475 cumulative IPC: 1.523 (Simulation time: 00 hr 17 min 28 sec)
Heartbeat CPU 0 instructions: 120000003 cycles: 65409841 heartbeat IPC: 1.519 cumulative IPC: 1.523 (Simulation time: 00 hr 19 min 16 sec)
*** Reached end of trace: (0, "../traces/public_traces/srv/srv_37.champsimtrace.xz")
Heartbeat CPU 0 instructions: 130000001 cycles: 71754078 heartbeat IPC: 1.576 cumulative IPC: 1.528 (Simulation time: 00 hr 21 min 25 sec)
Simulation finished CPU 0 instructions: 100000006 cycles: 65451711 cumulative IPC: 1.528 (Simulation time: 00 hr 21 min 25 sec)
Simulation complete CPU 0 instructions: 100000006 cycles: 65451711 cumulative IPC: 1.528 (Simulation time: 00 hr 21 min 25 sec)

ChampSim completed all CPUs

=== Simulation ===
CPU 0 runs ../traces/public_traces/srv/srv_37.champsimtrace.xz
Region of Interest Statistics

CPU 0 cumulative IPC: 1.528 instructions: 100000006 cycles: 65451711
CPU 0 Branch Prediction Accuracy: 99.87% MPKI: 0.2023 Average ROB Occupancy at Mispredict: 204
Branch type MPKI
BRANCH_DIRECT_JUMP: 0.00048
BRANCH_INDIRECT: 0.148
BRANCH_CONDITIONAL: 0.0494
BRANCH_DIRECT_CALL: 0.0015
BRANCH_INDIRECT_CALL: 0.00012
BRANCH_RETURN: 0.00245

LLC TOTAL        ACCESS:    4720766 HIT:    2760698 MISS:    1960068
LLC LOAD         ACCESS:     499144 HIT:     342040 MISS:     157104
LLC RFO          ACCESS:    1595677 HIT:     274037 MISS:    1321640
LLC PREFETCH     ACCESS:     788073 HIT:     327700 MISS:     460373
LLC WRITE        ACCESS:    1824239 HIT:    1814836 MISS:       9403
LLC TRANSLATION  ACCESS:      13633 HIT:       2085 MISS:      11548
LLC PREFETCH REQUESTED:          0 ISSUED:          0 USEFUL:          0 USELESS:          0
LLC AVERAGE MISS LATENCY: 340.9 cycles
cpu0_DTLB TOTAL        ACCESS:   18254952 HIT:   17217064 MISS:    1037888
cpu0_DTLB LOAD         ACCESS:   18254952 HIT:   17217064 MISS:    1037888
cpu0_DTLB RFO          ACCESS:          0 HIT:          0 MISS:          0
cpu0_DTLB PREFETCH     ACCESS:          0 HIT:          0 MISS:          0
cpu0_DTLB WRITE        ACCESS:          0 HIT:          0 MISS:          0
cpu0_DTLB TRANSLATION  ACCESS:          0 HIT:          0 MISS:          0
cpu0_DTLB PREFETCH REQUESTED:          0 ISSUED:          0 USEFUL:          0 USELESS:          0
cpu0_DTLB AVERAGE MISS LATENCY: 8.391 cycles
cpu0_ITLB TOTAL        ACCESS:   14851020 HIT:   14827526 MISS:      23494
cpu0_ITLB LOAD         ACCESS:   14851020 HIT:   14827526 MISS:      23494
cpu0_ITLB RFO          ACCESS:          0 HIT:          0 MISS:          0
cpu0_ITLB PREFETCH     ACCESS:          0 HIT:          0 MISS:          0
cpu0_ITLB WRITE        ACCESS:          0 HIT:          0 MISS:          0
cpu0_ITLB TRANSLATION  ACCESS:          0 HIT:          0 MISS:          0
cpu0_ITLB PREFETCH REQUESTED:          0 ISSUED:          0 USEFUL:          0 USELESS:          0
cpu0_ITLB AVERAGE MISS LATENCY: 25.36 cycles
cpu0_L1D TOTAL        ACCESS:   33323112 HIT:   20298921 MISS:   13024191
cpu0_L1D LOAD         ACCESS:   13042676 HIT:   10207311 MISS:    2835365
cpu0_L1D RFO          ACCESS:          0 HIT:          0 MISS:          0
cpu0_L1D PREFETCH     ACCESS:    3224966 HIT:    1133568 MISS:    2091398
cpu0_L1D WRITE        ACCESS:   17020728 HIT:    8944995 MISS:    8075733
cpu0_L1D TRANSLATION  ACCESS:      34742 HIT:      13047 MISS:      21695
cpu0_L1D PREFETCH REQUESTED:   18524433 ISSUED:    3224966 USEFUL:     300594 USELESS:      46510
cpu0_L1D AVERAGE MISS LATENCY: 48.33 cycles
cpu0_L1I TOTAL        ACCESS:   21595302 HIT:   15261497 MISS:    6333805
cpu0_L1I LOAD         ACCESS:   11186743 HIT:    6447078 MISS:    4739665
cpu0_L1I RFO          ACCESS:          0 HIT:          0 MISS:          0
cpu0_L1I PREFETCH     ACCESS:   10408559 HIT:    8814419 MISS:    1594140
cpu0_L1I WRITE        ACCESS:          0 HIT:          0 MISS:          0
cpu0_L1I TRANSLATION  ACCESS:          0 HIT:          0 MISS:          0
cpu0_L1I PREFETCH REQUESTED:   33448196 ISSUED:   10408591 USEFUL:    1286796 USELESS:     152229
cpu0_L1I AVERAGE MISS LATENCY: 9.544 cycles
cpu0_L2C TOTAL        ACCESS:   17141590 HIT:   12408279 MISS:    4733311
cpu0_L2C LOAD         ACCESS:    4523926 HIT:    3937102 MISS:     586824
cpu0_L2C RFO          ACCESS:    1834385 HIT:     238318 MISS:    1596067
cpu0_L2C PREFETCH     ACCESS:    8565769 HIT:    6029001 MISS:    2536768
cpu0_L2C WRITE        ACCESS:    2195974 HIT:    2195955 MISS:         19
cpu0_L2C TRANSLATION  ACCESS:      21536 HIT:       7903 MISS:      13633
cpu0_L2C PREFETCH REQUESTED:    7557537 ISSUED:    5535204 USEFUL:     125251 USELESS:     178680
cpu0_L2C AVERAGE MISS LATENCY: 150.2 cycles
cpu0_STLB TOTAL        ACCESS:     513715 HIT:     482800 MISS:      30915
cpu0_STLB LOAD         ACCESS:     513715 HIT:     482800 MISS:      30915
cpu0_STLB RFO          ACCESS:          0 HIT:          0 MISS:          0
cpu0_STLB PREFETCH     ACCESS:          0 HIT:          0 MISS:          0
cpu0_STLB WRITE        ACCESS:          0 HIT:          0 MISS:          0
cpu0_STLB TRANSLATION  ACCESS:          0 HIT:          0 MISS:          0
cpu0_STLB PREFETCH REQUESTED:          0 ISSUED:          0 USEFUL:          0 USELESS:          0
cpu0_STLB AVERAGE MISS LATENCY: 236.7 cycles

DRAM Statistics

Channel 0 RQ ROW_BUFFER_HIT:     359778
  ROW_BUFFER_MISS:     627810
 AVG DBUS CONGESTED CYCLE: 3.964
WQ ROW_BUFFER_HIT: Channel 0 
  ROW_BUFFER_MISS:      55654
  FULL:     647134

Channel 1 RQ ROW_BUFFER_HIT:     364807
  ROW_BUFFER_MISS:     596905
 AVG DBUS CONGESTED CYCLE: 3.957
WQ ROW_BUFFER_HIT: Channel 1 
  ROW_BUFFER_MISS:      61348
  FULL:     623882
BERTI TO_L1: 3675089 TO_L2: 17903724 TO_L2_BC_MSHR: 9119217
BERTI AVG_LAT: 81.6033 NUM_TRACK_LATENCY: 2131763 NUM_CANT_TRACK_LATENCY: 2
BERTI CROSS_PAGE 2736393 NO_CROSS_PAGE: 18842420
BERTI FOUND_BERTI: 4740149 NO_FOUND_BERTI: 15900372
BERTI AVERAGE_ISSUED: 4.81669
CPU 0 L1I Entangling prefetcher final stats
IP accesses: 5cd0 173400 136884 / 11309470
IP misses: 13dd 4f740 18536 / 4862392
IP hits: 0 0 0 / 0
IP late: 9d3d 274f40 8610 / 2075012
IP wrong: 9d3e 274f80 5829 / 146831
miss rate: 0.42994
coverage: 0
coverage_late: 0.426748
accuracy: 0
accuracy_late: 0.933915
discarded: 0
evicts entangled j table: 0
evicts entangled k table: 351380
max bb size: 13
formats: 63148 0 246573 84221 34290 53345 0 
hist_lookups: 49487 131632 232942 303352 273027 240250 173704 138075 133969 120925 95121 63487 41020 21833 5999 0 465 787475 
hist_lookups_evict: 0.0165318 %
hist_lookups_shortlat: 27.9965 %
bb_found_hist: 0 2528860 1183961 445736 222496 116517 66618 33654 7601 4912 0 564 0 4455 0 0 0 0 0 0 0 0 0 0 0 0 0 0 0 0 0 0 0 0 0 0 0 0 0 0 0 0 0 0 0 0 0 0 0 0 0 0 0 0 0 0 0 0 0 0 0 0 0 0 
bb_found_summary: 8510980 4615374 1.84405
entangled_found_hist: 0 1235966 748951 2322539 550054 72263 36901 0 
entangled_found_summary: 12484422 4966674 2.51364
bb_ent_found_hist: 0 3886596 2456406 1089115 570936 232918 205460 83816 28891 3319 0 4693 0 18316 0 0 0 0 0 0 0 0 0 0 0 0 0 0 0 0 0 0 0 0 0 0 0 0 0 0 0 0 0 0 0 0 0 0 0 0 0 0 0 0 0 0 0 0 0 0 0 0 0 0 
bb_ent_found_summary: 17885289 8580466 2.08442
