WARNING: physical memory size is smaller than virtual memory size.

*** ChampSim Multicore Out-of-Order Simulator ***
Warmup Instructions: 30000000
Simulation Instructions: 100000000
Number of CPUs: 1
Page size: 4096

BTB:
Basic BTB sets: 1024 ways: 8
Indirect:
history lengths: 0 0 10 16 27 44 60 96 109 219 449 487 714 1313 2146 3881 
ITTAGE tables: 64768 bytes;Region table: 240 bytes;IUM: 384 bytes;Total Storage= 65392 bytes;
RAS:
RAS size: 64
Berti Prefetcher
CPU 0 Entangling prefetcher
Off-chip DRAM Size: 8 GiB Channels: 2 Width: 64-bit Data Race: 6400 MT/s
Heartbeat CPU 0 instructions: 10000004 cycles: 1730874 heartbeat IPC: 5.777 cumulative IPC: 5.777 (Simulation time: 00 hr 00 min 41 sec)
Heartbeat CPU 0 instructions: 20000000 cycles: 3482352 heartbeat IPC: 5.709 cumulative IPC: 5.743 (Simulation time: 00 hr 01 min 27 sec)
Heartbeat CPU 0 instructions: 30000006 cycles: 5221219 heartbeat IPC: 5.751 cumulative IPC: 5.746 (Simulation time: 00 hr 02 min 11 sec)
Warmup finished CPU 0 instructions: 30000006 cycles: 5221220 cumulative IPC: 5.746 (Simulation time: 00 hr 02 min 11 sec)
Warmup complete CPU 0 instructions: 30000006 cycles: 5221220 cumulative IPC: 5.746 (Simulation time: 00 hr 02 min 11 sec)
*** Reached end of trace: (0, "../traces/public_traces/srv/srv_49.champsimtrace.xz")
Heartbeat CPU 0 instructions: 40000009 cycles: 9311501 heartbeat IPC: 2.445 cumulative IPC: 2.445 (Simulation time: 00 hr 03 min 18 sec)
Heartbeat CPU 0 instructions: 50000001 cycles: 13891983 heartbeat IPC: 2.183 cumulative IPC: 2.307 (Simulation time: 00 hr 04 min 43 sec)
Heartbeat CPU 0 instructions: 60000003 cycles: 17868744 heartbeat IPC: 2.515 cumulative IPC: 2.372 (Simulation time: 00 hr 05 min 59 sec)
*** Reached end of trace: (0, "../traces/public_traces/srv/srv_49.champsimtrace.xz")
Heartbeat CPU 0 instructions: 70000002 cycles: 22187826 heartbeat IPC: 2.315 cumulative IPC: 2.358 (Simulation time: 00 hr 07 min 11 sec)
Heartbeat CPU 0 instructions: 80000008 cycles: 26333234 heartbeat IPC: 2.412 cumulative IPC: 2.368 (Simulation time: 00 hr 08 min 21 sec)
Heartbeat CPU 0 instructions: 90000002 cycles: 30483113 heartbeat IPC: 2.41 cumulative IPC: 2.375 (Simulation time: 00 hr 09 min 26 sec)
*** Reached end of trace: (0, "../traces/public_traces/srv/srv_49.champsimtrace.xz")
Heartbeat CPU 0 instructions: 100000008 cycles: 34893241 heartbeat IPC: 2.268 cumulative IPC: 2.359 (Simulation time: 00 hr 10 min 32 sec)
Heartbeat CPU 0 instructions: 110000000 cycles: 38804712 heartbeat IPC: 2.557 cumulative IPC: 2.382 (Simulation time: 00 hr 11 min 43 sec)
Heartbeat CPU 0 instructions: 120000006 cycles: 43202493 heartbeat IPC: 2.274 cumulative IPC: 2.37 (Simulation time: 00 hr 12 min 55 sec)
*** Reached end of trace: (0, "../traces/public_traces/srv/srv_49.champsimtrace.xz")
Heartbeat CPU 0 instructions: 130000011 cycles: 47249311 heartbeat IPC: 2.471 cumulative IPC: 2.379 (Simulation time: 00 hr 14 min 03 sec)
Simulation finished CPU 0 instructions: 100000005 cycles: 42028092 cumulative IPC: 2.379 (Simulation time: 00 hr 14 min 03 sec)
Simulation complete CPU 0 instructions: 100000005 cycles: 42028092 cumulative IPC: 2.379 (Simulation time: 00 hr 14 min 03 sec)

ChampSim completed all CPUs

=== Simulation ===
CPU 0 runs ../traces/public_traces/srv/srv_49.champsimtrace.xz
Region of Interest Statistics

CPU 0 cumulative IPC: 2.379 instructions: 100000005 cycles: 42028092
CPU 0 Branch Prediction Accuracy: 95.13% MPKI: 8.781 Average ROB Occupancy at Mispredict: 29.9
Branch type MPKI
BRANCH_DIRECT_JUMP: 0.739
BRANCH_INDIRECT: 4.07
BRANCH_CONDITIONAL: 1.19
BRANCH_DIRECT_CALL: 1.35
BRANCH_INDIRECT_CALL: 0.489
BRANCH_RETURN: 0.932

LLC TOTAL        ACCESS:     862132 HIT:     564401 MISS:     297731
LLC LOAD         ACCESS:     136069 HIT:      61774 MISS:      74295
LLC RFO          ACCESS:     143181 HIT:      76161 MISS:      67020
LLC PREFETCH     ACCESS:     330573 HIT:     205406 MISS:     125167
LLC WRITE        ACCESS:     215695 HIT:     212788 MISS:       2907
LLC TRANSLATION  ACCESS:      36614 HIT:       8272 MISS:      28342
LLC PREFETCH REQUESTED:          0 ISSUED:          0 USEFUL:          0 USELESS:          0
LLC AVERAGE MISS LATENCY: 158.7 cycles
cpu0_DTLB TOTAL        ACCESS:   18846930 HIT:   18410605 MISS:     436325
cpu0_DTLB LOAD         ACCESS:   18846930 HIT:   18410605 MISS:     436325
cpu0_DTLB RFO          ACCESS:          0 HIT:          0 MISS:          0
cpu0_DTLB PREFETCH     ACCESS:          0 HIT:          0 MISS:          0
cpu0_DTLB WRITE        ACCESS:          0 HIT:          0 MISS:          0
cpu0_DTLB TRANSLATION  ACCESS:          0 HIT:          0 MISS:          0
cpu0_DTLB PREFETCH REQUESTED:          0 ISSUED:          0 USEFUL:          0 USELESS:          0
cpu0_DTLB AVERAGE MISS LATENCY: 17.73 cycles
cpu0_ITLB TOTAL        ACCESS:   16467536 HIT:   16098857 MISS:     368679
cpu0_ITLB LOAD         ACCESS:   16467536 HIT:   16098857 MISS:     368679
cpu0_ITLB RFO          ACCESS:          0 HIT:          0 MISS:          0
cpu0_ITLB PREFETCH     ACCESS:          0 HIT:          0 MISS:          0
cpu0_ITLB WRITE        ACCESS:          0 HIT:          0 MISS:          0
cpu0_ITLB TRANSLATION  ACCESS:          0 HIT:          0 MISS:          0
cpu0_ITLB PREFETCH REQUESTED:          0 ISSUED:          0 USEFUL:          0 USELESS:          0
cpu0_ITLB AVERAGE MISS LATENCY: 5.721 cycles
cpu0_L1D TOTAL        ACCESS:   30553417 HIT:   27609393 MISS:    2944024
cpu0_L1D LOAD         ACCESS:   18294188 HIT:   17148706 MISS:    1145482
cpu0_L1D RFO          ACCESS:          0 HIT:          0 MISS:          0
cpu0_L1D PREFETCH     ACCESS:     639903 HIT:     425268 MISS:     214635
cpu0_L1D WRITE        ACCESS:   11574640 HIT:   10033132 MISS:    1541508
cpu0_L1D TRANSLATION  ACCESS:      44686 HIT:       2287 MISS:      42399
cpu0_L1D PREFETCH REQUESTED:    1273665 ISSUED:     639903 USEFUL:      13961 USELESS:       5366
cpu0_L1D AVERAGE MISS LATENCY: 14.47 cycles
cpu0_L1I TOTAL        ACCESS:   24084787 HIT:   20696182 MISS:    3388605
cpu0_L1I LOAD         ACCESS:    8460080 HIT:    7714552 MISS:     745528
cpu0_L1I RFO          ACCESS:          0 HIT:          0 MISS:          0
cpu0_L1I PREFETCH     ACCESS:   15624707 HIT:   12981630 MISS:    2643077
cpu0_L1I WRITE        ACCESS:          0 HIT:          0 MISS:          0
cpu0_L1I TRANSLATION  ACCESS:          0 HIT:          0 MISS:          0
cpu0_L1I PREFETCH REQUESTED:   31330479 ISSUED:   15624680 USEFUL:    1786964 USELESS:     760610
cpu0_L1I AVERAGE MISS LATENCY: 11.84 cycles
cpu0_L2C TOTAL        ACCESS:    8873191 HIT:    8080741 MISS:     792450
cpu0_L2C LOAD         ACCESS:    1274531 HIT:    1127886 MISS:     146645
cpu0_L2C RFO          ACCESS:     358331 HIT:     213870 MISS:     144461
cpu0_L2C PREFETCH     ACCESS:    6631223 HIT:    6166508 MISS:     464715
cpu0_L2C WRITE        ACCESS:     568261 HIT:     568246 MISS:         15
cpu0_L2C TRANSLATION  ACCESS:      40845 HIT:       4231 MISS:      36614
cpu0_L2C PREFETCH REQUESTED:    4036799 ISSUED:    3873956 USEFUL:      78982 USELESS:     109581
cpu0_L2C AVERAGE MISS LATENCY: 75.5 cycles
cpu0_STLB TOTAL        ACCESS:     500849 HIT:     472095 MISS:      28754
cpu0_STLB LOAD         ACCESS:     500849 HIT:     472095 MISS:      28754
cpu0_STLB RFO          ACCESS:          0 HIT:          0 MISS:          0
cpu0_STLB PREFETCH     ACCESS:          0 HIT:          0 MISS:          0
cpu0_STLB WRITE        ACCESS:          0 HIT:          0 MISS:          0
cpu0_STLB TRANSLATION  ACCESS:          0 HIT:          0 MISS:          0
cpu0_STLB PREFETCH REQUESTED:          0 ISSUED:          0 USEFUL:          0 USELESS:          0
cpu0_STLB AVERAGE MISS LATENCY: 246.9 cycles

DRAM Statistics

Channel 0 RQ ROW_BUFFER_HIT:      46722
  ROW_BUFFER_MISS:     103361
 AVG DBUS CONGESTED CYCLE: 3.834
WQ ROW_BUFFER_HIT: Channel 0 
  ROW_BUFFER_MISS:      12365
  FULL:      44958

Channel 1 RQ ROW_BUFFER_HIT:      45729
  ROW_BUFFER_MISS:      98993
 AVG DBUS CONGESTED CYCLE: 3.823
WQ ROW_BUFFER_HIT: Channel 1 
  ROW_BUFFER_MISS:      11664
  FULL:      44034
BERTI TO_L1: 366155 TO_L2: 1269110 TO_L2_BC_MSHR: 259079
BERTI AVG_LAT: 26.7923 NUM_TRACK_LATENCY: 1046853 NUM_CANT_TRACK_LATENCY: 0
BERTI CROSS_PAGE 336985 NO_CROSS_PAGE: 1298280
BERTI FOUND_BERTI: 1218819 NO_FOUND_BERTI: 23063989
BERTI AVERAGE_ISSUED: 5.07484
CPU 0 L1I Entangling prefetcher final stats
IP accesses: f81d 3e0740 53563 / 8468828
IP misses: f2a2 3ca880 3339 / 754276
IP hits: 0 0 0 / 0
IP late: e7a1 39e840 1252 / 354887
IP wrong: dac0 36b000 2548 / 756761
miss rate: 0.089065
coverage: 0
coverage_late: 0.470501
accuracy: 0
accuracy_late: 0.319245
discarded: 0
evicts entangled j table: 0
evicts entangled k table: 134102
max bb size: 40
formats: 46283 0 100748 16694 10491 24070 0 
hist_lookups: 49761 70859 72779 73026 70039 64193 49148 36388 25795 18558 14062 9943 5787 3139 1605 0 66 142032 
hist_lookups_evict: 0.00933285 %
hist_lookups_shortlat: 20.0843 %
bb_found_hist: 0 2449072 897276 418656 180435 59058 24207 19961 6725 14487 8057 1328 96 2463 0 0 29 946 0 0 0 0 0 0 0 0 0 0 0 0 0 0 0 0 0 0 0 0 29 0 44 0 0 0 0 0 0 0 0 0 0 0 0 0 0 0 0 0 0 0 0 0 0 0 
bb_found_summary: 7133531 4082869 1.74719
entangled_found_hist: 0 1265223 930828 2199516 292611 77638 15525 0 
entangled_found_summary: 11377211 4781341 2.37951
bb_ent_found_hist: 0 4148168 1839487 900632 361204 211689 78945 52994 13892 22115 32299 4889 752 10248 0 0 0 4021 0 0 0 0 0 0 0 0 0 0 0 0 0 0 0 0 0 0 0 0 160 0 0 0 0 0 0 0 0 0 0 0 0 0 0 0 0 0 0 0 0 0 0 0 0 0 
bb_ent_found_summary: 14780552 7681495 1.92418
