WARNING: physical memory size is smaller than virtual memory size.

*** ChampSim Multicore Out-of-Order Simulator ***
Warmup Instructions: 30000000
Simulation Instructions: 100000000
Number of CPUs: 1
Page size: 4096

BTB:
Basic BTB sets: 1024 ways: 8
Indirect:
history lengths: 0 0 10 16 27 44 60 96 109 219 449 487 714 1313 2146 3881 
ITTAGE tables: 64768 bytes;Region table: 240 bytes;IUM: 384 bytes;Total Storage= 65392 bytes;
RAS:
RAS size: 64
Berti Prefetcher
CPU 0 Entangling prefetcher
Off-chip DRAM Size: 8 GiB Channels: 2 Width: 64-bit Data Race: 6400 MT/s
Heartbeat CPU 0 instructions: 10000000 cycles: 1770804 heartbeat IPC: 5.647 cumulative IPC: 5.647 (Simulation time: 00 hr 00 min 39 sec)
Heartbeat CPU 0 instructions: 20000006 cycles: 3538343 heartbeat IPC: 5.658 cumulative IPC: 5.652 (Simulation time: 00 hr 01 min 23 sec)
Heartbeat CPU 0 instructions: 30000001 cycles: 5300154 heartbeat IPC: 5.676 cumulative IPC: 5.66 (Simulation time: 00 hr 02 min 09 sec)
Warmup finished CPU 0 instructions: 30000001 cycles: 5300155 cumulative IPC: 5.66 (Simulation time: 00 hr 02 min 09 sec)
Warmup complete CPU 0 instructions: 30000001 cycles: 5300155 cumulative IPC: 5.66 (Simulation time: 00 hr 02 min 09 sec)
*** Reached end of trace: (0, "../traces/public_traces/srv/srv_41.champsimtrace.xz")
Heartbeat CPU 0 instructions: 40000002 cycles: 9169300 heartbeat IPC: 2.585 cumulative IPC: 2.585 (Simulation time: 00 hr 03 min 07 sec)
Heartbeat CPU 0 instructions: 50000001 cycles: 13012527 heartbeat IPC: 2.602 cumulative IPC: 2.593 (Simulation time: 00 hr 04 min 09 sec)
Heartbeat CPU 0 instructions: 60000003 cycles: 17359575 heartbeat IPC: 2.3 cumulative IPC: 2.488 (Simulation time: 00 hr 05 min 14 sec)
*** Reached end of trace: (0, "../traces/public_traces/srv/srv_41.champsimtrace.xz")
Heartbeat CPU 0 instructions: 70000000 cycles: 20949031 heartbeat IPC: 2.786 cumulative IPC: 2.556 (Simulation time: 00 hr 06 min 19 sec)
Heartbeat CPU 0 instructions: 80000008 cycles: 24806792 heartbeat IPC: 2.592 cumulative IPC: 2.563 (Simulation time: 00 hr 07 min 28 sec)
Heartbeat CPU 0 instructions: 90000003 cycles: 29014156 heartbeat IPC: 2.377 cumulative IPC: 2.53 (Simulation time: 00 hr 08 min 36 sec)
*** Reached end of trace: (0, "../traces/public_traces/srv/srv_41.champsimtrace.xz")
Heartbeat CPU 0 instructions: 100000009 cycles: 32649739 heartbeat IPC: 2.751 cumulative IPC: 2.559 (Simulation time: 00 hr 09 min 33 sec)
Heartbeat CPU 0 instructions: 110000002 cycles: 36591217 heartbeat IPC: 2.537 cumulative IPC: 2.557 (Simulation time: 00 hr 10 min 45 sec)
Heartbeat CPU 0 instructions: 120000005 cycles: 40725811 heartbeat IPC: 2.419 cumulative IPC: 2.541 (Simulation time: 00 hr 11 min 52 sec)
*** Reached end of trace: (0, "../traces/public_traces/srv/srv_41.champsimtrace.xz")
Heartbeat CPU 0 instructions: 130000011 cycles: 44418252 heartbeat IPC: 2.708 cumulative IPC: 2.556 (Simulation time: 00 hr 12 min 51 sec)
Simulation finished CPU 0 instructions: 100000010 cycles: 39118098 cumulative IPC: 2.556 (Simulation time: 00 hr 12 min 51 sec)
Simulation complete CPU 0 instructions: 100000010 cycles: 39118098 cumulative IPC: 2.556 (Simulation time: 00 hr 12 min 51 sec)

ChampSim completed all CPUs

=== Simulation ===
CPU 0 runs ../traces/public_traces/srv/srv_41.champsimtrace.xz
Region of Interest Statistics

CPU 0 cumulative IPC: 2.556 instructions: 100000010 cycles: 39118098
CPU 0 Branch Prediction Accuracy: 95.56% MPKI: 8.127 Average ROB Occupancy at Mispredict: 36.17
Branch type MPKI
BRANCH_DIRECT_JUMP: 0.751
BRANCH_INDIRECT: 3.47
BRANCH_CONDITIONAL: 1.22
BRANCH_DIRECT_CALL: 1.39
BRANCH_INDIRECT_CALL: 0.322
BRANCH_RETURN: 0.968

LLC TOTAL        ACCESS:     687316 HIT:     495969 MISS:     191347
LLC LOAD         ACCESS:     141896 HIT:      86113 MISS:      55783
LLC RFO          ACCESS:      98235 HIT:      52408 MISS:      45827
LLC PREFETCH     ACCESS:     229054 HIT:     162077 MISS:      66977
LLC WRITE        ACCESS:     187452 HIT:     184569 MISS:       2883
LLC TRANSLATION  ACCESS:      30679 HIT:      10802 MISS:      19877
LLC PREFETCH REQUESTED:          0 ISSUED:          0 USEFUL:          0 USELESS:          0
LLC AVERAGE MISS LATENCY: 160.5 cycles
cpu0_DTLB TOTAL        ACCESS:   16921749 HIT:   16441943 MISS:     479806
cpu0_DTLB LOAD         ACCESS:   16921749 HIT:   16441943 MISS:     479806
cpu0_DTLB RFO          ACCESS:          0 HIT:          0 MISS:          0
cpu0_DTLB PREFETCH     ACCESS:          0 HIT:          0 MISS:          0
cpu0_DTLB WRITE        ACCESS:          0 HIT:          0 MISS:          0
cpu0_DTLB TRANSLATION  ACCESS:          0 HIT:          0 MISS:          0
cpu0_DTLB PREFETCH REQUESTED:          0 ISSUED:          0 USEFUL:          0 USELESS:          0
cpu0_DTLB AVERAGE MISS LATENCY: 13 cycles
cpu0_ITLB TOTAL        ACCESS:   14276756 HIT:   13891921 MISS:     384835
cpu0_ITLB LOAD         ACCESS:   14276756 HIT:   13891921 MISS:     384835
cpu0_ITLB RFO          ACCESS:          0 HIT:          0 MISS:          0
cpu0_ITLB PREFETCH     ACCESS:          0 HIT:          0 MISS:          0
cpu0_ITLB WRITE        ACCESS:          0 HIT:          0 MISS:          0
cpu0_ITLB TRANSLATION  ACCESS:          0 HIT:          0 MISS:          0
cpu0_ITLB PREFETCH REQUESTED:          0 ISSUED:          0 USEFUL:          0 USELESS:          0
cpu0_ITLB AVERAGE MISS LATENCY: 4.675 cycles
cpu0_L1D TOTAL        ACCESS:   26214554 HIT:   23870148 MISS:    2344406
cpu0_L1D LOAD         ACCESS:   15654504 HIT:   14402751 MISS:    1251753
cpu0_L1D RFO          ACCESS:          0 HIT:          0 MISS:          0
cpu0_L1D PREFETCH     ACCESS:     455459 HIT:     343983 MISS:     111476
cpu0_L1D WRITE        ACCESS:   10063099 HIT:    9121992 MISS:     941107
cpu0_L1D TRANSLATION  ACCESS:      41492 HIT:       1422 MISS:      40070
cpu0_L1D PREFETCH REQUESTED:     951341 ISSUED:     455459 USEFUL:       6861 USELESS:       2755
cpu0_L1D AVERAGE MISS LATENCY: 15.55 cycles
cpu0_L1I TOTAL        ACCESS:   21110179 HIT:   17430010 MISS:    3680169
cpu0_L1I LOAD         ACCESS:    6920399 HIT:    5979254 MISS:     941145
cpu0_L1I RFO          ACCESS:          0 HIT:          0 MISS:          0
cpu0_L1I PREFETCH     ACCESS:   14189780 HIT:   11450756 MISS:    2739024
cpu0_L1I WRITE        ACCESS:          0 HIT:          0 MISS:          0
cpu0_L1I TRANSLATION  ACCESS:          0 HIT:          0 MISS:          0
cpu0_L1I PREFETCH REQUESTED:   29355657 ISSUED:   14189813 USEFUL:    1873351 USELESS:     768490
cpu0_L1I AVERAGE MISS LATENCY: 11.08 cycles
cpu0_L2C TOTAL        ACCESS:    9257659 HIT:    8672838 MISS:     584821
cpu0_L2C LOAD         ACCESS:    1491307 HIT:    1341704 MISS:     149603
cpu0_L2C RFO          ACCESS:     332742 HIT:     233263 MISS:      99479
cpu0_L2C PREFETCH     ACCESS:    6780064 HIT:    6475024 MISS:     305040
cpu0_L2C WRITE        ACCESS:     615153 HIT:     615133 MISS:         20
cpu0_L2C TRANSLATION  ACCESS:      38393 HIT:       7714 MISS:      30679
cpu0_L2C PREFETCH REQUESTED:    4240972 ISSUED:    4030399 USEFUL:      59835 USELESS:      94861
cpu0_L2C AVERAGE MISS LATENCY: 69.33 cycles
cpu0_STLB TOTAL        ACCESS:     536621 HIT:     512293 MISS:      24328
cpu0_STLB LOAD         ACCESS:     536621 HIT:     512293 MISS:      24328
cpu0_STLB RFO          ACCESS:          0 HIT:          0 MISS:          0
cpu0_STLB PREFETCH     ACCESS:          0 HIT:          0 MISS:          0
cpu0_STLB WRITE        ACCESS:          0 HIT:          0 MISS:          0
cpu0_STLB TRANSLATION  ACCESS:          0 HIT:          0 MISS:          0
cpu0_STLB PREFETCH REQUESTED:          0 ISSUED:          0 USEFUL:          0 USELESS:          0
cpu0_STLB AVERAGE MISS LATENCY: 206.1 cycles

DRAM Statistics

Channel 0 RQ ROW_BUFFER_HIT:      26644
  ROW_BUFFER_MISS:      70748
 AVG DBUS CONGESTED CYCLE: 3.85
WQ ROW_BUFFER_HIT: Channel 0 
  ROW_BUFFER_MISS:       8259
  FULL:      38458

Channel 1 RQ ROW_BUFFER_HIT:      25722
  ROW_BUFFER_MISS:      65335
 AVG DBUS CONGESTED CYCLE: 3.837
WQ ROW_BUFFER_HIT: Channel 1 
  ROW_BUFFER_MISS:       7708
  FULL:      35634
BERTI TO_L1: 244791 TO_L2: 888286 TO_L2_BC_MSHR: 242558
BERTI AVG_LAT: 21.6282 NUM_TRACK_LATENCY: 1139891 NUM_CANT_TRACK_LATENCY: 0
BERTI CROSS_PAGE 262237 NO_CROSS_PAGE: 870840
BERTI FOUND_BERTI: 1037751 NO_FOUND_BERTI: 19615212
BERTI AVERAGE_ISSUED: 5.58281
CPU 0 L1I Entangling prefetcher final stats
IP accesses: f81d 3e0740 86770 / 6944256
IP misses: 3f25 fc940 5109 / 965002
IP hits: 0 0 0 / 0
IP late: a78c 29e300 1450 / 426741
IP wrong: c733 31ccc0 3269 / 763443
miss rate: 0.138965
coverage: 0
coverage_late: 0.442218
accuracy: 0
accuracy_late: 0.358551
discarded: 0
evicts entangled j table: 0
evicts entangled k table: 161247
max bb size: 38
formats: 55307 0 108501 17882 13947 28684 0 
hist_lookups: 52382 77219 88674 94601 85078 70783 52839 38072 29047 22971 16399 11023 6574 3382 1461 0 21 143436 
hist_lookups_evict: 0.00264497 %
hist_lookups_shortlat: 18.0659 %
bb_found_hist: 0 1853866 853105 421930 196486 108764 48328 44512 20443 5149 20431 2615 1880 872 344 0 343 2990 0 0 0 0 0 0 0 0 0 0 0 0 0 0 0 81 0 0 350 679 343 0 0 0 0 0 0 0 0 0 0 0 0 0 0 0 0 0 0 0 0 0 0 0 0 0 
bb_found_summary: 7348602 3583511 2.05068
entangled_found_hist: 0 1215382 692690 1736367 231618 97653 32781 0 
entangled_found_summary: 9421286 4006491 2.35151
bb_ent_found_hist: 0 2880141 1594339 813801 408189 298900 112886 110439 20098 12161 65772 21608 18058 3494 0 0 1126 17390 0 0 0 0 0 0 0 0 0 0 0 0 0 0 0 11 0 0 343 319 1794 0 0 0 0 0 0 0 0 0 0 0 0 0 0 0 0 0 0 0 0 0 0 0 0 0 
bb_ent_found_summary: 14921958 6380869 2.33855
