WARNING: physical memory size is smaller than virtual memory size.

*** ChampSim Multicore Out-of-Order Simulator ***
Warmup Instructions: 30000000
Simulation Instructions: 100000000
Number of CPUs: 1
Page size: 4096

BTB:
Basic BTB sets: 1024 ways: 8
Indirect:
history lengths: 0 0 10 16 27 44 60 96 109 219 449 487 714 1313 2146 3881 
ITTAGE tables: 64768 bytes;Region table: 240 bytes;IUM: 384 bytes;Total Storage= 65392 bytes;
RAS:
RAS size: 64
Berti Prefetcher
CPU 0 Entangling prefetcher
Off-chip DRAM Size: 8 GiB Channels: 2 Width: 64-bit Data Race: 6400 MT/s
Heartbeat CPU 0 instructions: 10000002 cycles: 1718914 heartbeat IPC: 5.818 cumulative IPC: 5.818 (Simulation time: 00 hr 00 min 41 sec)
Heartbeat CPU 0 instructions: 20000000 cycles: 3432178 heartbeat IPC: 5.837 cumulative IPC: 5.827 (Simulation time: 00 hr 01 min 25 sec)
Heartbeat CPU 0 instructions: 30000001 cycles: 5129362 heartbeat IPC: 5.892 cumulative IPC: 5.849 (Simulation time: 00 hr 02 min 10 sec)
Warmup finished CPU 0 instructions: 30000001 cycles: 5129363 cumulative IPC: 5.849 (Simulation time: 00 hr 02 min 10 sec)
Warmup complete CPU 0 instructions: 30000001 cycles: 5129363 cumulative IPC: 5.849 (Simulation time: 00 hr 02 min 10 sec)
*** Reached end of trace: (0, "../traces/public_traces/srv/srv_50.champsimtrace.xz")
Heartbeat CPU 0 instructions: 40000000 cycles: 10046446 heartbeat IPC: 2.034 cumulative IPC: 2.034 (Simulation time: 00 hr 03 min 19 sec)
Heartbeat CPU 0 instructions: 50000002 cycles: 14915233 heartbeat IPC: 2.054 cumulative IPC: 2.044 (Simulation time: 00 hr 04 min 25 sec)
Heartbeat CPU 0 instructions: 60000001 cycles: 19278141 heartbeat IPC: 2.292 cumulative IPC: 2.12 (Simulation time: 00 hr 05 min 32 sec)
*** Reached end of trace: (0, "../traces/public_traces/srv/srv_50.champsimtrace.xz")
Heartbeat CPU 0 instructions: 70000000 cycles: 23906542 heartbeat IPC: 2.161 cumulative IPC: 2.13 (Simulation time: 00 hr 06 min 45 sec)
Heartbeat CPU 0 instructions: 80000000 cycles: 28669265 heartbeat IPC: 2.1 cumulative IPC: 2.124 (Simulation time: 00 hr 07 min 59 sec)
Heartbeat CPU 0 instructions: 90000002 cycles: 33084374 heartbeat IPC: 2.265 cumulative IPC: 2.146 (Simulation time: 00 hr 09 min 09 sec)
*** Reached end of trace: (0, "../traces/public_traces/srv/srv_50.champsimtrace.xz")
Heartbeat CPU 0 instructions: 100000007 cycles: 37608771 heartbeat IPC: 2.21 cumulative IPC: 2.155 (Simulation time: 00 hr 10 min 19 sec)
Heartbeat CPU 0 instructions: 110000000 cycles: 42380235 heartbeat IPC: 2.096 cumulative IPC: 2.148 (Simulation time: 00 hr 11 min 27 sec)
Heartbeat CPU 0 instructions: 120000000 cycles: 46775595 heartbeat IPC: 2.275 cumulative IPC: 2.161 (Simulation time: 00 hr 12 min 32 sec)
*** Reached end of trace: (0, "../traces/public_traces/srv/srv_50.champsimtrace.xz")
Heartbeat CPU 0 instructions: 130000007 cycles: 51239661 heartbeat IPC: 2.24 cumulative IPC: 2.169 (Simulation time: 00 hr 13 min 44 sec)
Simulation finished CPU 0 instructions: 100000006 cycles: 46110299 cumulative IPC: 2.169 (Simulation time: 00 hr 13 min 44 sec)
Simulation complete CPU 0 instructions: 100000006 cycles: 46110299 cumulative IPC: 2.169 (Simulation time: 00 hr 13 min 44 sec)

ChampSim completed all CPUs

=== Simulation ===
CPU 0 runs ../traces/public_traces/srv/srv_50.champsimtrace.xz
Region of Interest Statistics

CPU 0 cumulative IPC: 2.169 instructions: 100000006 cycles: 46110299
CPU 0 Branch Prediction Accuracy: 93.33% MPKI: 11.73 Average ROB Occupancy at Mispredict: 28.58
Branch type MPKI
BRANCH_DIRECT_JUMP: 1.13
BRANCH_INDIRECT: 5.05
BRANCH_CONDITIONAL: 1.51
BRANCH_DIRECT_CALL: 2.11
BRANCH_INDIRECT_CALL: 0.543
BRANCH_RETURN: 1.4

LLC TOTAL        ACCESS:     765068 HIT:     481703 MISS:     283365
LLC LOAD         ACCESS:     152131 HIT:      73673 MISS:      78458
LLC RFO          ACCESS:     126061 HIT:      43447 MISS:      82614
LLC PREFETCH     ACCESS:     241388 HIT:     148036 MISS:      93352
LLC WRITE        ACCESS:     213050 HIT:     208253 MISS:       4797
LLC TRANSLATION  ACCESS:      32438 HIT:       8294 MISS:      24144
LLC PREFETCH REQUESTED:          0 ISSUED:          0 USEFUL:          0 USELESS:          0
LLC AVERAGE MISS LATENCY: 175.4 cycles
cpu0_DTLB TOTAL        ACCESS:   18886673 HIT:   18382471 MISS:     504202
cpu0_DTLB LOAD         ACCESS:   18886673 HIT:   18382471 MISS:     504202
cpu0_DTLB RFO          ACCESS:          0 HIT:          0 MISS:          0
cpu0_DTLB PREFETCH     ACCESS:          0 HIT:          0 MISS:          0
cpu0_DTLB WRITE        ACCESS:          0 HIT:          0 MISS:          0
cpu0_DTLB TRANSLATION  ACCESS:          0 HIT:          0 MISS:          0
cpu0_DTLB PREFETCH REQUESTED:          0 ISSUED:          0 USEFUL:          0 USELESS:          0
cpu0_DTLB AVERAGE MISS LATENCY: 15.15 cycles
cpu0_ITLB TOTAL        ACCESS:   13997704 HIT:   13565792 MISS:     431912
cpu0_ITLB LOAD         ACCESS:   13997704 HIT:   13565792 MISS:     431912
cpu0_ITLB RFO          ACCESS:          0 HIT:          0 MISS:          0
cpu0_ITLB PREFETCH     ACCESS:          0 HIT:          0 MISS:          0
cpu0_ITLB WRITE        ACCESS:          0 HIT:          0 MISS:          0
cpu0_ITLB TRANSLATION  ACCESS:          0 HIT:          0 MISS:          0
cpu0_ITLB PREFETCH REQUESTED:          0 ISSUED:          0 USEFUL:          0 USELESS:          0
cpu0_ITLB AVERAGE MISS LATENCY: 4.45 cycles
cpu0_L1D TOTAL        ACCESS:   28671936 HIT:   26021727 MISS:    2650209
cpu0_L1D LOAD         ACCESS:   18131873 HIT:   16789294 MISS:    1342579
cpu0_L1D RFO          ACCESS:          0 HIT:          0 MISS:          0
cpu0_L1D PREFETCH     ACCESS:     500157 HIT:     367551 MISS:     132606
cpu0_L1D WRITE        ACCESS:    9998850 HIT:    8863380 MISS:    1135470
cpu0_L1D TRANSLATION  ACCESS:      41056 HIT:       1502 MISS:      39554
cpu0_L1D PREFETCH REQUESTED:    1687441 ISSUED:     500157 USEFUL:       9650 USELESS:       6784
cpu0_L1D AVERAGE MISS LATENCY: 20.2 cycles
cpu0_L1I TOTAL        ACCESS:   20694771 HIT:   17031447 MISS:    3663324
cpu0_L1I LOAD         ACCESS:    5860884 HIT:    5302771 MISS:     558113
cpu0_L1I RFO          ACCESS:          0 HIT:          0 MISS:          0
cpu0_L1I PREFETCH     ACCESS:   14833887 HIT:   11728676 MISS:    3105211
cpu0_L1I WRITE        ACCESS:          0 HIT:          0 MISS:          0
cpu0_L1I TRANSLATION  ACCESS:          0 HIT:          0 MISS:          0
cpu0_L1I PREFETCH REQUESTED:   22148271 ISSUED:   14833904 USEFUL:    2345307 USELESS:     694450
cpu0_L1I AVERAGE MISS LATENCY: 11.27 cycles
cpu0_L2C TOTAL        ACCESS:    9998671 HIT:    9332608 MISS:     666063
cpu0_L2C LOAD         ACCESS:    1312350 HIT:    1147357 MISS:     164993
cpu0_L2C RFO          ACCESS:     416936 HIT:     289600 MISS:     127336
cpu0_L2C PREFETCH     ACCESS:    7545380 HIT:    7204106 MISS:     341274
cpu0_L2C WRITE        ACCESS:     686231 HIT:     686209 MISS:         22
cpu0_L2C TRANSLATION  ACCESS:      37774 HIT:       5336 MISS:      32438
cpu0_L2C PREFETCH REQUESTED:    4476776 ISSUED:    4380957 USEFUL:      69629 USELESS:      94778
cpu0_L2C AVERAGE MISS LATENCY: 90.19 cycles
cpu0_STLB TOTAL        ACCESS:     584311 HIT:     560558 MISS:      23753
cpu0_STLB LOAD         ACCESS:     584311 HIT:     560558 MISS:      23753
cpu0_STLB RFO          ACCESS:          0 HIT:          0 MISS:          0
cpu0_STLB PREFETCH     ACCESS:          0 HIT:          0 MISS:          0
cpu0_STLB WRITE        ACCESS:          0 HIT:          0 MISS:          0
cpu0_STLB TRANSLATION  ACCESS:          0 HIT:          0 MISS:          0
cpu0_STLB PREFETCH REQUESTED:          0 ISSUED:          0 USEFUL:          0 USELESS:          0
cpu0_STLB AVERAGE MISS LATENCY: 259.6 cycles

DRAM Statistics

Channel 0 RQ ROW_BUFFER_HIT:      51315
  ROW_BUFFER_MISS:      90000
 AVG DBUS CONGESTED CYCLE: 3.872
WQ ROW_BUFFER_HIT: Channel 0 
  ROW_BUFFER_MISS:      10319
  FULL:      57343

Channel 1 RQ ROW_BUFFER_HIT:      50386
  ROW_BUFFER_MISS:      86860
 AVG DBUS CONGESTED CYCLE: 3.859
WQ ROW_BUFFER_HIT: Channel 1 
  ROW_BUFFER_MISS:      10013
  FULL:      54337
BERTI TO_L1: 385522 TO_L2: 1666185 TO_L2_BC_MSHR: 593590
BERTI AVG_LAT: 25.5492 NUM_TRACK_LATENCY: 1263549 NUM_CANT_TRACK_LATENCY: 0
BERTI CROSS_PAGE 478205 NO_CROSS_PAGE: 1573502
BERTI FOUND_BERTI: 1734412 NO_FOUND_BERTI: 22267030
BERTI AVERAGE_ISSUED: 5.43162
CPU 0 L1I Entangling prefetcher final stats
IP accesses: 3369 cda40 25822 / 5866619
IP misses: f31b 3cc6c0 3890 / 563848
IP hits: 0 0 0 / 0
IP late: f33e 3ccf80 1384 / 252540
IP wrong: c733 31ccc0 3284 / 691281
miss rate: 0.0961113
coverage: 0
coverage_late: 0.447887
accuracy: 0
accuracy_late: 0.267572
discarded: 0
evicts entangled j table: 0
evicts entangled k table: 92782
max bb size: 38
formats: 46091 0 63358 7623 8299 16926 0 
hist_lookups: 39064 53231 57482 57707 52675 40634 31262 21029 14595 11722 8352 5500 3232 1622 705 0 0 122346 
hist_lookups_evict: 0 %
hist_lookups_shortlat: 23.4758 %
bb_found_hist: 0 1493914 650673 353884 134650 82271 26367 30390 13572 5314 6817 776 381 444 0 0 444 1506 0 0 0 0 0 0 0 0 0 0 0 0 0 0 0 0 0 0 503 829 444 0 0 0 0 0 0 0 0 0 0 0 0 0 0 0 0 0 0 0 0 0 0 0 0 0 
bb_found_summary: 5519610 2803179 1.96906
entangled_found_hist: 0 1047810 587901 1400694 155854 63566 21734 0 
entangled_found_summary: 7497344 3277559 2.28748
bb_ent_found_hist: 0 2243845 1179903 707423 315059 263446 72858 47736 14056 29953 12901 4109 2832 385 0 0 444 7726 0 0 0 0 0 0 0 0 0 0 0 0 0 0 0 0 0 0 385 735 1999 0 0 0 0 0 0 0 0 0 0 0 0 0 0 0 0 0 0 0 0 0 0 0 0 0 
bb_ent_found_summary: 10925372 4905795 2.22704
