WARNING: physical memory size is smaller than virtual memory size.

*** ChampSim Multicore Out-of-Order Simulator ***
Warmup Instructions: 30000000
Simulation Instructions: 100000000
Number of CPUs: 1
Page size: 4096

BTB:
Basic BTB sets: 1024 ways: 8
Indirect:
history lengths: 0 0 10 16 27 44 60 96 109 219 449 487 714 1313 2146 3881 
ITTAGE tables: 64768 bytes;Region table: 240 bytes;IUM: 384 bytes;Total Storage= 65392 bytes;
RAS:
RAS size: 64
Berti Prefetcher
CPU 0 Entangling prefetcher
Off-chip DRAM Size: 8 GiB Channels: 2 Width: 64-bit Data Race: 6400 MT/s
Heartbeat CPU 0 instructions: 10000006 cycles: 1760826 heartbeat IPC: 5.679 cumulative IPC: 5.679 (Simulation time: 00 hr 00 min 44 sec)
Heartbeat CPU 0 instructions: 20000002 cycles: 3524904 heartbeat IPC: 5.669 cumulative IPC: 5.674 (Simulation time: 00 hr 01 min 28 sec)
Heartbeat CPU 0 instructions: 30000003 cycles: 5283836 heartbeat IPC: 5.685 cumulative IPC: 5.678 (Simulation time: 00 hr 02 min 17 sec)
Warmup finished CPU 0 instructions: 30000003 cycles: 5283837 cumulative IPC: 5.678 (Simulation time: 00 hr 02 min 17 sec)
Warmup complete CPU 0 instructions: 30000003 cycles: 5283837 cumulative IPC: 5.678 (Simulation time: 00 hr 02 min 17 sec)
*** Reached end of trace: (0, "../traces/public_traces/srv/srv_47.champsimtrace.xz")
Heartbeat CPU 0 instructions: 40000003 cycles: 9159230 heartbeat IPC: 2.58 cumulative IPC: 2.58 (Simulation time: 00 hr 03 min 32 sec)
Heartbeat CPU 0 instructions: 50000002 cycles: 12991794 heartbeat IPC: 2.609 cumulative IPC: 2.595 (Simulation time: 00 hr 04 min 50 sec)
Heartbeat CPU 0 instructions: 60000001 cycles: 16750873 heartbeat IPC: 2.66 cumulative IPC: 2.616 (Simulation time: 00 hr 06 min 08 sec)
*** Reached end of trace: (0, "../traces/public_traces/srv/srv_47.champsimtrace.xz")
Heartbeat CPU 0 instructions: 70000008 cycles: 20475883 heartbeat IPC: 2.685 cumulative IPC: 2.633 (Simulation time: 00 hr 07 min 22 sec)
Heartbeat CPU 0 instructions: 80000001 cycles: 24311275 heartbeat IPC: 2.607 cumulative IPC: 2.628 (Simulation time: 00 hr 08 min 29 sec)
Heartbeat CPU 0 instructions: 90000005 cycles: 28013644 heartbeat IPC: 2.701 cumulative IPC: 2.64 (Simulation time: 00 hr 09 min 37 sec)
*** Reached end of trace: (0, "../traces/public_traces/srv/srv_47.champsimtrace.xz")
Heartbeat CPU 0 instructions: 100000002 cycles: 31698411 heartbeat IPC: 2.714 cumulative IPC: 2.65 (Simulation time: 00 hr 10 min 43 sec)
Heartbeat CPU 0 instructions: 110000000 cycles: 35558080 heartbeat IPC: 2.591 cumulative IPC: 2.643 (Simulation time: 00 hr 11 min 50 sec)
Heartbeat CPU 0 instructions: 120000002 cycles: 39219116 heartbeat IPC: 2.731 cumulative IPC: 2.652 (Simulation time: 00 hr 13 min 02 sec)
*** Reached end of trace: (0, "../traces/public_traces/srv/srv_47.champsimtrace.xz")
Heartbeat CPU 0 instructions: 130000002 cycles: 42916708 heartbeat IPC: 2.704 cumulative IPC: 2.657 (Simulation time: 00 hr 14 min 11 sec)
Simulation finished CPU 0 instructions: 100000011 cycles: 37632873 cumulative IPC: 2.657 (Simulation time: 00 hr 14 min 11 sec)
Simulation complete CPU 0 instructions: 100000011 cycles: 37632873 cumulative IPC: 2.657 (Simulation time: 00 hr 14 min 11 sec)

ChampSim completed all CPUs

=== Simulation ===
CPU 0 runs ../traces/public_traces/srv/srv_47.champsimtrace.xz
Region of Interest Statistics

CPU 0 cumulative IPC: 2.657 instructions: 100000011 cycles: 37632873
CPU 0 Branch Prediction Accuracy: 95.9% MPKI: 7.327 Average ROB Occupancy at Mispredict: 35.08
Branch type MPKI
BRANCH_DIRECT_JUMP: 0.599
BRANCH_INDIRECT: 3.34
BRANCH_CONDITIONAL: 0.975
BRANCH_DIRECT_CALL: 1.15
BRANCH_INDIRECT_CALL: 0.433
BRANCH_RETURN: 0.839

LLC TOTAL        ACCESS:     654823 HIT:     431004 MISS:     223819
LLC LOAD         ACCESS:     103941 HIT:      46186 MISS:      57755
LLC RFO          ACCESS:     133949 HIT:      88261 MISS:      45688
LLC PREFETCH     ACCESS:     214636 HIT:     114631 MISS:     100005
LLC WRITE        ACCESS:     178630 HIT:     176611 MISS:       2019
LLC TRANSLATION  ACCESS:      23667 HIT:       5315 MISS:      18352
LLC PREFETCH REQUESTED:          0 ISSUED:          0 USEFUL:          0 USELESS:          0
LLC AVERAGE MISS LATENCY: 155.3 cycles
cpu0_DTLB TOTAL        ACCESS:   19477861 HIT:   19002864 MISS:     474997
cpu0_DTLB LOAD         ACCESS:   19477861 HIT:   19002864 MISS:     474997
cpu0_DTLB RFO          ACCESS:          0 HIT:          0 MISS:          0
cpu0_DTLB PREFETCH     ACCESS:          0 HIT:          0 MISS:          0
cpu0_DTLB WRITE        ACCESS:          0 HIT:          0 MISS:          0
cpu0_DTLB TRANSLATION  ACCESS:          0 HIT:          0 MISS:          0
cpu0_DTLB PREFETCH REQUESTED:          0 ISSUED:          0 USEFUL:          0 USELESS:          0
cpu0_DTLB AVERAGE MISS LATENCY: 13.53 cycles
cpu0_ITLB TOTAL        ACCESS:   18560498 HIT:   18152474 MISS:     408024
cpu0_ITLB LOAD         ACCESS:   18560498 HIT:   18152474 MISS:     408024
cpu0_ITLB RFO          ACCESS:          0 HIT:          0 MISS:          0
cpu0_ITLB PREFETCH     ACCESS:          0 HIT:          0 MISS:          0
cpu0_ITLB WRITE        ACCESS:          0 HIT:          0 MISS:          0
cpu0_ITLB TRANSLATION  ACCESS:          0 HIT:          0 MISS:          0
cpu0_ITLB PREFETCH REQUESTED:          0 ISSUED:          0 USEFUL:          0 USELESS:          0
cpu0_ITLB AVERAGE MISS LATENCY: 4.227 cycles
cpu0_L1D TOTAL        ACCESS:   32174787 HIT:   28826348 MISS:    3348439
cpu0_L1D LOAD         ACCESS:   19314678 HIT:   17996818 MISS:    1317860
cpu0_L1D RFO          ACCESS:          0 HIT:          0 MISS:          0
cpu0_L1D PREFETCH     ACCESS:     416760 HIT:     216903 MISS:     199857
cpu0_L1D WRITE        ACCESS:   12414293 HIT:   10611418 MISS:    1802875
cpu0_L1D TRANSLATION  ACCESS:      29056 HIT:       1209 MISS:      27847
cpu0_L1D PREFETCH REQUESTED:    1302388 ISSUED:     416755 USEFUL:      14444 USELESS:       6986
cpu0_L1D AVERAGE MISS LATENCY: 11.1 cycles
cpu0_L1I TOTAL        ACCESS:   26899046 HIT:   23094239 MISS:    3804807
cpu0_L1I LOAD         ACCESS:   10229463 HIT:    9353052 MISS:     876411
cpu0_L1I RFO          ACCESS:          0 HIT:          0 MISS:          0
cpu0_L1I PREFETCH     ACCESS:   16669583 HIT:   13741187 MISS:    2928396
cpu0_L1I WRITE        ACCESS:          0 HIT:          0 MISS:          0
cpu0_L1I TRANSLATION  ACCESS:          0 HIT:          0 MISS:          0
cpu0_L1I PREFETCH REQUESTED:   37734460 ISSUED:   16669612 USEFUL:    2077520 USELESS:     743570
cpu0_L1I AVERAGE MISS LATENCY: 10.86 cycles
cpu0_L2C TOTAL        ACCESS:    9842111 HIT:    9260897 MISS:     581214
cpu0_L2C LOAD         ACCESS:    1473239 HIT:    1357787 MISS:     115452
cpu0_L2C RFO          ACCESS:     424980 HIT:     290024 MISS:     134956
cpu0_L2C PREFETCH     ACCESS:    7279669 HIT:    6972540 MISS:     307129
cpu0_L2C WRITE        ACCESS:     637702 HIT:     637692 MISS:         10
cpu0_L2C TRANSLATION  ACCESS:      26521 HIT:       2854 MISS:      23667
cpu0_L2C PREFETCH REQUESTED:    4486548 ISSUED:    4267327 USEFUL:      60469 USELESS:      72288
cpu0_L2C AVERAGE MISS LATENCY: 75.21 cycles
cpu0_STLB TOTAL        ACCESS:     552883 HIT:     535381 MISS:      17502
cpu0_STLB LOAD         ACCESS:     552883 HIT:     535381 MISS:      17502
cpu0_STLB RFO          ACCESS:          0 HIT:          0 MISS:          0
cpu0_STLB PREFETCH     ACCESS:          0 HIT:          0 MISS:          0
cpu0_STLB WRITE        ACCESS:          0 HIT:          0 MISS:          0
cpu0_STLB TRANSLATION  ACCESS:          0 HIT:          0 MISS:          0
cpu0_STLB PREFETCH REQUESTED:          0 ISSUED:          0 USEFUL:          0 USELESS:          0
cpu0_STLB AVERAGE MISS LATENCY: 274.1 cycles

DRAM Statistics

Channel 0 RQ ROW_BUFFER_HIT:      49097
  ROW_BUFFER_MISS:      64336
 AVG DBUS CONGESTED CYCLE: 3.847
WQ ROW_BUFFER_HIT: Channel 0 
  ROW_BUFFER_MISS:       8580
  FULL:      28691

Channel 1 RQ ROW_BUFFER_HIT:      47508
  ROW_BUFFER_MISS:      60848
 AVG DBUS CONGESTED CYCLE: 3.839
WQ ROW_BUFFER_HIT: Channel 1 
  ROW_BUFFER_MISS:       8405
  FULL:      27929
BERTI TO_L1: 275788 TO_L2: 1372381 TO_L2_BC_MSHR: 470895
BERTI AVG_LAT: 22.358 NUM_TRACK_LATENCY: 1187805 NUM_CANT_TRACK_LATENCY: 0
BERTI CROSS_PAGE 307992 NO_CROSS_PAGE: 1340177
BERTI FOUND_BERTI: 1042096 NO_FOUND_BERTI: 24633142
BERTI AVERAGE_ISSUED: 4.5585
CPU 0 L1I Entangling prefetcher final stats
IP accesses: cd42 335080 65990 / 10239702
IP misses: f366 3cd980 4404 / 886650
IP hits: 0 0 0 / 0
IP late: 1466 51980 1757 / 409548
IP wrong: 9a9b 26a6c0 2307 / 739323
miss rate: 0.0865895
coverage: 0
coverage_late: 0.461905
accuracy: 0
accuracy_late: 0.356479
discarded: 0
evicts entangled j table: 0
evicts entangled k table: 152172
max bb size: 40
formats: 59986 0 105024 17380 10585 22251 0 
hist_lookups: 47489 75964 82273 84751 81898 75526 57078 42425 29854 22603 17093 12100 7331 4068 1972 0 24 181777 
hist_lookups_evict: 0.00291183 %
hist_lookups_shortlat: 22.0543 %
bb_found_hist: 0 2939918 1089832 444168 172715 52348 21269 9622 14731 18684 3194 1218 0 3369 0 0 0 0 0 0 0 0 0 0 0 0 0 0 0 0 0 0 0 0 0 0 0 46 0 0 86 0 0 0 0 0 0 0 0 0 0 0 0 0 0 0 0 0 0 0 0 0 0 0 
bb_found_summary: 7979935 4771200 1.67253
entangled_found_hist: 0 1550447 1220973 2922049 311091 76072 10405 0 
entangled_found_summary: 14445694 6091037 2.37164
bb_ent_found_hist: 0 5169728 2369302 1024973 387406 192338 89682 20135 22456 113742 10173 4463 0 9634 0 0 0 0 0 0 0 0 0 0 0 0 0 0 0 0 0 0 0 0 0 0 0 125 0 0 86 0 0 0 0 0 0 0 0 0 0 0 0 0 0 0 0 0 0 0 0 0 0 0 
bb_ent_found_summary: 17661058 9414243 1.876
