WARNING: physical memory size is smaller than virtual memory size.

*** ChampSim Multicore Out-of-Order Simulator ***
Warmup Instructions: 30000000
Simulation Instructions: 100000000
Number of CPUs: 1
Page size: 4096

BTB:
Basic BTB sets: 1024 ways: 8
Indirect:
history lengths: 0 0 10 16 27 44 60 96 109 219 449 487 714 1313 2146 3881 
ITTAGE tables: 64768 bytes;Region table: 240 bytes;IUM: 384 bytes;Total Storage= 65392 bytes;
RAS:
RAS size: 64
Berti Prefetcher
CPU 0 Entangling prefetcher
Off-chip DRAM Size: 8 GiB Channels: 2 Width: 64-bit Data Race: 6400 MT/s
Heartbeat CPU 0 instructions: 10000001 cycles: 1813620 heartbeat IPC: 5.514 cumulative IPC: 5.514 (Simulation time: 00 hr 00 min 50 sec)
Heartbeat CPU 0 instructions: 20000006 cycles: 3630284 heartbeat IPC: 5.505 cumulative IPC: 5.509 (Simulation time: 00 hr 01 min 37 sec)
Heartbeat CPU 0 instructions: 30000006 cycles: 5442820 heartbeat IPC: 5.517 cumulative IPC: 5.512 (Simulation time: 00 hr 02 min 24 sec)
Warmup finished CPU 0 instructions: 30000006 cycles: 5442821 cumulative IPC: 5.512 (Simulation time: 00 hr 02 min 24 sec)
Warmup complete CPU 0 instructions: 30000006 cycles: 5442821 cumulative IPC: 5.512 (Simulation time: 00 hr 02 min 24 sec)
*** Reached end of trace: (0, "../traces/public_traces/srv/srv_44.champsimtrace.xz")
Heartbeat CPU 0 instructions: 40000010 cycles: 10182887 heartbeat IPC: 2.11 cumulative IPC: 2.11 (Simulation time: 00 hr 03 min 52 sec)
Heartbeat CPU 0 instructions: 50000007 cycles: 14741632 heartbeat IPC: 2.194 cumulative IPC: 2.151 (Simulation time: 00 hr 05 min 10 sec)
Heartbeat CPU 0 instructions: 60000000 cycles: 19299176 heartbeat IPC: 2.194 cumulative IPC: 2.165 (Simulation time: 00 hr 06 min 24 sec)
*** Reached end of trace: (0, "../traces/public_traces/srv/srv_44.champsimtrace.xz")
Heartbeat CPU 0 instructions: 70000010 cycles: 23982947 heartbeat IPC: 2.135 cumulative IPC: 2.157 (Simulation time: 00 hr 07 min 39 sec)
Heartbeat CPU 0 instructions: 80000000 cycles: 28503999 heartbeat IPC: 2.212 cumulative IPC: 2.168 (Simulation time: 00 hr 08 min 56 sec)
Heartbeat CPU 0 instructions: 90000003 cycles: 32948950 heartbeat IPC: 2.25 cumulative IPC: 2.181 (Simulation time: 00 hr 10 min 09 sec)
*** Reached end of trace: (0, "../traces/public_traces/srv/srv_44.champsimtrace.xz")
Heartbeat CPU 0 instructions: 100000006 cycles: 37676458 heartbeat IPC: 2.115 cumulative IPC: 2.172 (Simulation time: 00 hr 11 min 22 sec)
Heartbeat CPU 0 instructions: 110000001 cycles: 42204559 heartbeat IPC: 2.208 cumulative IPC: 2.176 (Simulation time: 00 hr 12 min 34 sec)
Heartbeat CPU 0 instructions: 120000010 cycles: 46663417 heartbeat IPC: 2.243 cumulative IPC: 2.183 (Simulation time: 00 hr 13 min 59 sec)
*** Reached end of trace: (0, "../traces/public_traces/srv/srv_44.champsimtrace.xz")
Heartbeat CPU 0 instructions: 130000000 cycles: 51340970 heartbeat IPC: 2.138 cumulative IPC: 2.179 (Simulation time: 00 hr 15 min 31 sec)
Simulation finished CPU 0 instructions: 100000001 cycles: 45898154 cumulative IPC: 2.179 (Simulation time: 00 hr 15 min 31 sec)
Simulation complete CPU 0 instructions: 100000001 cycles: 45898154 cumulative IPC: 2.179 (Simulation time: 00 hr 15 min 31 sec)

ChampSim completed all CPUs

=== Simulation ===
CPU 0 runs ../traces/public_traces/srv/srv_44.champsimtrace.xz
Region of Interest Statistics

CPU 0 cumulative IPC: 2.179 instructions: 100000001 cycles: 45898154
CPU 0 Branch Prediction Accuracy: 94.86% MPKI: 8.813 Average ROB Occupancy at Mispredict: 49.05
Branch type MPKI
BRANCH_DIRECT_JUMP: 0.684
BRANCH_INDIRECT: 4.1
BRANCH_CONDITIONAL: 1.08
BRANCH_DIRECT_CALL: 1.53
BRANCH_INDIRECT_CALL: 0.43
BRANCH_RETURN: 0.988

LLC TOTAL        ACCESS:     787585 HIT:     546163 MISS:     241422
LLC LOAD         ACCESS:     181729 HIT:     121819 MISS:      59910
LLC RFO          ACCESS:     152616 HIT:      59121 MISS:      93495
LLC PREFETCH     ACCESS:     166479 HIT:     102520 MISS:      63959
LLC WRITE        ACCESS:     253900 HIT:     251876 MISS:       2024
LLC TRANSLATION  ACCESS:      32861 HIT:      10827 MISS:      22034
LLC PREFETCH REQUESTED:          0 ISSUED:          0 USEFUL:          0 USELESS:          0
LLC AVERAGE MISS LATENCY: 249.2 cycles
cpu0_DTLB TOTAL        ACCESS:   21631139 HIT:   20490322 MISS:    1140817
cpu0_DTLB LOAD         ACCESS:   21631139 HIT:   20490322 MISS:    1140817
cpu0_DTLB RFO          ACCESS:          0 HIT:          0 MISS:          0
cpu0_DTLB PREFETCH     ACCESS:          0 HIT:          0 MISS:          0
cpu0_DTLB WRITE        ACCESS:          0 HIT:          0 MISS:          0
cpu0_DTLB TRANSLATION  ACCESS:          0 HIT:          0 MISS:          0
cpu0_DTLB PREFETCH REQUESTED:          0 ISSUED:          0 USEFUL:          0 USELESS:          0
cpu0_DTLB AVERAGE MISS LATENCY: 9.5 cycles
cpu0_ITLB TOTAL        ACCESS:   24095309 HIT:   23124402 MISS:     970907
cpu0_ITLB LOAD         ACCESS:   24095309 HIT:   23124402 MISS:     970907
cpu0_ITLB RFO          ACCESS:          0 HIT:          0 MISS:          0
cpu0_ITLB PREFETCH     ACCESS:          0 HIT:          0 MISS:          0
cpu0_ITLB WRITE        ACCESS:          0 HIT:          0 MISS:          0
cpu0_ITLB TRANSLATION  ACCESS:          0 HIT:          0 MISS:          0
cpu0_ITLB PREFETCH REQUESTED:          0 ISSUED:          0 USEFUL:          0 USELESS:          0
cpu0_ITLB AVERAGE MISS LATENCY: 3.871 cycles
cpu0_L1D TOTAL        ACCESS:   32524945 HIT:   27032082 MISS:    5492863
cpu0_L1D LOAD         ACCESS:   19844696 HIT:   17045667 MISS:    2799029
cpu0_L1D RFO          ACCESS:          0 HIT:          0 MISS:          0
cpu0_L1D PREFETCH     ACCESS:      80746 HIT:      25602 MISS:      55144
cpu0_L1D WRITE        ACCESS:   12556038 HIT:    9959104 MISS:    2596934
cpu0_L1D TRANSLATION  ACCESS:      43465 HIT:       1709 MISS:      41756
cpu0_L1D PREFETCH REQUESTED:    3317942 ISSUED:      80746 USEFUL:       4322 USELESS:        341
cpu0_L1D AVERAGE MISS LATENCY: 14.54 cycles
cpu0_L1I TOTAL        ACCESS:   34975226 HIT:   26604076 MISS:    8371150
cpu0_L1I LOAD         ACCESS:   11520532 HIT:    9747758 MISS:    1772774
cpu0_L1I RFO          ACCESS:          0 HIT:          0 MISS:          0
cpu0_L1I PREFETCH     ACCESS:   23454694 HIT:   16856318 MISS:    6598376
cpu0_L1I WRITE        ACCESS:          0 HIT:          0 MISS:          0
cpu0_L1I TRANSLATION  ACCESS:          0 HIT:          0 MISS:          0
cpu0_L1I PREFETCH REQUESTED:   36285119 ISSUED:   23454661 USEFUL:    5125320 USELESS:    1229755
cpu0_L1I AVERAGE MISS LATENCY: 10.85 cycles
cpu0_L2C TOTAL        ACCESS:   20706090 HIT:   20056239 MISS:     649851
cpu0_L2C LOAD         ACCESS:    3156679 HIT:    2955049 MISS:     201630
cpu0_L2C RFO          ACCESS:     836858 HIT:     682874 MISS:     153984
cpu0_L2C PREFETCH     ACCESS:   15292252 HIT:   15030886 MISS:     261366
cpu0_L2C WRITE        ACCESS:    1381264 HIT:    1381254 MISS:         10
cpu0_L2C TRANSLATION  ACCESS:      39037 HIT:       6176 MISS:      32861
cpu0_L2C PREFETCH REQUESTED:    9548585 ISSUED:    8900314 USEFUL:      64044 USELESS:      76664
cpu0_L2C AVERAGE MISS LATENCY: 106.1 cycles
cpu0_STLB TOTAL        ACCESS:    1329705 HIT:    1306967 MISS:      22738
cpu0_STLB LOAD         ACCESS:    1329705 HIT:    1306967 MISS:      22738
cpu0_STLB RFO          ACCESS:          0 HIT:          0 MISS:          0
cpu0_STLB PREFETCH     ACCESS:          0 HIT:          0 MISS:          0
cpu0_STLB WRITE        ACCESS:          0 HIT:          0 MISS:          0
cpu0_STLB TRANSLATION  ACCESS:          0 HIT:          0 MISS:          0
cpu0_STLB PREFETCH REQUESTED:          0 ISSUED:          0 USEFUL:          0 USELESS:          0
cpu0_STLB AVERAGE MISS LATENCY: 270.3 cycles

DRAM Statistics

Channel 0 RQ ROW_BUFFER_HIT:      53698
  ROW_BUFFER_MISS:      67828
 AVG DBUS CONGESTED CYCLE: 3.933
WQ ROW_BUFFER_HIT: Channel 0 
  ROW_BUFFER_MISS:       8076
  FULL:      49130

Channel 1 RQ ROW_BUFFER_HIT:      51345
  ROW_BUFFER_MISS:      66524
 AVG DBUS CONGESTED CYCLE: 3.929
WQ ROW_BUFFER_HIT: Channel 1 
  ROW_BUFFER_MISS:       7674
  FULL:      49604
BERTI TO_L1: 132912 TO_L2: 3322984 TO_L2_BC_MSHR: 1908133
BERTI AVG_LAT: 18.5024 NUM_TRACK_LATENCY: 2611781 NUM_CANT_TRACK_LATENCY: 0
BERTI CROSS_PAGE 512717 NO_CROSS_PAGE: 2943179
BERTI FOUND_BERTI: 1293168 NO_FOUND_BERTI: 24821534
BERTI AVERAGE_ISSUED: 5.91537
CPU 0 L1I Entangling prefetcher final stats
IP accesses: 9a90 26a400 56771 / 11530487
IP misses: dabf 36afc0 7481 / 1782730
IP hits: 0 0 0 / 0
IP late: dac2 36b080 4290 / 892104
IP wrong: 9a9c 26a700 6347 / 1221842
miss rate: 0.154611
coverage: 0
coverage_late: 0.500415
accuracy: 0
accuracy_late: 0.422009
discarded: 0
evicts entangled j table: 0
evicts entangled k table: 316392
max bb size: 37
formats: 148270 0 188545 32169 18170 39516 0 
hist_lookups: 93198 152483 175718 183821 158893 132988 107740 72291 57312 46433 36070 23916 13056 8545 5060 0 207 441613 
hist_lookups_evict: 0.01211 %
hist_lookups_shortlat: 25.8353 %
bb_found_hist: 0 3070896 1233783 508774 188722 65991 39999 14841 9465 1547 6340 3170 0 9505 0 0 0 0 0 0 0 0 0 0 0 0 0 0 0 0 171 0 0 0 0 0 0 175 0 0 0 0 0 0 0 0 0 0 0 0 0 0 0 0 0 0 0 0 0 0 0 0 0 0 
bb_found_summary: 8816591 5153379 1.71084
entangled_found_hist: 0 1967575 1273586 3016795 260155 66753 27988 0 
entangled_found_summary: 15107445 6612852 2.28456
bb_ent_found_hist: 0 4950564 2605578 1211643 419649 224459 104180 55085 21190 0 20114 16561 0 22295 0 0 0 0 0 0 0 0 0 0 0 0 0 0 0 0 0 0 0 0 0 0 0 782 0 0 0 0 0 0 0 0 0 0 0 0 0 0 0 0 0 0 0 0 0 0 0 0 0 0 
bb_ent_found_summary: 18479815 9652100 1.9146
