WARNING: physical memory size is smaller than virtual memory size.

*** ChampSim Multicore Out-of-Order Simulator ***
Warmup Instructions: 30000000
Simulation Instructions: 100000000
Number of CPUs: 1
Page size: 4096

BTB:
Basic BTB sets: 1024 ways: 8
Indirect:
history lengths: 0 0 10 16 27 44 60 96 109 219 449 487 714 1313 2146 3881 
ITTAGE tables: 64768 bytes;Region table: 240 bytes;IUM: 384 bytes;Total Storage= 65392 bytes;
RAS:
RAS size: 64
Berti Prefetcher
CPU 0 Entangling prefetcher
Off-chip DRAM Size: 8 GiB Channels: 2 Width: 64-bit Data Race: 6400 MT/s
Heartbeat CPU 0 instructions: 10000006 cycles: 1782016 heartbeat IPC: 5.612 cumulative IPC: 5.612 (Simulation time: 00 hr 00 min 45 sec)
Heartbeat CPU 0 instructions: 20000003 cycles: 3570093 heartbeat IPC: 5.593 cumulative IPC: 5.602 (Simulation time: 00 hr 01 min 29 sec)
Heartbeat CPU 0 instructions: 30000000 cycles: 5349789 heartbeat IPC: 5.619 cumulative IPC: 5.608 (Simulation time: 00 hr 02 min 12 sec)
Warmup finished CPU 0 instructions: 30000000 cycles: 5349790 cumulative IPC: 5.608 (Simulation time: 00 hr 02 min 12 sec)
Warmup complete CPU 0 instructions: 30000000 cycles: 5349790 cumulative IPC: 5.608 (Simulation time: 00 hr 02 min 12 sec)
*** Reached end of trace: (0, "../traces/public_traces/srv/srv_52.champsimtrace.xz")
Heartbeat CPU 0 instructions: 40000011 cycles: 10513720 heartbeat IPC: 1.937 cumulative IPC: 1.937 (Simulation time: 00 hr 03 min 29 sec)
Heartbeat CPU 0 instructions: 50000004 cycles: 15807911 heartbeat IPC: 1.889 cumulative IPC: 1.912 (Simulation time: 00 hr 04 min 49 sec)
Heartbeat CPU 0 instructions: 60000001 cycles: 20863567 heartbeat IPC: 1.978 cumulative IPC: 1.934 (Simulation time: 00 hr 06 min 02 sec)
*** Reached end of trace: (0, "../traces/public_traces/srv/srv_52.champsimtrace.xz")
Heartbeat CPU 0 instructions: 70000003 cycles: 25939949 heartbeat IPC: 1.97 cumulative IPC: 1.943 (Simulation time: 00 hr 07 min 12 sec)
Heartbeat CPU 0 instructions: 80000001 cycles: 31221052 heartbeat IPC: 1.894 cumulative IPC: 1.933 (Simulation time: 00 hr 08 min 23 sec)
Heartbeat CPU 0 instructions: 90000006 cycles: 36263966 heartbeat IPC: 1.983 cumulative IPC: 1.941 (Simulation time: 00 hr 09 min 36 sec)
*** Reached end of trace: (0, "../traces/public_traces/srv/srv_52.champsimtrace.xz")
Heartbeat CPU 0 instructions: 100000000 cycles: 41316853 heartbeat IPC: 1.979 cumulative IPC: 1.946 (Simulation time: 00 hr 10 min 50 sec)
Heartbeat CPU 0 instructions: 110000003 cycles: 46499851 heartbeat IPC: 1.929 cumulative IPC: 1.944 (Simulation time: 00 hr 12 min 09 sec)
Heartbeat CPU 0 instructions: 120000006 cycles: 51600298 heartbeat IPC: 1.961 cumulative IPC: 1.946 (Simulation time: 00 hr 13 min 30 sec)
*** Reached end of trace: (0, "../traces/public_traces/srv/srv_52.champsimtrace.xz")
Heartbeat CPU 0 instructions: 130000001 cycles: 56659457 heartbeat IPC: 1.977 cumulative IPC: 1.949 (Simulation time: 00 hr 15 min 01 sec)
Simulation finished CPU 0 instructions: 100000001 cycles: 51309668 cumulative IPC: 1.949 (Simulation time: 00 hr 15 min 01 sec)
Simulation complete CPU 0 instructions: 100000001 cycles: 51309668 cumulative IPC: 1.949 (Simulation time: 00 hr 15 min 01 sec)

ChampSim completed all CPUs

=== Simulation ===
CPU 0 runs ../traces/public_traces/srv/srv_52.champsimtrace.xz
Region of Interest Statistics

CPU 0 cumulative IPC: 1.949 instructions: 100000001 cycles: 51309668
CPU 0 Branch Prediction Accuracy: 91.41% MPKI: 14.95 Average ROB Occupancy at Mispredict: 27.24
Branch type MPKI
BRANCH_DIRECT_JUMP: 1.43
BRANCH_INDIRECT: 6.44
BRANCH_CONDITIONAL: 1.77
BRANCH_DIRECT_CALL: 2.68
BRANCH_INDIRECT_CALL: 0.71
BRANCH_RETURN: 1.92

LLC TOTAL        ACCESS:     809346 HIT:     648392 MISS:     160954
LLC LOAD         ACCESS:     175292 HIT:     134270 MISS:      41022
LLC RFO          ACCESS:     127630 HIT:      77089 MISS:      50541
LLC PREFETCH     ACCESS:     229760 HIT:     181022 MISS:      48738
LLC WRITE        ACCESS:     244483 HIT:     242315 MISS:       2168
LLC TRANSLATION  ACCESS:      32181 HIT:      13696 MISS:      18485
LLC PREFETCH REQUESTED:          0 ISSUED:          0 USEFUL:          0 USELESS:          0
LLC AVERAGE MISS LATENCY: 201.1 cycles
cpu0_DTLB TOTAL        ACCESS:   19584112 HIT:   18774135 MISS:     809977
cpu0_DTLB LOAD         ACCESS:   19584112 HIT:   18774135 MISS:     809977
cpu0_DTLB RFO          ACCESS:          0 HIT:          0 MISS:          0
cpu0_DTLB PREFETCH     ACCESS:          0 HIT:          0 MISS:          0
cpu0_DTLB WRITE        ACCESS:          0 HIT:          0 MISS:          0
cpu0_DTLB TRANSLATION  ACCESS:          0 HIT:          0 MISS:          0
cpu0_DTLB PREFETCH REQUESTED:          0 ISSUED:          0 USEFUL:          0 USELESS:          0
cpu0_DTLB AVERAGE MISS LATENCY: 9.809 cycles
cpu0_ITLB TOTAL        ACCESS:   22500354 HIT:   21758881 MISS:     741473
cpu0_ITLB LOAD         ACCESS:   22500354 HIT:   21758881 MISS:     741473
cpu0_ITLB RFO          ACCESS:          0 HIT:          0 MISS:          0
cpu0_ITLB PREFETCH     ACCESS:          0 HIT:          0 MISS:          0
cpu0_ITLB WRITE        ACCESS:          0 HIT:          0 MISS:          0
cpu0_ITLB TRANSLATION  ACCESS:          0 HIT:          0 MISS:          0
cpu0_ITLB PREFETCH REQUESTED:          0 ISSUED:          0 USEFUL:          0 USELESS:          0
cpu0_ITLB AVERAGE MISS LATENCY: 4.076 cycles
cpu0_L1D TOTAL        ACCESS:   29341871 HIT:   25488063 MISS:    3853808
cpu0_L1D LOAD         ACCESS:   17472457 HIT:   15383484 MISS:    2088973
cpu0_L1D RFO          ACCESS:          0 HIT:          0 MISS:          0
cpu0_L1D PREFETCH     ACCESS:      70860 HIT:      33025 MISS:      37835
cpu0_L1D WRITE        ACCESS:   11752132 HIT:   10068656 MISS:    1683476
cpu0_L1D TRANSLATION  ACCESS:      46422 HIT:       2898 MISS:      43524
cpu0_L1D PREFETCH REQUESTED:    1437500 ISSUED:      70860 USEFUL:       3640 USELESS:        402
cpu0_L1D AVERAGE MISS LATENCY: 12.95 cycles
cpu0_L1I TOTAL        ACCESS:   32926471 HIT:   26683277 MISS:    6243194
cpu0_L1I LOAD         ACCESS:   10713491 HIT:    9375857 MISS:    1337634
cpu0_L1I RFO          ACCESS:          0 HIT:          0 MISS:          0
cpu0_L1I PREFETCH     ACCESS:   22212980 HIT:   17307420 MISS:    4905560
cpu0_L1I WRITE        ACCESS:          0 HIT:          0 MISS:          0
cpu0_L1I TRANSLATION  ACCESS:          0 HIT:          0 MISS:          0
cpu0_L1I PREFETCH REQUESTED:   40790655 ISSUED:   22212955 USEFUL:    3574013 USELESS:    1184281
cpu0_L1I AVERAGE MISS LATENCY: 10.89 cycles
cpu0_L2C TOTAL        ACCESS:   15695532 HIT:   15025400 MISS:     670132
cpu0_L2C LOAD         ACCESS:    2404771 HIT:    2216441 MISS:     188330
cpu0_L2C RFO          ACCESS:     589965 HIT:     460915 MISS:     129050
cpu0_L2C PREFETCH     ACCESS:   11601698 HIT:   11281182 MISS:     320516
cpu0_L2C WRITE        ACCESS:    1057088 HIT:    1057033 MISS:         55
cpu0_L2C TRANSLATION  ACCESS:      42010 HIT:       9829 MISS:      32181
cpu0_L2C PREFETCH REQUESTED:    7189925 ISSUED:    6816535 USEFUL:      71661 USELESS:      99327
cpu0_L2C AVERAGE MISS LATENCY: 63.99 cycles
cpu0_STLB TOTAL        ACCESS:     975377 HIT:     947277 MISS:      28100
cpu0_STLB LOAD         ACCESS:     975377 HIT:     947277 MISS:      28100
cpu0_STLB RFO          ACCESS:          0 HIT:          0 MISS:          0
cpu0_STLB PREFETCH     ACCESS:          0 HIT:          0 MISS:          0
cpu0_STLB WRITE        ACCESS:          0 HIT:          0 MISS:          0
cpu0_STLB TRANSLATION  ACCESS:          0 HIT:          0 MISS:          0
cpu0_STLB PREFETCH REQUESTED:          0 ISSUED:          0 USEFUL:          0 USELESS:          0
cpu0_STLB AVERAGE MISS LATENCY: 173 cycles

DRAM Statistics

Channel 0 RQ ROW_BUFFER_HIT:      27830
  ROW_BUFFER_MISS:      54315
 AVG DBUS CONGESTED CYCLE: 3.91
WQ ROW_BUFFER_HIT: Channel 0 
  ROW_BUFFER_MISS:       5373
  FULL:      34414

Channel 1 RQ ROW_BUFFER_HIT:      26773
  ROW_BUFFER_MISS:      49855
 AVG DBUS CONGESTED CYCLE: 3.895
WQ ROW_BUFFER_HIT: Channel 1 
  ROW_BUFFER_MISS:       4837
  FULL:      31497
BERTI TO_L1: 78882 TO_L2: 1429666 TO_L2_BC_MSHR: 853128
BERTI AVG_LAT: 17.2407 NUM_TRACK_LATENCY: 1949888 NUM_CANT_TRACK_LATENCY: 0
BERTI CROSS_PAGE 238689 NO_CROSS_PAGE: 1269859
BERTI FOUND_BERTI: 911316 NO_FOUND_BERTI: 21913603
BERTI AVERAGE_ISSUED: 6.37028
CPU 0 L1I Entangling prefetcher final stats
IP accesses: dabe 36af80 36172 / 10768201
IP misses: 3f25 fc940 6897 / 1392344
IP hits: 0 0 0 / 0
IP late: 426d 109b40 2295 / 608382
IP wrong: dac0 36b000 4567 / 1176053
miss rate: 0.129302
coverage: 0
coverage_late: 0.436949
accuracy: 0
accuracy_late: 0.340939
discarded: 0
evicts entangled j table: 0
evicts entangled k table: 235233
max bb size: 38
formats: 92689 0 157708 22873 16914 36400 0 
hist_lookups: 76985 121471 136425 136068 118281 99856 76511 55149 40198 31263 23316 15518 8988 4503 2205 0 357 292972 
hist_lookups_evict: 0.0287888 %
hist_lookups_shortlat: 23.6256 %
bb_found_hist: 0 2667528 1272718 588506 268830 132222 45262 38482 32932 2641 11812 4626 1181 740 740 0 0 0 0 0 0 0 0 703 0 0 0 0 0 0 0 0 0 0 0 0 828 1401 743 0 0 0 0 0 0 0 0 0 0 0 0 0 0 0 0 0 0 0 0 0 0 0 0 0 
bb_found_summary: 9872289 5071895 1.94647
entangled_found_hist: 0 1861297 1061419 2835738 254167 106390 25401 0 
entangled_found_summary: 14192373 6144412 2.30981
bb_ent_found_hist: 0 4212334 2697747 1172758 543299 359012 96462 102419 78496 7778 57737 18149 1996 0 0 0 0 0 0 0 0 0 0 29 0 0 0 0 0 0 0 0 0 0 0 0 252 1485 3053 0 0 0 0 0 0 0 0 0 0 0 0 0 0 0 0 0 0 0 0 0 0 0 0 0 
bb_ent_found_summary: 20069692 9353006 2.14581
