WARNING: physical memory size is smaller than virtual memory size.

*** ChampSim Multicore Out-of-Order Simulator ***
Warmup Instructions: 30000000
Simulation Instructions: 100000000
Number of CPUs: 1
Page size: 4096

BTB:
Basic BTB sets: 1024 ways: 8
Indirect:
history lengths: 0 0 10 16 27 44 60 96 109 219 449 487 714 1313 2146 3881 
ITTAGE tables: 64768 bytes;Region table: 240 bytes;IUM: 384 bytes;Total Storage= 65392 bytes;
RAS:
RAS size: 64
Berti Prefetcher
CPU 0 Entangling prefetcher
Off-chip DRAM Size: 8 GiB Channels: 2 Width: 64-bit Data Race: 6400 MT/s
Heartbeat CPU 0 instructions: 10000000 cycles: 2108653 heartbeat IPC: 4.742 cumulative IPC: 4.742 (Simulation time: 00 hr 00 min 54 sec)
Heartbeat CPU 0 instructions: 20000008 cycles: 4211335 heartbeat IPC: 4.756 cumulative IPC: 4.749 (Simulation time: 00 hr 01 min 43 sec)
Heartbeat CPU 0 instructions: 30000001 cycles: 6307092 heartbeat IPC: 4.772 cumulative IPC: 4.757 (Simulation time: 00 hr 02 min 32 sec)
Warmup finished CPU 0 instructions: 30000001 cycles: 6307093 cumulative IPC: 4.757 (Simulation time: 00 hr 02 min 32 sec)
Warmup complete CPU 0 instructions: 30000001 cycles: 6307093 cumulative IPC: 4.757 (Simulation time: 00 hr 02 min 32 sec)
*** Reached end of trace: (0, "../traces/public_traces/srv/srv_36.champsimtrace.xz")
Heartbeat CPU 0 instructions: 40000000 cycles: 12803960 heartbeat IPC: 1.539 cumulative IPC: 1.539 (Simulation time: 00 hr 04 min 13 sec)
Heartbeat CPU 0 instructions: 50000000 cycles: 19555286 heartbeat IPC: 1.481 cumulative IPC: 1.51 (Simulation time: 00 hr 06 min 06 sec)
Heartbeat CPU 0 instructions: 60000008 cycles: 26008785 heartbeat IPC: 1.55 cumulative IPC: 1.523 (Simulation time: 00 hr 07 min 52 sec)
*** Reached end of trace: (0, "../traces/public_traces/srv/srv_36.champsimtrace.xz")
Heartbeat CPU 0 instructions: 70000004 cycles: 32557427 heartbeat IPC: 1.527 cumulative IPC: 1.524 (Simulation time: 00 hr 09 min 41 sec)
Heartbeat CPU 0 instructions: 80000000 cycles: 39253482 heartbeat IPC: 1.493 cumulative IPC: 1.518 (Simulation time: 00 hr 11 min 47 sec)
Heartbeat CPU 0 instructions: 90000008 cycles: 45824042 heartbeat IPC: 1.522 cumulative IPC: 1.518 (Simulation time: 00 hr 13 min 47 sec)
*** Reached end of trace: (0, "../traces/public_traces/srv/srv_36.champsimtrace.xz")
Heartbeat CPU 0 instructions: 100000009 cycles: 52343552 heartbeat IPC: 1.534 cumulative IPC: 1.521 (Simulation time: 00 hr 15 min 32 sec)
Heartbeat CPU 0 instructions: 110000008 cycles: 58899007 heartbeat IPC: 1.525 cumulative IPC: 1.521 (Simulation time: 00 hr 17 min 23 sec)
Heartbeat CPU 0 instructions: 120000008 cycles: 65571023 heartbeat IPC: 1.499 cumulative IPC: 1.519 (Simulation time: 00 hr 19 min 11 sec)
*** Reached end of trace: (0, "../traces/public_traces/srv/srv_36.champsimtrace.xz")
Heartbeat CPU 0 instructions: 130000005 cycles: 72048994 heartbeat IPC: 1.544 cumulative IPC: 1.521 (Simulation time: 00 hr 20 min 54 sec)
Simulation finished CPU 0 instructions: 100000004 cycles: 65741902 cumulative IPC: 1.521 (Simulation time: 00 hr 20 min 54 sec)
Simulation complete CPU 0 instructions: 100000004 cycles: 65741902 cumulative IPC: 1.521 (Simulation time: 00 hr 20 min 54 sec)

ChampSim completed all CPUs

=== Simulation ===
CPU 0 runs ../traces/public_traces/srv/srv_36.champsimtrace.xz
Region of Interest Statistics

CPU 0 cumulative IPC: 1.521 instructions: 100000004 cycles: 65741902
CPU 0 Branch Prediction Accuracy: 99.88% MPKI: 0.1817 Average ROB Occupancy at Mispredict: 206.2
Branch type MPKI
BRANCH_DIRECT_JUMP: 0.00021
BRANCH_INDIRECT: 0.135
BRANCH_CONDITIONAL: 0.0459
BRANCH_DIRECT_CALL: 3e-05
BRANCH_INDIRECT_CALL: 2e-05
BRANCH_RETURN: 0.00019

LLC TOTAL        ACCESS:    4726892 HIT:    2735743 MISS:    1991149
LLC LOAD         ACCESS:     499788 HIT:     333829 MISS:     165959
LLC RFO          ACCESS:    1600462 HIT:     273620 MISS:    1326842
LLC PREFETCH     ACCESS:     784282 HIT:     305481 MISS:     478801
LLC WRITE        ACCESS:    1830027 HIT:    1821013 MISS:       9014
LLC TRANSLATION  ACCESS:      12333 HIT:       1800 MISS:      10533
LLC PREFETCH REQUESTED:          0 ISSUED:          0 USEFUL:          0 USELESS:          0
LLC AVERAGE MISS LATENCY: 339.2 cycles
cpu0_DTLB TOTAL        ACCESS:   18256956 HIT:   17226311 MISS:    1030645
cpu0_DTLB LOAD         ACCESS:   18256956 HIT:   17226311 MISS:    1030645
cpu0_DTLB RFO          ACCESS:          0 HIT:          0 MISS:          0
cpu0_DTLB PREFETCH     ACCESS:          0 HIT:          0 MISS:          0
cpu0_DTLB WRITE        ACCESS:          0 HIT:          0 MISS:          0
cpu0_DTLB TRANSLATION  ACCESS:          0 HIT:          0 MISS:          0
cpu0_DTLB PREFETCH REQUESTED:          0 ISSUED:          0 USEFUL:          0 USELESS:          0
cpu0_DTLB AVERAGE MISS LATENCY: 7.96 cycles
cpu0_ITLB TOTAL        ACCESS:   14940953 HIT:   14920997 MISS:      19956
cpu0_ITLB LOAD         ACCESS:   14940953 HIT:   14920997 MISS:      19956
cpu0_ITLB RFO          ACCESS:          0 HIT:          0 MISS:          0
cpu0_ITLB PREFETCH     ACCESS:          0 HIT:          0 MISS:          0
cpu0_ITLB WRITE        ACCESS:          0 HIT:          0 MISS:          0
cpu0_ITLB TRANSLATION  ACCESS:          0 HIT:          0 MISS:          0
cpu0_ITLB PREFETCH REQUESTED:          0 ISSUED:          0 USEFUL:          0 USELESS:          0
cpu0_ITLB AVERAGE MISS LATENCY: 21.16 cycles
cpu0_L1D TOTAL        ACCESS:   33260667 HIT:   20127817 MISS:   13132850
cpu0_L1D LOAD         ACCESS:   13016377 HIT:   10127026 MISS:    2889351
cpu0_L1D RFO          ACCESS:          0 HIT:          0 MISS:          0
cpu0_L1D PREFETCH     ACCESS:    3170625 HIT:    1028573 MISS:    2142052
cpu0_L1D WRITE        ACCESS:   17040053 HIT:    8959018 MISS:    8081035
cpu0_L1D TRANSLATION  ACCESS:      33612 HIT:      13200 MISS:      20412
cpu0_L1D PREFETCH REQUESTED:   18887476 ISSUED:    3170595 USEFUL:     294001 USELESS:      44789
cpu0_L1D AVERAGE MISS LATENCY: 48.33 cycles
cpu0_L1I TOTAL        ACCESS:   21714351 HIT:   15444891 MISS:    6269460
cpu0_L1I LOAD         ACCESS:   11214100 HIT:    6532646 MISS:    4681454
cpu0_L1I RFO          ACCESS:          0 HIT:          0 MISS:          0
cpu0_L1I PREFETCH     ACCESS:   10500251 HIT:    8912245 MISS:    1588006
cpu0_L1I WRITE        ACCESS:          0 HIT:          0 MISS:          0
cpu0_L1I TRANSLATION  ACCESS:          0 HIT:          0 MISS:          0
cpu0_L1I PREFETCH REQUESTED:   33213434 ISSUED:   10500256 USEFUL:    1288349 USELESS:     137251
cpu0_L1I AVERAGE MISS LATENCY: 9.318 cycles
cpu0_L2C TOTAL        ACCESS:   17173898 HIT:   12358124 MISS:    4815774
cpu0_L2C LOAD         ACCESS:    4494138 HIT:    3903566 MISS:     590572
cpu0_L2C RFO          ACCESS:    1840322 HIT:     239559 MISS:    1600763
cpu0_L2C PREFETCH     ACCESS:    8616804 HIT:    6004801 MISS:    2612003
cpu0_L2C WRITE        ACCESS:    2202352 HIT:    2202249 MISS:        103
cpu0_L2C TRANSLATION  ACCESS:      20282 HIT:       7949 MISS:      12333
cpu0_L2C PREFETCH REQUESTED:    7546889 ISSUED:    5566716 USEFUL:     124003 USELESS:     177656
cpu0_L2C AVERAGE MISS LATENCY: 149.1 cycles
cpu0_STLB TOTAL        ACCESS:     502603 HIT:     472361 MISS:      30242
cpu0_STLB LOAD         ACCESS:     502603 HIT:     472361 MISS:      30242
cpu0_STLB RFO          ACCESS:          0 HIT:          0 MISS:          0
cpu0_STLB PREFETCH     ACCESS:          0 HIT:          0 MISS:          0
cpu0_STLB WRITE        ACCESS:          0 HIT:          0 MISS:          0
cpu0_STLB TRANSLATION  ACCESS:          0 HIT:          0 MISS:          0
cpu0_STLB PREFETCH REQUESTED:          0 ISSUED:          0 USEFUL:          0 USELESS:          0
cpu0_STLB AVERAGE MISS LATENCY: 220.5 cycles

DRAM Statistics

Channel 0 RQ ROW_BUFFER_HIT:     368032
  ROW_BUFFER_MISS:     634316
 AVG DBUS CONGESTED CYCLE: 3.963
WQ ROW_BUFFER_HIT: Channel 0 
  ROW_BUFFER_MISS:      57151
  FULL:     649104

Channel 1 RQ ROW_BUFFER_HIT:     370864
  ROW_BUFFER_MISS:     607493
 AVG DBUS CONGESTED CYCLE: 3.957
WQ ROW_BUFFER_HIT: Channel 1 
  ROW_BUFFER_MISS:      61795
  FULL:     627687
BERTI TO_L1: 3523097 TO_L2: 18389977 TO_L2_BC_MSHR: 9353762
BERTI AVG_LAT: 84.4067 NUM_TRACK_LATENCY: 2133472 NUM_CANT_TRACK_LATENCY: 3
BERTI CROSS_PAGE 2911693 NO_CROSS_PAGE: 19001381
BERTI FOUND_BERTI: 4756861 NO_FOUND_BERTI: 15898652
BERTI AVERAGE_ISSUED: 4.84171
CPU 0 L1I Entangling prefetcher final stats
IP accesses: 5cd0 173400 137421 / 11328459
IP misses: 13dd 4f740 19649 / 4795813
IP hits: 0 0 0 / 0
IP late: 9d3d 274f40 8652 / 2042864
IP wrong: 51bf 146fc0 4791 / 132280
miss rate: 0.423343
coverage: 0
coverage_late: 0.425969
accuracy: 0
accuracy_late: 0.939186
discarded: 0
evicts entangled j table: 0
evicts entangled k table: 362339
max bb size: 13
formats: 63127 0 255288 85730 35311 51701 0 
hist_lookups: 49204 133569 229190 298054 289058 250918 178139 141799 124288 119621 96876 66372 40986 22139 6510 0 330 774224 
hist_lookups_evict: 0.0116969 %
hist_lookups_shortlat: 27.4424 %
bb_found_hist: 0 2412924 1156040 500263 237859 114970 64291 28250 7109 4031 0 469 0 4465 0 0 0 0 0 0 0 0 0 0 0 0 0 0 0 0 0 0 0 0 0 0 0 0 0 0 0 0 0 0 0 0 0 0 0 0 0 0 0 0 0 0 0 0 0 0 0 0 0 0 
bb_found_summary: 8491930 4530671 1.87433
entangled_found_hist: 0 1238619 795333 2309741 559380 62634 28251 0 
entangled_found_summary: 12478704 4993958 2.49877
bb_ent_found_hist: 0 3711974 2437919 1124646 619110 176533 212185 66837 22300 4223 0 2644 0 18284 0 0 0 0 0 0 0 0 0 0 0 0 0 0 0 0 0 0 0 0 0 0 0 0 0 0 0 0 0 0 0 0 0 0 0 0 0 0 0 0 0 0 0 0 0 0 0 0 0 0 
bb_ent_found_summary: 17545007 8396655 2.08953
