WARNING: physical memory size is smaller than virtual memory size.

*** ChampSim Multicore Out-of-Order Simulator ***
Warmup Instructions: 30000000
Simulation Instructions: 100000000
Number of CPUs: 1
Page size: 4096

BTB:
Basic BTB sets: 1024 ways: 8
Indirect:
history lengths: 0 0 10 16 27 44 60 96 109 219 449 487 714 1313 2146 3881 
ITTAGE tables: 64768 bytes;Region table: 240 bytes;IUM: 384 bytes;Total Storage= 65392 bytes;
RAS:
RAS size: 64
Berti Prefetcher
CPU 0 Entangling prefetcher
Off-chip DRAM Size: 8 GiB Channels: 2 Width: 64-bit Data Race: 6400 MT/s
Heartbeat CPU 0 instructions: 10000003 cycles: 1698592 heartbeat IPC: 5.887 cumulative IPC: 5.887 (Simulation time: 00 hr 00 min 49 sec)
Heartbeat CPU 0 instructions: 20000005 cycles: 3393503 heartbeat IPC: 5.9 cumulative IPC: 5.894 (Simulation time: 00 hr 01 min 36 sec)
Heartbeat CPU 0 instructions: 30000008 cycles: 5089752 heartbeat IPC: 5.895 cumulative IPC: 5.894 (Simulation time: 00 hr 02 min 18 sec)
Warmup finished CPU 0 instructions: 30000008 cycles: 5089753 cumulative IPC: 5.894 (Simulation time: 00 hr 02 min 18 sec)
Warmup complete CPU 0 instructions: 30000008 cycles: 5089753 cumulative IPC: 5.894 (Simulation time: 00 hr 02 min 18 sec)
*** Reached end of trace: (0, "../traces/public_traces/srv/srv_5.champsimtrace.xz")
Heartbeat CPU 0 instructions: 40000010 cycles: 8489616 heartbeat IPC: 2.941 cumulative IPC: 2.941 (Simulation time: 00 hr 03 min 17 sec)
Heartbeat CPU 0 instructions: 50000006 cycles: 11533257 heartbeat IPC: 3.286 cumulative IPC: 3.104 (Simulation time: 00 hr 04 min 14 sec)
Heartbeat CPU 0 instructions: 60000004 cycles: 14824718 heartbeat IPC: 3.038 cumulative IPC: 3.082 (Simulation time: 00 hr 05 min 12 sec)
*** Reached end of trace: (0, "../traces/public_traces/srv/srv_5.champsimtrace.xz")
Heartbeat CPU 0 instructions: 70000000 cycles: 18114907 heartbeat IPC: 3.039 cumulative IPC: 3.071 (Simulation time: 00 hr 06 min 24 sec)
Heartbeat CPU 0 instructions: 80000004 cycles: 21153764 heartbeat IPC: 3.291 cumulative IPC: 3.113 (Simulation time: 00 hr 07 min 33 sec)
Heartbeat CPU 0 instructions: 90000000 cycles: 24404653 heartbeat IPC: 3.076 cumulative IPC: 3.106 (Simulation time: 00 hr 08 min 43 sec)
*** Reached end of trace: (0, "../traces/public_traces/srv/srv_5.champsimtrace.xz")
Heartbeat CPU 0 instructions: 100000009 cycles: 27606977 heartbeat IPC: 3.123 cumulative IPC: 3.109 (Simulation time: 00 hr 09 min 51 sec)
Heartbeat CPU 0 instructions: 110000000 cycles: 30690905 heartbeat IPC: 3.243 cumulative IPC: 3.125 (Simulation time: 00 hr 10 min 49 sec)
Heartbeat CPU 0 instructions: 120000001 cycles: 33908708 heartbeat IPC: 3.108 cumulative IPC: 3.123 (Simulation time: 00 hr 11 min 52 sec)
*** Reached end of trace: (0, "../traces/public_traces/srv/srv_5.champsimtrace.xz")
Heartbeat CPU 0 instructions: 130000009 cycles: 37060172 heartbeat IPC: 3.173 cumulative IPC: 3.128 (Simulation time: 00 hr 12 min 56 sec)
Simulation finished CPU 0 instructions: 100000001 cycles: 31970420 cumulative IPC: 3.128 (Simulation time: 00 hr 12 min 56 sec)
Simulation complete CPU 0 instructions: 100000001 cycles: 31970420 cumulative IPC: 3.128 (Simulation time: 00 hr 12 min 56 sec)

ChampSim completed all CPUs

=== Simulation ===
CPU 0 runs ../traces/public_traces/srv/srv_5.champsimtrace.xz
Region of Interest Statistics

CPU 0 cumulative IPC: 3.128 instructions: 100000001 cycles: 31970420
CPU 0 Branch Prediction Accuracy: 96.99% MPKI: 5.407 Average ROB Occupancy at Mispredict: 59.55
Branch type MPKI
BRANCH_DIRECT_JUMP: 0.4
BRANCH_INDIRECT: 2.9
BRANCH_CONDITIONAL: 0.765
BRANCH_DIRECT_CALL: 0.733
BRANCH_INDIRECT_CALL: 0.0496
BRANCH_RETURN: 0.56

LLC TOTAL        ACCESS:     617833 HIT:     444096 MISS:     173737
LLC LOAD         ACCESS:     112820 HIT:      67154 MISS:      45666
LLC RFO          ACCESS:      31292 HIT:      15901 MISS:      15391
LLC PREFETCH     ACCESS:     290359 HIT:     198062 MISS:      92297
LLC WRITE        ACCESS:     142080 HIT:     141014 MISS:       1066
LLC TRANSLATION  ACCESS:      41282 HIT:      21965 MISS:      19317
LLC PREFETCH REQUESTED:          0 ISSUED:          0 USEFUL:          0 USELESS:          0
LLC AVERAGE MISS LATENCY: 154.2 cycles
cpu0_DTLB TOTAL        ACCESS:   16495245 HIT:   15473799 MISS:    1021446
cpu0_DTLB LOAD         ACCESS:   16495245 HIT:   15473799 MISS:    1021446
cpu0_DTLB RFO          ACCESS:          0 HIT:          0 MISS:          0
cpu0_DTLB PREFETCH     ACCESS:          0 HIT:          0 MISS:          0
cpu0_DTLB WRITE        ACCESS:          0 HIT:          0 MISS:          0
cpu0_DTLB TRANSLATION  ACCESS:          0 HIT:          0 MISS:          0
cpu0_DTLB PREFETCH REQUESTED:          0 ISSUED:          0 USEFUL:          0 USELESS:          0
cpu0_DTLB AVERAGE MISS LATENCY: 8.799 cycles
cpu0_ITLB TOTAL        ACCESS:   16052212 HIT:   15563300 MISS:     488912
cpu0_ITLB LOAD         ACCESS:   16052212 HIT:   15563300 MISS:     488912
cpu0_ITLB RFO          ACCESS:          0 HIT:          0 MISS:          0
cpu0_ITLB PREFETCH     ACCESS:          0 HIT:          0 MISS:          0
cpu0_ITLB WRITE        ACCESS:          0 HIT:          0 MISS:          0
cpu0_ITLB TRANSLATION  ACCESS:          0 HIT:          0 MISS:          0
cpu0_ITLB PREFETCH REQUESTED:          0 ISSUED:          0 USEFUL:          0 USELESS:          0
cpu0_ITLB AVERAGE MISS LATENCY: 5.539 cycles
cpu0_L1D TOTAL        ACCESS:   25037917 HIT:   22801117 MISS:    2236800
cpu0_L1D LOAD         ACCESS:   14889001 HIT:   13205506 MISS:    1683495
cpu0_L1D RFO          ACCESS:          0 HIT:          0 MISS:          0
cpu0_L1D PREFETCH     ACCESS:       2311 HIT:       1080 MISS:       1231
cpu0_L1D WRITE        ACCESS:   10061870 HIT:    9588090 MISS:     473780
cpu0_L1D TRANSLATION  ACCESS:      84735 HIT:       6441 MISS:      78294
cpu0_L1D PREFETCH REQUESTED:       2311 ISSUED:       2311 USEFUL:          0 USELESS:          0
cpu0_L1D AVERAGE MISS LATENCY: 13.65 cycles
cpu0_L1I TOTAL        ACCESS:   23942054 HIT:   19989134 MISS:    3952920
cpu0_L1I LOAD         ACCESS:    8442946 HIT:    7066132 MISS:    1376814
cpu0_L1I RFO          ACCESS:          0 HIT:          0 MISS:          0
cpu0_L1I PREFETCH     ACCESS:   15499108 HIT:   12923002 MISS:    2576106
cpu0_L1I WRITE        ACCESS:          0 HIT:          0 MISS:          0
cpu0_L1I TRANSLATION  ACCESS:          0 HIT:          0 MISS:          0
cpu0_L1I PREFETCH REQUESTED:   39836174 ISSUED:   15499094 USEFUL:    1761046 USELESS:     698211
cpu0_L1I AVERAGE MISS LATENCY: 11.64 cycles
cpu0_L2C TOTAL        ACCESS:    9135276 HIT:    8551987 MISS:     583289
cpu0_L2C LOAD         ACCESS:    2022808 HIT:    1876192 MISS:     146616
cpu0_L2C RFO          ACCESS:     162219 HIT:     130398 MISS:      31821
cpu0_L2C PREFETCH     ACCESS:    6354853 HIT:    5991321 MISS:     363532
cpu0_L2C WRITE        ACCESS:     517684 HIT:     517646 MISS:         38
cpu0_L2C TRANSLATION  ACCESS:      77712 HIT:      36430 MISS:      41282
cpu0_L2C PREFETCH REQUESTED:    4483230 ISSUED:    3894440 USEFUL:      90034 USELESS:      93644
cpu0_L2C AVERAGE MISS LATENCY: 59.35 cycles
cpu0_STLB TOTAL        ACCESS:     966627 HIT:     909182 MISS:      57445
cpu0_STLB LOAD         ACCESS:     966627 HIT:     909182 MISS:      57445
cpu0_STLB RFO          ACCESS:          0 HIT:          0 MISS:          0
cpu0_STLB PREFETCH     ACCESS:          0 HIT:          0 MISS:          0
cpu0_STLB WRITE        ACCESS:          0 HIT:          0 MISS:          0
cpu0_STLB TRANSLATION  ACCESS:          0 HIT:          0 MISS:          0
cpu0_STLB PREFETCH REQUESTED:          0 ISSUED:          0 USEFUL:          0 USELESS:          0
cpu0_STLB AVERAGE MISS LATENCY: 100.5 cycles

DRAM Statistics

Channel 0 RQ ROW_BUFFER_HIT:      22731
  ROW_BUFFER_MISS:      65147
 AVG DBUS CONGESTED CYCLE: 3.877
WQ ROW_BUFFER_HIT: Channel 0 
  ROW_BUFFER_MISS:      10094
  FULL:      37994

Channel 1 RQ ROW_BUFFER_HIT:      22100
  ROW_BUFFER_MISS:      62690
 AVG DBUS CONGESTED CYCLE: 3.879
WQ ROW_BUFFER_HIT: Channel 1 
  ROW_BUFFER_MISS:      10001
  FULL:      37325
BERTI TO_L1: 0 TO_L2: 2335 TO_L2_BC_MSHR: 0
BERTI AVG_LAT: 18.9843 NUM_TRACK_LATENCY: 1416312 NUM_CANT_TRACK_LATENCY: 0
BERTI CROSS_PAGE 75 NO_CROSS_PAGE: 2260
BERTI FOUND_BERTI: 514286 NO_FOUND_BERTI: 19259174
BERTI AVERAGE_ISSUED: 1.1151
CPU 0 L1I Entangling prefetcher final stats
IP accesses: bfb3 2fecc0 99182 / 8497407
IP misses: 3a80 ea000 6912 / 1431275
IP hits: 0 0 0 / 0
IP late: 3a83 ea0c0 2350 / 612270
IP wrong: 3d40 f5000 2339 / 694616
miss rate: 0.168437
coverage: 0
coverage_late: 0.42778
accuracy: 0
accuracy_late: 0.468496
discarded: 0
evicts entangled j table: 0
evicts entangled k table: 164440
max bb size: 111
formats: 22903 30456 101414 22108 14872 22582 0 
hist_lookups: 54290 86344 90328 98434 90382 70513 55699 43203 35478 27892 20633 13570 8284 4352 1483 0 714 192016 
hist_lookups_evict: 0.0799002 %
hist_lookups_shortlat: 21.4876 %
bb_found_hist: 0 1854544 962629 426584 292135 165571 100057 89854 159382 88290 27436 54861 45289 9233 20090 37943 5784 5388 3012 2275 1193 3782 252 385 1440 1008 252 1501 504 0 0 507 504 0 178 0 0 253 125 0 252 0 0 0 0 504 0 239 0 0 0 0 0 0 0 199 125 0 0 252 0 252 585 0 
bb_found_summary: 13447337 4364649 3.08097
entangled_found_hist: 0 1272254 1106106 1364479 179862 61371 5719 0 
entangled_found_summary: 8638520 3989791 2.16516
bb_ent_found_hist: 0 2711748 1477180 756489 320257 356805 277207 85469 106189 87830 92260 76263 39321 33277 27945 105516 11468 8359 4836 4067 4381 7716 252 1255 5670 252 1101 3328 852 0 0 12 0 0 824 0 0 12 405 0 1280 0 0 0 0 1704 0 955 0 0 0 0 0 0 0 264 411 0 0 4 0 252 268 0 
bb_ent_found_summary: 20887493 6613684 3.15823
