WARNING: physical memory size is smaller than virtual memory size.

*** ChampSim Multicore Out-of-Order Simulator ***
Warmup Instructions: 30000000
Simulation Instructions: 100000000
Number of CPUs: 1
Page size: 4096

BTB:
Basic BTB sets: 1024 ways: 8
Indirect:
history lengths: 0 0 10 16 27 44 60 96 109 219 449 487 714 1313 2146 3881 
ITTAGE tables: 64768 bytes;Region table: 240 bytes;IUM: 384 bytes;Total Storage= 65392 bytes;
RAS:
RAS size: 64
Berti Prefetcher
CPU 0 Entangling prefetcher
Off-chip DRAM Size: 8 GiB Channels: 2 Width: 64-bit Data Race: 6400 MT/s
Heartbeat CPU 0 instructions: 10000001 cycles: 1705915 heartbeat IPC: 5.862 cumulative IPC: 5.862 (Simulation time: 00 hr 00 min 35 sec)
Heartbeat CPU 0 instructions: 20000001 cycles: 3413969 heartbeat IPC: 5.855 cumulative IPC: 5.858 (Simulation time: 00 hr 01 min 11 sec)
Heartbeat CPU 0 instructions: 30000004 cycles: 5114761 heartbeat IPC: 5.88 cumulative IPC: 5.865 (Simulation time: 00 hr 01 min 46 sec)
Warmup finished CPU 0 instructions: 30000004 cycles: 5114762 cumulative IPC: 5.865 (Simulation time: 00 hr 01 min 46 sec)
Warmup complete CPU 0 instructions: 30000004 cycles: 5114762 cumulative IPC: 5.865 (Simulation time: 00 hr 01 min 46 sec)
*** Reached end of trace: (0, "../traces/public_traces/srv/srv_8.champsimtrace.xz")
Heartbeat CPU 0 instructions: 40000005 cycles: 8726678 heartbeat IPC: 2.769 cumulative IPC: 2.769 (Simulation time: 00 hr 02 min 43 sec)
Heartbeat CPU 0 instructions: 50000001 cycles: 12069957 heartbeat IPC: 2.991 cumulative IPC: 2.876 (Simulation time: 00 hr 03 min 37 sec)
Heartbeat CPU 0 instructions: 60000000 cycles: 15222925 heartbeat IPC: 3.172 cumulative IPC: 2.968 (Simulation time: 00 hr 04 min 30 sec)
*** Reached end of trace: (0, "../traces/public_traces/srv/srv_8.champsimtrace.xz")
Heartbeat CPU 0 instructions: 70000000 cycles: 18961056 heartbeat IPC: 2.675 cumulative IPC: 2.889 (Simulation time: 00 hr 05 min 29 sec)
Heartbeat CPU 0 instructions: 80000006 cycles: 22141344 heartbeat IPC: 3.144 cumulative IPC: 2.937 (Simulation time: 00 hr 06 min 24 sec)
Heartbeat CPU 0 instructions: 90000003 cycles: 25339275 heartbeat IPC: 3.127 cumulative IPC: 2.967 (Simulation time: 00 hr 07 min 17 sec)
*** Reached end of trace: (0, "../traces/public_traces/srv/srv_8.champsimtrace.xz")
Heartbeat CPU 0 instructions: 100000005 cycles: 28973818 heartbeat IPC: 2.751 cumulative IPC: 2.934 (Simulation time: 00 hr 08 min 15 sec)
Heartbeat CPU 0 instructions: 110000003 cycles: 32250724 heartbeat IPC: 3.052 cumulative IPC: 2.948 (Simulation time: 00 hr 09 min 03 sec)
Heartbeat CPU 0 instructions: 120000004 cycles: 35444611 heartbeat IPC: 3.131 cumulative IPC: 2.967 (Simulation time: 00 hr 09 min 57 sec)
*** Reached end of trace: (0, "../traces/public_traces/srv/srv_8.champsimtrace.xz")
Heartbeat CPU 0 instructions: 130000005 cycles: 38922595 heartbeat IPC: 2.875 cumulative IPC: 2.958 (Simulation time: 00 hr 10 min 52 sec)
Simulation finished CPU 0 instructions: 100000001 cycles: 33807834 cumulative IPC: 2.958 (Simulation time: 00 hr 10 min 52 sec)
Simulation complete CPU 0 instructions: 100000001 cycles: 33807834 cumulative IPC: 2.958 (Simulation time: 00 hr 10 min 52 sec)

ChampSim completed all CPUs

=== Simulation ===
CPU 0 runs ../traces/public_traces/srv/srv_8.champsimtrace.xz
Region of Interest Statistics

CPU 0 cumulative IPC: 2.958 instructions: 100000001 cycles: 33807834
CPU 0 Branch Prediction Accuracy: 98.58% MPKI: 2.368 Average ROB Occupancy at Mispredict: 58.68
Branch type MPKI
BRANCH_DIRECT_JUMP: 0.199
BRANCH_INDIRECT: 1.17
BRANCH_CONDITIONAL: 0.379
BRANCH_DIRECT_CALL: 0.33
BRANCH_INDIRECT_CALL: 0.0266
BRANCH_RETURN: 0.261

LLC TOTAL        ACCESS:    1077943 HIT:     645243 MISS:     432700
LLC LOAD         ACCESS:     156144 HIT:      68567 MISS:      87577
LLC RFO          ACCESS:     119668 HIT:      18735 MISS:     100933
LLC PREFETCH     ACCESS:     456963 HIT:     249595 MISS:     207368
LLC WRITE        ACCESS:     293813 HIT:     292111 MISS:       1702
LLC TRANSLATION  ACCESS:      51355 HIT:      16235 MISS:      35120
LLC PREFETCH REQUESTED:          0 ISSUED:          0 USEFUL:          0 USELESS:          0
LLC AVERAGE MISS LATENCY: 189.9 cycles
cpu0_DTLB TOTAL        ACCESS:   15998691 HIT:   15483463 MISS:     515228
cpu0_DTLB LOAD         ACCESS:   15998691 HIT:   15483463 MISS:     515228
cpu0_DTLB RFO          ACCESS:          0 HIT:          0 MISS:          0
cpu0_DTLB PREFETCH     ACCESS:          0 HIT:          0 MISS:          0
cpu0_DTLB WRITE        ACCESS:          0 HIT:          0 MISS:          0
cpu0_DTLB TRANSLATION  ACCESS:          0 HIT:          0 MISS:          0
cpu0_DTLB PREFETCH REQUESTED:          0 ISSUED:          0 USEFUL:          0 USELESS:          0
cpu0_DTLB AVERAGE MISS LATENCY: 15.25 cycles
cpu0_ITLB TOTAL        ACCESS:   11974092 HIT:   11839987 MISS:     134105
cpu0_ITLB LOAD         ACCESS:   11974092 HIT:   11839987 MISS:     134105
cpu0_ITLB RFO          ACCESS:          0 HIT:          0 MISS:          0
cpu0_ITLB PREFETCH     ACCESS:          0 HIT:          0 MISS:          0
cpu0_ITLB WRITE        ACCESS:          0 HIT:          0 MISS:          0
cpu0_ITLB TRANSLATION  ACCESS:          0 HIT:          0 MISS:          0
cpu0_ITLB PREFETCH REQUESTED:          0 ISSUED:          0 USEFUL:          0 USELESS:          0
cpu0_ITLB AVERAGE MISS LATENCY: 19.45 cycles
cpu0_L1D TOTAL        ACCESS:   24873520 HIT:   22515352 MISS:    2358168
cpu0_L1D LOAD         ACCESS:   14166118 HIT:   12883843 MISS:    1282275
cpu0_L1D RFO          ACCESS:          0 HIT:          0 MISS:          0
cpu0_L1D PREFETCH     ACCESS:     193253 HIT:      95122 MISS:      98131
cpu0_L1D WRITE        ACCESS:   10438057 HIT:    9528469 MISS:     909588
cpu0_L1D TRANSLATION  ACCESS:      76092 HIT:       7918 MISS:      68174
cpu0_L1D PREFETCH REQUESTED:    1083600 ISSUED:     193253 USEFUL:      23873 USELESS:       2241
cpu0_L1D AVERAGE MISS LATENCY: 28.4 cycles
cpu0_L1I TOTAL        ACCESS:   18085641 HIT:   16280500 MISS:    1805141
cpu0_L1I LOAD         ACCESS:    6915394 HIT:    6217295 MISS:     698099
cpu0_L1I RFO          ACCESS:          0 HIT:          0 MISS:          0
cpu0_L1I PREFETCH     ACCESS:   11170247 HIT:   10063205 MISS:    1107042
cpu0_L1I WRITE        ACCESS:          0 HIT:          0 MISS:          0
cpu0_L1I TRANSLATION  ACCESS:          0 HIT:          0 MISS:          0
cpu0_L1I PREFETCH REQUESTED:   27419349 ISSUED:   11170253 USEFUL:     781740 USELESS:     276746
cpu0_L1I AVERAGE MISS LATENCY: 13.82 cycles
cpu0_L2C TOTAL        ACCESS:    4985614 HIT:    3967212 MISS:    1018402
cpu0_L2C LOAD         ACCESS:    1103148 HIT:     874652 MISS:     228496
cpu0_L2C RFO          ACCESS:     188329 HIT:      68300 MISS:     120029
cpu0_L2C PREFETCH     ACCESS:    3209153 HIT:    2590634 MISS:     618519
cpu0_L2C WRITE        ACCESS:     417248 HIT:     417246 MISS:          2
cpu0_L2C TRANSLATION  ACCESS:      67736 HIT:      16380 MISS:      51356
cpu0_L2C PREFETCH REQUESTED:    2243369 ISSUED:    2071679 USEFUL:     178783 USELESS:     103037
cpu0_L2C AVERAGE MISS LATENCY: 92.14 cycles
cpu0_STLB TOTAL        ACCESS:     387673 HIT:     329433 MISS:      58240
cpu0_STLB LOAD         ACCESS:     387673 HIT:     329433 MISS:      58240
cpu0_STLB RFO          ACCESS:          0 HIT:          0 MISS:          0
cpu0_STLB PREFETCH     ACCESS:          0 HIT:          0 MISS:          0
cpu0_STLB WRITE        ACCESS:          0 HIT:          0 MISS:          0
cpu0_STLB TRANSLATION  ACCESS:          0 HIT:          0 MISS:          0
cpu0_STLB PREFETCH REQUESTED:          0 ISSUED:          0 USEFUL:          0 USELESS:          0
cpu0_STLB AVERAGE MISS LATENCY: 153.8 cycles

DRAM Statistics

Channel 0 RQ ROW_BUFFER_HIT:      57948
  ROW_BUFFER_MISS:     160853
 AVG DBUS CONGESTED CYCLE: 3.948
WQ ROW_BUFFER_HIT: Channel 0 
  ROW_BUFFER_MISS:      28002
  FULL:     103641

Channel 1 RQ ROW_BUFFER_HIT:      57830
  ROW_BUFFER_MISS:     154291
 AVG DBUS CONGESTED CYCLE: 3.939
WQ ROW_BUFFER_HIT: Channel 1 
  ROW_BUFFER_MISS:      31166
  FULL:      99501
BERTI TO_L1: 283910 TO_L2: 1025831 TO_L2_BC_MSHR: 438654
BERTI AVG_LAT: 42.4322 NUM_TRACK_LATENCY: 876064 NUM_CANT_TRACK_LATENCY: 3
BERTI CROSS_PAGE 293504 NO_CROSS_PAGE: 1016237
BERTI FOUND_BERTI: 1025369 NO_FOUND_BERTI: 18288797
BERTI AVERAGE_ISSUED: 3.1208
CPU 0 L1I Entangling prefetcher final stats
IP accesses: 7e25 1f8940 83350 / 6936043
IP misses: 9080 242000 4363 / 718748
IP hits: 0 0 0 / 0
IP late: 907d 241f40 1442 / 308954
IP wrong: edd 3b740 1752 / 275142
miss rate: 0.103626
coverage: 0
coverage_late: 0.429851
accuracy: 0
accuracy_late: 0.528944
discarded: 0
evicts entangled j table: 0
evicts entangled k table: 54100
max bb size: 111
formats: 6793 10039 37627 6764 4511 7734 0 
hist_lookups: 25265 42706 45155 41695 31060 25220 18942 14184 11416 8953 6945 4916 2852 1513 552 0 168 57335 
hist_lookups_evict: 0.0495756 %
hist_lookups_shortlat: 16.9192 %
bb_found_hist: 0 1084852 523161 295231 205027 145079 105035 35281 44553 26847 13576 13289 34432 30337 12219 9982 4837 7192 3453 926 4696 169 1453 1506 0 0 43 39 0 2558 0 0 0 86 0 0 0 0 0 1 0 0 44 0 0 0 0 42 0 0 0 0 0 0 0 0 0 0 0 0 0 0 0 43 
bb_found_summary: 7977132 2605989 3.06108
entangled_found_hist: 0 582890 622710 1210499 65874 19703 2114 0 
entangled_found_summary: 5834502 2503790 2.33027
bb_ent_found_hist: 0 2000368 826551 570925 367897 337090 260049 52815 71595 35529 24299 14835 54039 29086 9988 27296 31392 24418 3446 3457 18121 309 366 6801 0 0 0 189 0 0 0 0 0 403 0 0 0 0 0 1 0 0 87 0 0 0 0 42 0 0 0 0 0 0 0 0 0 0 0 0 0 0 0 1 
bb_ent_found_summary: 14930441 4771395 3.12916
