WARNING: physical memory size is smaller than virtual memory size.

*** ChampSim Multicore Out-of-Order Simulator ***
Warmup Instructions: 30000000
Simulation Instructions: 100000000
Number of CPUs: 1
Page size: 4096

BTB:
Basic BTB sets: 1024 ways: 8
Indirect:
history lengths: 0 0 10 16 27 44 60 96 109 219 449 487 714 1313 2146 3881 
ITTAGE tables: 64768 bytes;Region table: 240 bytes;IUM: 384 bytes;Total Storage= 65392 bytes;
RAS:
RAS size: 64
Berti Prefetcher
CPU 0 Entangling prefetcher
Off-chip DRAM Size: 8 GiB Channels: 2 Width: 64-bit Data Race: 6400 MT/s
Heartbeat CPU 0 instructions: 10000008 cycles: 1693645 heartbeat IPC: 5.904 cumulative IPC: 5.904 (Simulation time: 00 hr 00 min 46 sec)
Heartbeat CPU 0 instructions: 20000001 cycles: 3383115 heartbeat IPC: 5.919 cumulative IPC: 5.912 (Simulation time: 00 hr 01 min 33 sec)
Heartbeat CPU 0 instructions: 30000004 cycles: 5078833 heartbeat IPC: 5.897 cumulative IPC: 5.907 (Simulation time: 00 hr 02 min 28 sec)
Warmup finished CPU 0 instructions: 30000004 cycles: 5078834 cumulative IPC: 5.907 (Simulation time: 00 hr 02 min 28 sec)
Warmup complete CPU 0 instructions: 30000004 cycles: 5078834 cumulative IPC: 5.907 (Simulation time: 00 hr 02 min 28 sec)
*** Reached end of trace: (0, "../traces/public_traces/srv/srv_69.champsimtrace.xz")
Heartbeat CPU 0 instructions: 40000010 cycles: 9209107 heartbeat IPC: 2.421 cumulative IPC: 2.421 (Simulation time: 00 hr 03 min 43 sec)
Heartbeat CPU 0 instructions: 50000000 cycles: 14116585 heartbeat IPC: 2.038 cumulative IPC: 2.213 (Simulation time: 00 hr 04 min 57 sec)
Heartbeat CPU 0 instructions: 60000004 cycles: 18349360 heartbeat IPC: 2.363 cumulative IPC: 2.261 (Simulation time: 00 hr 06 min 05 sec)
*** Reached end of trace: (0, "../traces/public_traces/srv/srv_69.champsimtrace.xz")
Heartbeat CPU 0 instructions: 70000004 cycles: 22417442 heartbeat IPC: 2.458 cumulative IPC: 2.307 (Simulation time: 00 hr 07 min 11 sec)
Heartbeat CPU 0 instructions: 80000004 cycles: 26766419 heartbeat IPC: 2.299 cumulative IPC: 2.305 (Simulation time: 00 hr 08 min 18 sec)
Heartbeat CPU 0 instructions: 90000003 cycles: 31476725 heartbeat IPC: 2.123 cumulative IPC: 2.273 (Simulation time: 00 hr 09 min 33 sec)
*** Reached end of trace: (0, "../traces/public_traces/srv/srv_69.champsimtrace.xz")
Heartbeat CPU 0 instructions: 100000003 cycles: 35582539 heartbeat IPC: 2.436 cumulative IPC: 2.295 (Simulation time: 00 hr 10 min 42 sec)
Heartbeat CPU 0 instructions: 110000008 cycles: 39752340 heartbeat IPC: 2.398 cumulative IPC: 2.307 (Simulation time: 00 hr 11 min 53 sec)
Heartbeat CPU 0 instructions: 120000006 cycles: 44542690 heartbeat IPC: 2.088 cumulative IPC: 2.281 (Simulation time: 00 hr 13 min 06 sec)
*** Reached end of trace: (0, "../traces/public_traces/srv/srv_69.champsimtrace.xz")
Heartbeat CPU 0 instructions: 130000010 cycles: 48635735 heartbeat IPC: 2.443 cumulative IPC: 2.296 (Simulation time: 00 hr 14 min 10 sec)
Simulation finished CPU 0 instructions: 100000006 cycles: 43556902 cumulative IPC: 2.296 (Simulation time: 00 hr 14 min 10 sec)
Simulation complete CPU 0 instructions: 100000006 cycles: 43556902 cumulative IPC: 2.296 (Simulation time: 00 hr 14 min 10 sec)

ChampSim completed all CPUs

=== Simulation ===
CPU 0 runs ../traces/public_traces/srv/srv_69.champsimtrace.xz
Region of Interest Statistics

CPU 0 cumulative IPC: 2.296 instructions: 100000006 cycles: 43556902
CPU 0 Branch Prediction Accuracy: 94.34% MPKI: 10.2 Average ROB Occupancy at Mispredict: 42.41
Branch type MPKI
BRANCH_DIRECT_JUMP: 0.775
BRANCH_INDIRECT: 5.39
BRANCH_CONDITIONAL: 1.32
BRANCH_DIRECT_CALL: 1.47
BRANCH_INDIRECT_CALL: 0.116
BRANCH_RETURN: 1.13

LLC TOTAL        ACCESS:    1197983 HIT:     961775 MISS:     236208
LLC LOAD         ACCESS:     203875 HIT:     152473 MISS:      51402
LLC RFO          ACCESS:      49838 HIT:      32348 MISS:      17490
LLC PREFETCH     ACCESS:     668302 HIT:     541998 MISS:     126304
LLC WRITE        ACCESS:     177238 HIT:     175570 MISS:       1668
LLC TRANSLATION  ACCESS:      98730 HIT:      59386 MISS:      39344
LLC PREFETCH REQUESTED:          0 ISSUED:          0 USEFUL:          0 USELESS:          0
LLC AVERAGE MISS LATENCY: 158.1 cycles
cpu0_DTLB TOTAL        ACCESS:   17203194 HIT:   16216435 MISS:     986759
cpu0_DTLB LOAD         ACCESS:   17203194 HIT:   16216435 MISS:     986759
cpu0_DTLB RFO          ACCESS:          0 HIT:          0 MISS:          0
cpu0_DTLB PREFETCH     ACCESS:          0 HIT:          0 MISS:          0
cpu0_DTLB WRITE        ACCESS:          0 HIT:          0 MISS:          0
cpu0_DTLB TRANSLATION  ACCESS:          0 HIT:          0 MISS:          0
cpu0_DTLB PREFETCH REQUESTED:          0 ISSUED:          0 USEFUL:          0 USELESS:          0
cpu0_DTLB AVERAGE MISS LATENCY: 12.19 cycles
cpu0_ITLB TOTAL        ACCESS:   16987930 HIT:   16446562 MISS:     541368
cpu0_ITLB LOAD         ACCESS:   16987930 HIT:   16446562 MISS:     541368
cpu0_ITLB RFO          ACCESS:          0 HIT:          0 MISS:          0
cpu0_ITLB PREFETCH     ACCESS:          0 HIT:          0 MISS:          0
cpu0_ITLB WRITE        ACCESS:          0 HIT:          0 MISS:          0
cpu0_ITLB TRANSLATION  ACCESS:          0 HIT:          0 MISS:          0
cpu0_ITLB PREFETCH REQUESTED:          0 ISSUED:          0 USEFUL:          0 USELESS:          0
cpu0_ITLB AVERAGE MISS LATENCY: 9.803 cycles
cpu0_L1D TOTAL        ACCESS:   25678349 HIT:   23349614 MISS:    2328735
cpu0_L1D LOAD         ACCESS:   15403463 HIT:   13751718 MISS:    1651745
cpu0_L1D RFO          ACCESS:          0 HIT:          0 MISS:          0
cpu0_L1D PREFETCH     ACCESS:      25995 HIT:       8722 MISS:      17273
cpu0_L1D WRITE        ACCESS:   10078334 HIT:    9575462 MISS:     502872
cpu0_L1D TRANSLATION  ACCESS:     170557 HIT:      13712 MISS:     156845
cpu0_L1D PREFETCH REQUESTED:      76210 ISSUED:      25995 USEFUL:        882 USELESS:       1081
cpu0_L1D AVERAGE MISS LATENCY: 16.64 cycles
cpu0_L1I TOTAL        ACCESS:   25513875 HIT:   21559806 MISS:    3954069
cpu0_L1I LOAD         ACCESS:    8395470 HIT:    7287794 MISS:    1107676
cpu0_L1I RFO          ACCESS:          0 HIT:          0 MISS:          0
cpu0_L1I PREFETCH     ACCESS:   17118405 HIT:   14272012 MISS:    2846393
cpu0_L1I WRITE        ACCESS:          0 HIT:          0 MISS:          0
cpu0_L1I TRANSLATION  ACCESS:          0 HIT:          0 MISS:          0
cpu0_L1I PREFETCH REQUESTED:   39580475 ISSUED:   17118407 USEFUL:    1921490 USELESS:     823892
cpu0_L1I AVERAGE MISS LATENCY: 13.66 cycles
cpu0_L2C TOTAL        ACCESS:    9693989 HIT:    8416065 MISS:    1277924
cpu0_L2C LOAD         ACCESS:    1859550 HIT:    1624998 MISS:     234552
cpu0_L2C RFO          ACCESS:     170921 HIT:     120424 MISS:      50497
cpu0_L2C PREFETCH     ACCESS:    7012140 HIT:    6118001 MISS:     894139
cpu0_L2C WRITE        ACCESS:     495887 HIT:     495881 MISS:          6
cpu0_L2C TRANSLATION  ACCESS:     155491 HIT:      56761 MISS:      98730
cpu0_L2C PREFETCH REQUESTED:    4612014 ISSUED:    4259681 USEFUL:     130173 USELESS:     196617
cpu0_L2C AVERAGE MISS LATENCY: 43.93 cycles
cpu0_STLB TOTAL        ACCESS:     951578 HIT:     818896 MISS:     132682
cpu0_STLB LOAD         ACCESS:     951578 HIT:     818896 MISS:     132682
cpu0_STLB RFO          ACCESS:          0 HIT:          0 MISS:          0
cpu0_STLB PREFETCH     ACCESS:          0 HIT:          0 MISS:          0
cpu0_STLB WRITE        ACCESS:          0 HIT:          0 MISS:          0
cpu0_STLB TRANSLATION  ACCESS:          0 HIT:          0 MISS:          0
cpu0_STLB PREFETCH REQUESTED:          0 ISSUED:          0 USEFUL:          0 USELESS:          0
cpu0_STLB AVERAGE MISS LATENCY: 88.05 cycles

DRAM Statistics

Channel 0 RQ ROW_BUFFER_HIT:      23404
  ROW_BUFFER_MISS:      98029
 AVG DBUS CONGESTED CYCLE: 3.847
WQ ROW_BUFFER_HIT: Channel 0 
  ROW_BUFFER_MISS:       9634
  FULL:      41860

Channel 1 RQ ROW_BUFFER_HIT:      22187
  ROW_BUFFER_MISS:      90906
 AVG DBUS CONGESTED CYCLE: 3.838
WQ ROW_BUFFER_HIT: Channel 1 
  ROW_BUFFER_MISS:       9829
  FULL:      40036
BERTI TO_L1: 60375 TO_L2: 87207 TO_L2_BC_MSHR: 14088
BERTI AVG_LAT: 20.6852 NUM_TRACK_LATENCY: 1423389 NUM_CANT_TRACK_LATENCY: 0
BERTI CROSS_PAGE 12535 NO_CROSS_PAGE: 135047
BERTI FOUND_BERTI: 585898 NO_FOUND_BERTI: 19773672
BERTI AVERAGE_ISSUED: 2.10926
CPU 0 L1I Entangling prefetcher final stats
IP accesses: bfb3 2fecc0 87816 / 8426443
IP misses: 4b3d 12cf40 4161 / 1138649
IP hits: 0 0 0 / 0
IP late: 3a7a e9e80 1456 / 489763
IP wrong: abec 2afb00 1896 / 820495
miss rate: 0.135129
coverage: 0
coverage_late: 0.430127
accuracy: 0
accuracy_late: 0.373792
discarded: 0
evicts entangled j table: 0
evicts entangled k table: 142023
max bb size: 111
formats: 18102 37208 86995 19855 12111 20377 0 
hist_lookups: 54308 79551 83631 87805 80309 62419 47523 36279 27640 22440 17126 11169 6423 3906 1481 0 351 141048 
hist_lookups_evict: 0.045978 %
hist_lookups_shortlat: 18.4761 %
bb_found_hist: 0 1914449 1024837 383519 289508 116623 83413 84730 142097 34209 61992 50970 47209 9634 5715 37844 3603 4712 2514 1849 6135 299 553 1647 366 0 1195 480 598 0 88 454 227 0 243 0 316 227 227 0 227 0 0 0 0 0 0 164 63 0 0 0 0 0 0 0 0 0 0 227 227 227 454 0 
bb_found_summary: 12530262 4314071 2.90451
entangled_found_hist: 0 1284701 1173833 1298502 198871 64311 5926 0 
entangled_found_summary: 8680468 4026144 2.15603
bb_ent_found_hist: 0 2763302 1668804 819713 403278 283366 204354 69895 109285 42864 113376 69687 25001 28858 15940 145992 13883 9371 3265 5356 15835 1442 1020 4546 182 0 572 0 5253 0 216 0 227 0 1341 0 294 454 454 0 458 0 0 0 0 0 0 331 126 0 0 0 0 0 0 0 0 0 0 0 0 454 678 0 
bb_ent_found_summary: 20949859 6829473 3.06757
