WARNING: physical memory size is smaller than virtual memory size.

*** ChampSim Multicore Out-of-Order Simulator ***
Warmup Instructions: 30000000
Simulation Instructions: 100000000
Number of CPUs: 1
Page size: 4096

BTB:
Basic BTB sets: 1024 ways: 8
Indirect:
history lengths: 0 0 10 16 27 44 60 96 109 219 449 487 714 1313 2146 3881 
ITTAGE tables: 64768 bytes;Region table: 240 bytes;IUM: 384 bytes;Total Storage= 65392 bytes;
RAS:
RAS size: 64
Berti Prefetcher
CPU 0 Entangling prefetcher
Off-chip DRAM Size: 8 GiB Channels: 2 Width: 64-bit Data Race: 6400 MT/s
Heartbeat CPU 0 instructions: 10000002 cycles: 1725379 heartbeat IPC: 5.796 cumulative IPC: 5.796 (Simulation time: 00 hr 00 min 42 sec)
Heartbeat CPU 0 instructions: 20000003 cycles: 3450027 heartbeat IPC: 5.798 cumulative IPC: 5.797 (Simulation time: 00 hr 01 min 26 sec)
Heartbeat CPU 0 instructions: 30000002 cycles: 5175765 heartbeat IPC: 5.795 cumulative IPC: 5.796 (Simulation time: 00 hr 02 min 19 sec)
Warmup finished CPU 0 instructions: 30000002 cycles: 5175766 cumulative IPC: 5.796 (Simulation time: 00 hr 02 min 19 sec)
Warmup complete CPU 0 instructions: 30000002 cycles: 5175766 cumulative IPC: 5.796 (Simulation time: 00 hr 02 min 19 sec)
*** Reached end of trace: (0, "../traces/public_traces/srv/srv_31.champsimtrace.xz")
Heartbeat CPU 0 instructions: 40000000 cycles: 8185064 heartbeat IPC: 3.323 cumulative IPC: 3.323 (Simulation time: 00 hr 03 min 30 sec)
Heartbeat CPU 0 instructions: 50000002 cycles: 11126969 heartbeat IPC: 3.399 cumulative IPC: 3.361 (Simulation time: 00 hr 04 min 32 sec)
Heartbeat CPU 0 instructions: 60000008 cycles: 14164718 heartbeat IPC: 3.292 cumulative IPC: 3.337 (Simulation time: 00 hr 05 min 38 sec)
*** Reached end of trace: (0, "../traces/public_traces/srv/srv_31.champsimtrace.xz")
Heartbeat CPU 0 instructions: 70000002 cycles: 17125813 heartbeat IPC: 3.377 cumulative IPC: 3.347 (Simulation time: 00 hr 06 min 39 sec)
Heartbeat CPU 0 instructions: 80000011 cycles: 20061403 heartbeat IPC: 3.406 cumulative IPC: 3.359 (Simulation time: 00 hr 07 min 51 sec)
Heartbeat CPU 0 instructions: 90000007 cycles: 23076440 heartbeat IPC: 3.317 cumulative IPC: 3.352 (Simulation time: 00 hr 09 min 03 sec)
*** Reached end of trace: (0, "../traces/public_traces/srv/srv_31.champsimtrace.xz")
Heartbeat CPU 0 instructions: 100000005 cycles: 26026436 heartbeat IPC: 3.39 cumulative IPC: 3.357 (Simulation time: 00 hr 10 min 15 sec)
Heartbeat CPU 0 instructions: 110000010 cycles: 28931255 heartbeat IPC: 3.443 cumulative IPC: 3.368 (Simulation time: 00 hr 11 min 25 sec)
Heartbeat CPU 0 instructions: 120000000 cycles: 31976524 heartbeat IPC: 3.284 cumulative IPC: 3.358 (Simulation time: 00 hr 12 min 31 sec)
*** Reached end of trace: (0, "../traces/public_traces/srv/srv_31.champsimtrace.xz")
Heartbeat CPU 0 instructions: 130000001 cycles: 34931379 heartbeat IPC: 3.384 cumulative IPC: 3.361 (Simulation time: 00 hr 13 min 33 sec)
Simulation finished CPU 0 instructions: 100000005 cycles: 29755615 cumulative IPC: 3.361 (Simulation time: 00 hr 13 min 33 sec)
Simulation complete CPU 0 instructions: 100000005 cycles: 29755615 cumulative IPC: 3.361 (Simulation time: 00 hr 13 min 33 sec)

ChampSim completed all CPUs

=== Simulation ===
CPU 0 runs ../traces/public_traces/srv/srv_31.champsimtrace.xz
Region of Interest Statistics

CPU 0 cumulative IPC: 3.361 instructions: 100000005 cycles: 29755615
CPU 0 Branch Prediction Accuracy: 99.82% MPKI: 0.3311 Average ROB Occupancy at Mispredict: 155
Branch type MPKI
BRANCH_DIRECT_JUMP: 0
BRANCH_INDIRECT: 0.226
BRANCH_CONDITIONAL: 0.105
BRANCH_DIRECT_CALL: 2e-05
BRANCH_INDIRECT_CALL: 1e-05
BRANCH_RETURN: 0.00024

LLC TOTAL        ACCESS:     391377 HIT:     165923 MISS:     225454
LLC LOAD         ACCESS:     125865 HIT:      33334 MISS:      92531
LLC RFO          ACCESS:      52223 HIT:      24599 MISS:      27624
LLC PREFETCH     ACCESS:     112527 HIT:      31303 MISS:      81224
LLC WRITE        ACCESS:      71350 HIT:      70226 MISS:       1124
LLC TRANSLATION  ACCESS:      29412 HIT:       6461 MISS:      22951
LLC PREFETCH REQUESTED:          0 ISSUED:          0 USEFUL:          0 USELESS:          0
LLC AVERAGE MISS LATENCY: 163.7 cycles
cpu0_DTLB TOTAL        ACCESS:   16769276 HIT:   15881431 MISS:     887845
cpu0_DTLB LOAD         ACCESS:   16769276 HIT:   15881431 MISS:     887845
cpu0_DTLB RFO          ACCESS:          0 HIT:          0 MISS:          0
cpu0_DTLB PREFETCH     ACCESS:          0 HIT:          0 MISS:          0
cpu0_DTLB WRITE        ACCESS:          0 HIT:          0 MISS:          0
cpu0_DTLB TRANSLATION  ACCESS:          0 HIT:          0 MISS:          0
cpu0_DTLB PREFETCH REQUESTED:          0 ISSUED:          0 USEFUL:          0 USELESS:          0
cpu0_DTLB AVERAGE MISS LATENCY: 10.85 cycles
cpu0_ITLB TOTAL        ACCESS:   16165206 HIT:   16163731 MISS:       1475
cpu0_ITLB LOAD         ACCESS:   16165206 HIT:   16163731 MISS:       1475
cpu0_ITLB RFO          ACCESS:          0 HIT:          0 MISS:          0
cpu0_ITLB PREFETCH     ACCESS:          0 HIT:          0 MISS:          0
cpu0_ITLB WRITE        ACCESS:          0 HIT:          0 MISS:          0
cpu0_ITLB TRANSLATION  ACCESS:          0 HIT:          0 MISS:          0
cpu0_ITLB PREFETCH REQUESTED:          0 ISSUED:          0 USEFUL:          0 USELESS:          0
cpu0_ITLB AVERAGE MISS LATENCY: 65.46 cycles
cpu0_L1D TOTAL        ACCESS:   28778649 HIT:   27873090 MISS:     905559
cpu0_L1D LOAD         ACCESS:   15758642 HIT:   15313139 MISS:     445503
cpu0_L1D RFO          ACCESS:          0 HIT:          0 MISS:          0
cpu0_L1D PREFETCH     ACCESS:     931481 HIT:     841218 MISS:      90263
cpu0_L1D WRITE        ACCESS:   12037873 HIT:   11713683 MISS:     324190
cpu0_L1D TRANSLATION  ACCESS:      50653 HIT:       5050 MISS:      45603
cpu0_L1D PREFETCH REQUESTED:    2447860 ISSUED:     931481 USEFUL:       8642 USELESS:       4457
cpu0_L1D AVERAGE MISS LATENCY: 33.64 cycles
cpu0_L1I TOTAL        ACCESS:   23478227 HIT:   22988700 MISS:     489527
cpu0_L1I LOAD         ACCESS:   10206894 HIT:    9872645 MISS:     334249
cpu0_L1I RFO          ACCESS:          0 HIT:          0 MISS:          0
cpu0_L1I PREFETCH     ACCESS:   13271333 HIT:   13116055 MISS:     155278
cpu0_L1I WRITE        ACCESS:          0 HIT:          0 MISS:          0
cpu0_L1I TRANSLATION  ACCESS:          0 HIT:          0 MISS:          0
cpu0_L1I PREFETCH REQUESTED:   27943297 ISSUED:   13271354 USEFUL:     118367 USELESS:      20956
cpu0_L1I AVERAGE MISS LATENCY: 10.58 cycles
cpu0_L2C TOTAL        ACCESS:    1318048 HIT:     893813 MISS:     424235
cpu0_L2C LOAD         ACCESS:     410947 HIT:     277057 MISS:     133890
cpu0_L2C RFO          ACCESS:      61427 HIT:       9178 MISS:      52249
cpu0_L2C PREFETCH     ACCESS:     712115 HIT:     503573 MISS:     208542
cpu0_L2C WRITE        ACCESS:      88439 HIT:      88297 MISS:        142
cpu0_L2C TRANSLATION  ACCESS:      45120 HIT:      15708 MISS:      29412
cpu0_L2C PREFETCH REQUESTED:     617241 ISSUED:     505985 USEFUL:      16215 USELESS:      72425
cpu0_L2C AVERAGE MISS LATENCY: 101.4 cycles
cpu0_STLB TOTAL        ACCESS:     669018 HIT:     634753 MISS:      34265
cpu0_STLB LOAD         ACCESS:     669018 HIT:     634753 MISS:      34265
cpu0_STLB RFO          ACCESS:          0 HIT:          0 MISS:          0
cpu0_STLB PREFETCH     ACCESS:          0 HIT:          0 MISS:          0
cpu0_STLB WRITE        ACCESS:          0 HIT:          0 MISS:          0
cpu0_STLB TRANSLATION  ACCESS:          0 HIT:          0 MISS:          0
cpu0_STLB PREFETCH REQUESTED:          0 ISSUED:          0 USEFUL:          0 USELESS:          0
cpu0_STLB AVERAGE MISS LATENCY: 153.3 cycles

DRAM Statistics

Channel 0 RQ ROW_BUFFER_HIT:      24168
  ROW_BUFFER_MISS:      89944
 AVG DBUS CONGESTED CYCLE: 3.792
WQ ROW_BUFFER_HIT: Channel 0 
  ROW_BUFFER_MISS:       3652
  FULL:      15685

Channel 1 RQ ROW_BUFFER_HIT:      23095
  ROW_BUFFER_MISS:      87096
 AVG DBUS CONGESTED CYCLE: 3.77
WQ ROW_BUFFER_HIT: Channel 1 
  ROW_BUFFER_MISS:       3601
  FULL:      14469
BERTI TO_L1: 1455845 TO_L2: 2687321 TO_L2_BC_MSHR: 282248
BERTI AVG_LAT: 88.7699 NUM_TRACK_LATENCY: 252155 NUM_CANT_TRACK_LATENCY: 0
BERTI CROSS_PAGE 152716 NO_CROSS_PAGE: 3990450
BERTI FOUND_BERTI: 2653106 NO_FOUND_BERTI: 18977749
BERTI AVERAGE_ISSUED: 3.18441
CPU 0 L1I Entangling prefetcher final stats
IP accesses: 5ccf 1733c0 570281 / 10213415
IP misses: b772 2ddc80 1279 / 340770
IP hits: 0 0 0 / 0
IP late: a8c4 2a3100 559 / 145690
IP wrong: 58a5 162940 346 / 20521
miss rate: 0.033365
coverage: 0
coverage_late: 0.427532
accuracy: 0
accuracy_late: 0.876537
discarded: 0
evicts entangled j table: 0
evicts entangled k table: 31315
max bb size: 17
formats: 5135 0 19984 6986 3193 5352 0 
hist_lookups: 4758 11092 19066 22329 22127 18361 13265 11243 10298 9057 7306 5180 3018 1551 379 0 66 50463 
hist_lookups_evict: 0.0314948 %
hist_lookups_shortlat: 24.0806 %
bb_found_hist: 0 2843120 1001858 382442 191496 36497 81923 2459 373 3 701 0 0 370 0 0 0 13 0 0 0 0 0 0 0 0 0 0 0 0 0 0 0 0 0 0 0 0 0 0 0 0 0 0 0 0 0 0 0 0 0 0 0 0 0 0 0 0 0 0 0 0 0 0 
bb_found_summary: 7466434 4541255 1.64414
entangled_found_hist: 0 1701977 587763 1001994 866887 43650 2119 0 
entangled_found_summary: 9581997 4204390 2.27905
bb_ent_found_hist: 0 2719705 1843876 906204 211815 17051 184073 6133 3169 5 3945 0 0 1913 0 0 0 290 0 0 0 0 0 0 0 0 0 0 0 0 0 0 0 0 0 0 0 0 0 0 0 0 0 0 0 0 0 0 0 0 0 0 0 0 0 0 0 0 0 0 0 0 0 0 
bb_ent_found_summary: 11300599 5898179 1.91595
