WARNING: physical memory size is smaller than virtual memory size.

*** ChampSim Multicore Out-of-Order Simulator ***
Warmup Instructions: 30000000
Simulation Instructions: 100000000
Number of CPUs: 1
Page size: 4096

BTB:
Basic BTB sets: 1024 ways: 8
Indirect:
history lengths: 0 0 10 16 27 44 60 96 109 219 449 487 714 1313 2146 3881 
ITTAGE tables: 64768 bytes;Region table: 240 bytes;IUM: 384 bytes;Total Storage= 65392 bytes;
RAS:
RAS size: 64
Berti Prefetcher
CPU 0 Entangling prefetcher
Off-chip DRAM Size: 8 GiB Channels: 2 Width: 64-bit Data Race: 6400 MT/s
Heartbeat CPU 0 instructions: 10000002 cycles: 1737246 heartbeat IPC: 5.756 cumulative IPC: 5.756 (Simulation time: 00 hr 00 min 48 sec)
Heartbeat CPU 0 instructions: 20000000 cycles: 3473367 heartbeat IPC: 5.76 cumulative IPC: 5.758 (Simulation time: 00 hr 01 min 35 sec)
Heartbeat CPU 0 instructions: 30000011 cycles: 5210196 heartbeat IPC: 5.758 cumulative IPC: 5.758 (Simulation time: 00 hr 02 min 22 sec)
Warmup finished CPU 0 instructions: 30000011 cycles: 5210197 cumulative IPC: 5.758 (Simulation time: 00 hr 02 min 22 sec)
Warmup complete CPU 0 instructions: 30000011 cycles: 5210197 cumulative IPC: 5.758 (Simulation time: 00 hr 02 min 22 sec)
*** Reached end of trace: (0, "../traces/public_traces/srv/srv_73.champsimtrace.xz")
Heartbeat CPU 0 instructions: 40000010 cycles: 8919369 heartbeat IPC: 2.696 cumulative IPC: 2.696 (Simulation time: 00 hr 03 min 28 sec)
Heartbeat CPU 0 instructions: 50000010 cycles: 12558607 heartbeat IPC: 2.748 cumulative IPC: 2.722 (Simulation time: 00 hr 04 min 37 sec)
Heartbeat CPU 0 instructions: 60000007 cycles: 16186132 heartbeat IPC: 2.757 cumulative IPC: 2.733 (Simulation time: 00 hr 05 min 58 sec)
*** Reached end of trace: (0, "../traces/public_traces/srv/srv_73.champsimtrace.xz")
Heartbeat CPU 0 instructions: 70000000 cycles: 19731277 heartbeat IPC: 2.821 cumulative IPC: 2.755 (Simulation time: 00 hr 07 min 13 sec)
Heartbeat CPU 0 instructions: 80000000 cycles: 23286101 heartbeat IPC: 2.813 cumulative IPC: 2.766 (Simulation time: 00 hr 08 min 28 sec)
Heartbeat CPU 0 instructions: 90000002 cycles: 26834115 heartbeat IPC: 2.818 cumulative IPC: 2.775 (Simulation time: 00 hr 09 min 43 sec)
*** Reached end of trace: (0, "../traces/public_traces/srv/srv_73.champsimtrace.xz")
Heartbeat CPU 0 instructions: 100000004 cycles: 30340575 heartbeat IPC: 2.852 cumulative IPC: 2.785 (Simulation time: 00 hr 10 min 58 sec)
Heartbeat CPU 0 instructions: 110000001 cycles: 33848503 heartbeat IPC: 2.851 cumulative IPC: 2.793 (Simulation time: 00 hr 12 min 03 sec)
Heartbeat CPU 0 instructions: 120000000 cycles: 37368783 heartbeat IPC: 2.841 cumulative IPC: 2.799 (Simulation time: 00 hr 13 min 07 sec)
*** Reached end of trace: (0, "../traces/public_traces/srv/srv_73.champsimtrace.xz")
Heartbeat CPU 0 instructions: 130000006 cycles: 40857349 heartbeat IPC: 2.867 cumulative IPC: 2.805 (Simulation time: 00 hr 14 min 13 sec)
Simulation finished CPU 0 instructions: 100000007 cycles: 35647154 cumulative IPC: 2.805 (Simulation time: 00 hr 14 min 13 sec)
Simulation complete CPU 0 instructions: 100000007 cycles: 35647154 cumulative IPC: 2.805 (Simulation time: 00 hr 14 min 13 sec)

ChampSim completed all CPUs

=== Simulation ===
CPU 0 runs ../traces/public_traces/srv/srv_73.champsimtrace.xz
Region of Interest Statistics

CPU 0 cumulative IPC: 2.805 instructions: 100000007 cycles: 35647154
CPU 0 Branch Prediction Accuracy: 95.6% MPKI: 7.933 Average ROB Occupancy at Mispredict: 51.01
Branch type MPKI
BRANCH_DIRECT_JUMP: 0.411
BRANCH_INDIRECT: 3.38
BRANCH_CONDITIONAL: 1.21
BRANCH_DIRECT_CALL: 1.52
BRANCH_INDIRECT_CALL: 0.241
BRANCH_RETURN: 1.18

LLC TOTAL        ACCESS:     170268 HIT:     133570 MISS:      36698
LLC LOAD         ACCESS:      73213 HIT:      55340 MISS:      17873
LLC RFO          ACCESS:      15270 HIT:      11737 MISS:       3533
LLC PREFETCH     ACCESS:      48660 HIT:      38159 MISS:      10501
LLC WRITE        ACCESS:      18046 HIT:      17879 MISS:        167
LLC TRANSLATION  ACCESS:      15079 HIT:      10455 MISS:       4624
LLC PREFETCH REQUESTED:          0 ISSUED:          0 USEFUL:          0 USELESS:          0
LLC AVERAGE MISS LATENCY: 143.6 cycles
cpu0_DTLB TOTAL        ACCESS:   19434278 HIT:   18226069 MISS:    1208209
cpu0_DTLB LOAD         ACCESS:   19434278 HIT:   18226069 MISS:    1208209
cpu0_DTLB RFO          ACCESS:          0 HIT:          0 MISS:          0
cpu0_DTLB PREFETCH     ACCESS:          0 HIT:          0 MISS:          0
cpu0_DTLB WRITE        ACCESS:          0 HIT:          0 MISS:          0
cpu0_DTLB TRANSLATION  ACCESS:          0 HIT:          0 MISS:          0
cpu0_DTLB PREFETCH REQUESTED:          0 ISSUED:          0 USEFUL:          0 USELESS:          0
cpu0_DTLB AVERAGE MISS LATENCY: 5.505 cycles
cpu0_ITLB TOTAL        ACCESS:   21589885 HIT:   20622757 MISS:     967128
cpu0_ITLB LOAD         ACCESS:   21589885 HIT:   20622757 MISS:     967128
cpu0_ITLB RFO          ACCESS:          0 HIT:          0 MISS:          0
cpu0_ITLB PREFETCH     ACCESS:          0 HIT:          0 MISS:          0
cpu0_ITLB WRITE        ACCESS:          0 HIT:          0 MISS:          0
cpu0_ITLB TRANSLATION  ACCESS:          0 HIT:          0 MISS:          0
cpu0_ITLB PREFETCH REQUESTED:          0 ISSUED:          0 USEFUL:          0 USELESS:          0
cpu0_ITLB AVERAGE MISS LATENCY: 3.845 cycles
cpu0_L1D TOTAL        ACCESS:   29853639 HIT:   24902839 MISS:    4950800
cpu0_L1D LOAD         ACCESS:   16519702 HIT:   13526029 MISS:    2993673
cpu0_L1D RFO          ACCESS:          0 HIT:          0 MISS:          0
cpu0_L1D PREFETCH     ACCESS:      87916 HIT:      57309 MISS:      30607
cpu0_L1D WRITE        ACCESS:   13222225 HIT:   11318743 MISS:    1903482
cpu0_L1D TRANSLATION  ACCESS:      23796 HIT:        758 MISS:      23038
cpu0_L1D PREFETCH REQUESTED:     827680 ISSUED:      87916 USEFUL:       1321 USELESS:        468
cpu0_L1D AVERAGE MISS LATENCY: 7.5 cycles
cpu0_L1I TOTAL        ACCESS:   31523381 HIT:   24225081 MISS:    7298300
cpu0_L1I LOAD         ACCESS:   10762751 HIT:    9230969 MISS:    1531782
cpu0_L1I RFO          ACCESS:          0 HIT:          0 MISS:          0
cpu0_L1I PREFETCH     ACCESS:   20760630 HIT:   14994112 MISS:    5766518
cpu0_L1I WRITE        ACCESS:          0 HIT:          0 MISS:          0
cpu0_L1I TRANSLATION  ACCESS:          0 HIT:          0 MISS:          0
cpu0_L1I PREFETCH REQUESTED:   34128869 ISSUED:   20760630 USEFUL:    4655077 USELESS:     929418
cpu0_L1I AVERAGE MISS LATENCY: 11.2 cycles
cpu0_L2C TOTAL        ACCESS:   18299378 HIT:   18118009 MISS:     181369
cpu0_L2C LOAD         ACCESS:    3180527 HIT:    3105464 MISS:      75063
cpu0_L2C RFO          ACCESS:     595636 HIT:     580329 MISS:      15307
cpu0_L2C PREFETCH     ACCESS:   13352238 HIT:   13276321 MISS:      75917
cpu0_L2C WRITE        ACCESS:    1148041 HIT:    1148038 MISS:          3
cpu0_L2C TRANSLATION  ACCESS:      22936 HIT:       7857 MISS:      15079
cpu0_L2C PREFETCH REQUESTED:    8779288 ISSUED:    7753458 USEFUL:       7221 USELESS:      33916
cpu0_L2C AVERAGE MISS LATENCY: 45.8 cycles
cpu0_STLB TOTAL        ACCESS:    1358174 HIT:    1342163 MISS:      16011
cpu0_STLB LOAD         ACCESS:    1358174 HIT:    1342163 MISS:      16011
cpu0_STLB RFO          ACCESS:          0 HIT:          0 MISS:          0
cpu0_STLB PREFETCH     ACCESS:          0 HIT:          0 MISS:          0
cpu0_STLB WRITE        ACCESS:          0 HIT:          0 MISS:          0
cpu0_STLB TRANSLATION  ACCESS:          0 HIT:          0 MISS:          0
cpu0_STLB PREFETCH REQUESTED:          0 ISSUED:          0 USEFUL:          0 USELESS:          0
cpu0_STLB AVERAGE MISS LATENCY: 91.08 cycles

DRAM Statistics

Channel 0 RQ ROW_BUFFER_HIT:       5221
  ROW_BUFFER_MISS:      14585
 AVG DBUS CONGESTED CYCLE: 3.513
WQ ROW_BUFFER_HIT: Channel 0 
  ROW_BUFFER_MISS:        440
  FULL:       1815

Channel 1 RQ ROW_BUFFER_HIT:       4160
  ROW_BUFFER_MISS:      12563
 AVG DBUS CONGESTED CYCLE: 3.442
WQ ROW_BUFFER_HIT: Channel 1 
  ROW_BUFFER_MISS:        316
  FULL:       1519
BERTI TO_L1: 91695 TO_L2: 1604413 TO_L2_BC_MSHR: 823805
BERTI AVG_LAT: 14.8361 NUM_TRACK_LATENCY: 2764102 NUM_CANT_TRACK_LATENCY: 0
BERTI CROSS_PAGE 462374 NO_CROSS_PAGE: 1233734
BERTI FOUND_BERTI: 1532179 NO_FOUND_BERTI: 20283100
BERTI AVERAGE_ISSUED: 2.32061
CPU 0 L1I Entangling prefetcher final stats
IP accesses: a3d2 28f480 45464 / 10781261
IP misses: 5641 159040 10123 / 1550292
IP hits: 0 0 0 / 0
IP late: 9cf1 273c40 3430 / 761481
IP wrong: 8d53 2354c0 3463 / 921773
miss rate: 0.143796
coverage: 0
coverage_late: 0.491186
accuracy: 0
accuracy_late: 0.452387
discarded: 0
evicts entangled j table: 0
evicts entangled k table: 248457
max bb size: 13
formats: 105111 29191 127079 22727 14977 28319 0 
hist_lookups: 58839 101404 124881 134739 130134 114879 92514 68428 56536 46069 38838 28156 17689 9050 4479 0 129 243031 
hist_lookups_evict: 0.0101592 %
hist_lookups_shortlat: 19.1394 %
bb_found_hist: 0 2713355 1173301 586316 195154 79570 87764 23353 15313 1559 6219 4598 0 1555 0 0 0 0 0 0 0 0 0 0 0 0 0 0 0 0 0 0 0 0 0 0 0 0 0 0 0 0 0 0 0 0 0 0 0 0 0 0 0 0 0 0 0 0 0 0 0 0 0 0 
bb_found_summary: 8956944 4888057 1.83242
entangled_found_hist: 0 1789416 1347533 2203683 281575 64801 29835 0 
entangled_found_summary: 12724846 5716843 2.22586
bb_ent_found_hist: 0 3842971 2375960 1174211 447985 184081 207397 82898 17985 6553 9260 32394 0 11987 0 0 0 0 0 0 0 0 0 0 0 0 0 0 0 0 0 0 0 0 0 0 0 0 0 0 0 0 0 0 0 0 0 0 0 0 0 0 0 0 0 0 0 0 0 0 0 0 0 0 
bb_ent_found_summary: 17462159 8393682 2.0804
