WARNING: physical memory size is smaller than virtual memory size.

*** ChampSim Multicore Out-of-Order Simulator ***
Warmup Instructions: 30000000
Simulation Instructions: 100000000
Number of CPUs: 1
Page size: 4096

BTB:
Basic BTB sets: 1024 ways: 8
Indirect:
history lengths: 0 0 10 16 27 44 60 96 109 219 449 487 714 1313 2146 3881 
ITTAGE tables: 64768 bytes;Region table: 240 bytes;IUM: 384 bytes;Total Storage= 65392 bytes;
RAS:
RAS size: 64
Berti Prefetcher
CPU 0 Entangling prefetcher
Off-chip DRAM Size: 8 GiB Channels: 2 Width: 64-bit Data Race: 6400 MT/s
Heartbeat CPU 0 instructions: 10000001 cycles: 1726331 heartbeat IPC: 5.793 cumulative IPC: 5.793 (Simulation time: 00 hr 00 min 41 sec)
Heartbeat CPU 0 instructions: 20000000 cycles: 3451815 heartbeat IPC: 5.795 cumulative IPC: 5.794 (Simulation time: 00 hr 01 min 23 sec)
Heartbeat CPU 0 instructions: 30000000 cycles: 5177760 heartbeat IPC: 5.794 cumulative IPC: 5.794 (Simulation time: 00 hr 02 min 05 sec)
Warmup finished CPU 0 instructions: 30000000 cycles: 5177761 cumulative IPC: 5.794 (Simulation time: 00 hr 02 min 05 sec)
Warmup complete CPU 0 instructions: 30000000 cycles: 5177761 cumulative IPC: 5.794 (Simulation time: 00 hr 02 min 05 sec)
*** Reached end of trace: (0, "../traces/public_traces/srv/srv_30.champsimtrace.xz")
Heartbeat CPU 0 instructions: 40000004 cycles: 8161406 heartbeat IPC: 3.352 cumulative IPC: 3.352 (Simulation time: 00 hr 03 min 04 sec)
Heartbeat CPU 0 instructions: 50000002 cycles: 11189360 heartbeat IPC: 3.303 cumulative IPC: 3.327 (Simulation time: 00 hr 04 min 03 sec)
Heartbeat CPU 0 instructions: 60000004 cycles: 14203042 heartbeat IPC: 3.318 cumulative IPC: 3.324 (Simulation time: 00 hr 05 min 01 sec)
*** Reached end of trace: (0, "../traces/public_traces/srv/srv_30.champsimtrace.xz")
Heartbeat CPU 0 instructions: 70000001 cycles: 17146474 heartbeat IPC: 3.397 cumulative IPC: 3.342 (Simulation time: 00 hr 06 min 00 sec)
Heartbeat CPU 0 instructions: 80000006 cycles: 20121668 heartbeat IPC: 3.361 cumulative IPC: 3.346 (Simulation time: 00 hr 06 min 59 sec)
Heartbeat CPU 0 instructions: 90000005 cycles: 23149390 heartbeat IPC: 3.303 cumulative IPC: 3.339 (Simulation time: 00 hr 07 min 58 sec)
*** Reached end of trace: (0, "../traces/public_traces/srv/srv_30.champsimtrace.xz")
Heartbeat CPU 0 instructions: 100000009 cycles: 26063997 heartbeat IPC: 3.431 cumulative IPC: 3.351 (Simulation time: 00 hr 08 min 57 sec)
Heartbeat CPU 0 instructions: 110000004 cycles: 28995470 heartbeat IPC: 3.411 cumulative IPC: 3.359 (Simulation time: 00 hr 09 min 55 sec)
Heartbeat CPU 0 instructions: 120000006 cycles: 32050211 heartbeat IPC: 3.274 cumulative IPC: 3.349 (Simulation time: 00 hr 10 min 57 sec)
*** Reached end of trace: (0, "../traces/public_traces/srv/srv_30.champsimtrace.xz")
Heartbeat CPU 0 instructions: 130000007 cycles: 34994126 heartbeat IPC: 3.397 cumulative IPC: 3.354 (Simulation time: 00 hr 12 min 01 sec)
Simulation finished CPU 0 instructions: 100000007 cycles: 29816366 cumulative IPC: 3.354 (Simulation time: 00 hr 12 min 01 sec)
Simulation complete CPU 0 instructions: 100000007 cycles: 29816366 cumulative IPC: 3.354 (Simulation time: 00 hr 12 min 01 sec)

ChampSim completed all CPUs

=== Simulation ===
CPU 0 runs ../traces/public_traces/srv/srv_30.champsimtrace.xz
Region of Interest Statistics

CPU 0 cumulative IPC: 3.354 instructions: 100000007 cycles: 29816366
CPU 0 Branch Prediction Accuracy: 99.82% MPKI: 0.3262 Average ROB Occupancy at Mispredict: 153.2
Branch type MPKI
BRANCH_DIRECT_JUMP: 2e-05
BRANCH_INDIRECT: 0.222
BRANCH_CONDITIONAL: 0.104
BRANCH_DIRECT_CALL: 3e-05
BRANCH_INDIRECT_CALL: 3e-05
BRANCH_RETURN: 0.0002

LLC TOTAL        ACCESS:     402134 HIT:     169368 MISS:     232766
LLC LOAD         ACCESS:     127230 HIT:      33119 MISS:      94111
LLC RFO          ACCESS:      55664 HIT:      24409 MISS:      31255
LLC PREFETCH     ACCESS:     114234 HIT:      31095 MISS:      83139
LLC WRITE        ACCESS:      75961 HIT:      74638 MISS:       1323
LLC TRANSLATION  ACCESS:      29045 HIT:       6107 MISS:      22938
LLC PREFETCH REQUESTED:          0 ISSUED:          0 USEFUL:          0 USELESS:          0
LLC AVERAGE MISS LATENCY: 161.4 cycles
cpu0_DTLB TOTAL        ACCESS:   16794357 HIT:   15893133 MISS:     901224
cpu0_DTLB LOAD         ACCESS:   16794357 HIT:   15893133 MISS:     901224
cpu0_DTLB RFO          ACCESS:          0 HIT:          0 MISS:          0
cpu0_DTLB PREFETCH     ACCESS:          0 HIT:          0 MISS:          0
cpu0_DTLB WRITE        ACCESS:          0 HIT:          0 MISS:          0
cpu0_DTLB TRANSLATION  ACCESS:          0 HIT:          0 MISS:          0
cpu0_DTLB PREFETCH REQUESTED:          0 ISSUED:          0 USEFUL:          0 USELESS:          0
cpu0_DTLB AVERAGE MISS LATENCY: 10.64 cycles
cpu0_ITLB TOTAL        ACCESS:   16052332 HIT:   16050974 MISS:       1358
cpu0_ITLB LOAD         ACCESS:   16052332 HIT:   16050974 MISS:       1358
cpu0_ITLB RFO          ACCESS:          0 HIT:          0 MISS:          0
cpu0_ITLB PREFETCH     ACCESS:          0 HIT:          0 MISS:          0
cpu0_ITLB WRITE        ACCESS:          0 HIT:          0 MISS:          0
cpu0_ITLB TRANSLATION  ACCESS:          0 HIT:          0 MISS:          0
cpu0_ITLB PREFETCH REQUESTED:          0 ISSUED:          0 USEFUL:          0 USELESS:          0
cpu0_ITLB AVERAGE MISS LATENCY: 75.31 cycles
cpu0_L1D TOTAL        ACCESS:   28996944 HIT:   28058092 MISS:     938852
cpu0_L1D LOAD         ACCESS:   15716436 HIT:   15264673 MISS:     451763
cpu0_L1D RFO          ACCESS:          0 HIT:          0 MISS:          0
cpu0_L1D PREFETCH     ACCESS:    1191421 HIT:    1089889 MISS:     101532
cpu0_L1D WRITE        ACCESS:   12038421 HIT:   11698443 MISS:     339978
cpu0_L1D TRANSLATION  ACCESS:      50666 HIT:       5087 MISS:      45579
cpu0_L1D PREFETCH REQUESTED:    3096985 ISSUED:    1191397 USEFUL:       8853 USELESS:       4542
cpu0_L1D AVERAGE MISS LATENCY: 33.51 cycles
cpu0_L1I TOTAL        ACCESS:   23283745 HIT:   22795298 MISS:     488447
cpu0_L1I LOAD         ACCESS:   10223197 HIT:    9889865 MISS:     333332
cpu0_L1I RFO          ACCESS:          0 HIT:          0 MISS:          0
cpu0_L1I PREFETCH     ACCESS:   13060548 HIT:   12905433 MISS:     155115
cpu0_L1I WRITE        ACCESS:          0 HIT:          0 MISS:          0
cpu0_L1I TRANSLATION  ACCESS:          0 HIT:          0 MISS:          0
cpu0_L1I PREFETCH REQUESTED:   30192596 ISSUED:   13060539 USEFUL:     118186 USELESS:      20838
cpu0_L1I AVERAGE MISS LATENCY: 10.67 cycles
cpu0_L2C TOTAL        ACCESS:    1339962 HIT:     896401 MISS:     443561
cpu0_L2C LOAD         ACCESS:     413211 HIT:     277145 MISS:     136066
cpu0_L2C RFO          ACCESS:      65200 HIT:       9504 MISS:      55696
cpu0_L2C PREFETCH     ACCESS:     724038 HIT:     501473 MISS:     222565
cpu0_L2C WRITE        ACCESS:      92429 HIT:      92243 MISS:        186
cpu0_L2C TRANSLATION  ACCESS:      45084 HIT:      16036 MISS:      29048
cpu0_L2C PREFETCH REQUESTED:     625118 ISSUED:     512131 USEFUL:      16944 USELESS:      71367
cpu0_L2C AVERAGE MISS LATENCY: 98.67 cycles
cpu0_STLB TOTAL        ACCESS:     668376 HIT:     634142 MISS:      34234
cpu0_STLB LOAD         ACCESS:     668376 HIT:     634142 MISS:      34234
cpu0_STLB RFO          ACCESS:          0 HIT:          0 MISS:          0
cpu0_STLB PREFETCH     ACCESS:          0 HIT:          0 MISS:          0
cpu0_STLB WRITE        ACCESS:          0 HIT:          0 MISS:          0
cpu0_STLB TRANSLATION  ACCESS:          0 HIT:          0 MISS:          0
cpu0_STLB PREFETCH REQUESTED:          0 ISSUED:          0 USEFUL:          0 USELESS:          0
cpu0_STLB AVERAGE MISS LATENCY: 152.3 cycles

DRAM Statistics

Channel 0 RQ ROW_BUFFER_HIT:      25802
  ROW_BUFFER_MISS:      91605
 AVG DBUS CONGESTED CYCLE: 3.806
WQ ROW_BUFFER_HIT: Channel 0 
  ROW_BUFFER_MISS:       4131
  FULL:      17870

Channel 1 RQ ROW_BUFFER_HIT:      24912
  ROW_BUFFER_MISS:      89012
 AVG DBUS CONGESTED CYCLE: 3.793
WQ ROW_BUFFER_HIT: Channel 1 
  ROW_BUFFER_MISS:       3977
  FULL:      16457
BERTI TO_L1: 2481334 TO_L2: 3261207 TO_L2_BC_MSHR: 343406
BERTI AVG_LAT: 88.8248 NUM_TRACK_LATENCY: 259361 NUM_CANT_TRACK_LATENCY: 0
BERTI CROSS_PAGE 174509 NO_CROSS_PAGE: 5568032
BERTI FOUND_BERTI: 3080700 NO_FOUND_BERTI: 18519191
BERTI AVERAGE_ISSUED: 3.3054
CPU 0 L1I Entangling prefetcher final stats
IP accesses: 5ccf 1733c0 583959 / 10230220
IP misses: b772 2ddc80 1283 / 340355
IP hits: 0 0 0 / 0
IP late: 9d10 274400 497 / 145932
IP wrong: 39ff e7fc0 347 / 20454
miss rate: 0.0332696
coverage: 0
coverage_late: 0.428765
accuracy: 0
accuracy_late: 0.877069
discarded: 0
evicts entangled j table: 0
evicts entangled k table: 31980
max bb size: 18
formats: 5180 0 21132 7349 3196 4567 0 
hist_lookups: 4416 10328 18158 22188 21881 19325 13979 10884 10024 9328 7418 5127 3258 1930 475 0 63 52380 
hist_lookups_evict: 0.029835 %
hist_lookups_shortlat: 24.8056 %
bb_found_hist: 0 2842781 1019825 369599 238102 63532 81721 2249 394 378 350 0 0 375 0 0 0 0 13 0 0 0 0 0 0 0 0 0 0 0 0 0 0 0 0 0 0 0 0 0 0 0 0 0 0 0 0 0 0 0 0 0 0 0 0 0 0 0 0 0 0 0 0 0 
bb_found_summary: 7782528 4619319 1.68478
entangled_found_hist: 0 1807154 758844 1251886 730425 53370 2900 0 
entangled_found_summary: 10286450 4604579 2.23397
bb_ent_found_hist: 0 2825938 2121688 875478 246554 21080 274997 6469 2443 13 1062 0 0 1662 0 0 0 0 73 0 0 0 0 0 0 0 0 0 0 0 0 0 0 0 0 0 0 0 0 0 0 0 0 0 0 0 0 0 0 0 0 0 0 0 0 0 0 0 0 0 0 0 0 0 
bb_ent_found_summary: 12535830 6377457 1.96565
