WARNING: physical memory size is smaller than virtual memory size.

*** ChampSim Multicore Out-of-Order Simulator ***
Warmup Instructions: 30000000
Simulation Instructions: 100000000
Number of CPUs: 1
Page size: 4096

BTB:
Basic BTB sets: 1024 ways: 8
Indirect:
history lengths: 0 0 10 16 27 44 60 96 109 219 449 487 714 1313 2146 3881 
ITTAGE tables: 64768 bytes;Region table: 240 bytes;IUM: 384 bytes;Total Storage= 65392 bytes;
RAS:
RAS size: 64
Berti Prefetcher
CPU 0 Entangling prefetcher
Off-chip DRAM Size: 8 GiB Channels: 2 Width: 64-bit Data Race: 6400 MT/s
Heartbeat CPU 0 instructions: 10000004 cycles: 1720251 heartbeat IPC: 5.813 cumulative IPC: 5.813 (Simulation time: 00 hr 00 min 43 sec)
Heartbeat CPU 0 instructions: 20000001 cycles: 3438842 heartbeat IPC: 5.819 cumulative IPC: 5.816 (Simulation time: 00 hr 01 min 27 sec)
Heartbeat CPU 0 instructions: 30000001 cycles: 5157338 heartbeat IPC: 5.819 cumulative IPC: 5.817 (Simulation time: 00 hr 02 min 11 sec)
Warmup finished CPU 0 instructions: 30000001 cycles: 5157339 cumulative IPC: 5.817 (Simulation time: 00 hr 02 min 11 sec)
Warmup complete CPU 0 instructions: 30000001 cycles: 5157339 cumulative IPC: 5.817 (Simulation time: 00 hr 02 min 11 sec)
*** Reached end of trace: (0, "../traces/public_traces/srv/srv_20.champsimtrace.xz")
Heartbeat CPU 0 instructions: 40000010 cycles: 9347486 heartbeat IPC: 2.387 cumulative IPC: 2.387 (Simulation time: 00 hr 03 min 16 sec)
Heartbeat CPU 0 instructions: 50000000 cycles: 13486048 heartbeat IPC: 2.416 cumulative IPC: 2.401 (Simulation time: 00 hr 04 min 19 sec)
Heartbeat CPU 0 instructions: 60000003 cycles: 17687251 heartbeat IPC: 2.38 cumulative IPC: 2.394 (Simulation time: 00 hr 05 min 22 sec)
*** Reached end of trace: (0, "../traces/public_traces/srv/srv_20.champsimtrace.xz")
Heartbeat CPU 0 instructions: 70000000 cycles: 21820350 heartbeat IPC: 2.419 cumulative IPC: 2.401 (Simulation time: 00 hr 06 min 24 sec)
Heartbeat CPU 0 instructions: 80000005 cycles: 25945989 heartbeat IPC: 2.424 cumulative IPC: 2.405 (Simulation time: 00 hr 07 min 27 sec)
Heartbeat CPU 0 instructions: 90000010 cycles: 30131271 heartbeat IPC: 2.389 cumulative IPC: 2.403 (Simulation time: 00 hr 08 min 30 sec)
*** Reached end of trace: (0, "../traces/public_traces/srv/srv_20.champsimtrace.xz")
Heartbeat CPU 0 instructions: 100000004 cycles: 34264047 heartbeat IPC: 2.42 cumulative IPC: 2.405 (Simulation time: 00 hr 09 min 33 sec)
Heartbeat CPU 0 instructions: 110000008 cycles: 38348576 heartbeat IPC: 2.448 cumulative IPC: 2.41 (Simulation time: 00 hr 10 min 35 sec)
Heartbeat CPU 0 instructions: 120000001 cycles: 42526771 heartbeat IPC: 2.393 cumulative IPC: 2.408 (Simulation time: 00 hr 11 min 38 sec)
*** Reached end of trace: (0, "../traces/public_traces/srv/srv_20.champsimtrace.xz")
Heartbeat CPU 0 instructions: 130000009 cycles: 46655375 heartbeat IPC: 2.422 cumulative IPC: 2.41 (Simulation time: 00 hr 12 min 41 sec)
Simulation finished CPU 0 instructions: 100000008 cycles: 41498037 cumulative IPC: 2.41 (Simulation time: 00 hr 12 min 41 sec)
Simulation complete CPU 0 instructions: 100000008 cycles: 41498037 cumulative IPC: 2.41 (Simulation time: 00 hr 12 min 41 sec)

ChampSim completed all CPUs

=== Simulation ===
CPU 0 runs ../traces/public_traces/srv/srv_20.champsimtrace.xz
Region of Interest Statistics

CPU 0 cumulative IPC: 2.41 instructions: 100000008 cycles: 41498037
CPU 0 Branch Prediction Accuracy: 91.96% MPKI: 14.12 Average ROB Occupancy at Mispredict: 28
Branch type MPKI
BRANCH_DIRECT_JUMP: 1.1
BRANCH_INDIRECT: 5.88
BRANCH_CONDITIONAL: 1.93
BRANCH_DIRECT_CALL: 2.96
BRANCH_INDIRECT_CALL: 0.413
BRANCH_RETURN: 1.84

LLC TOTAL        ACCESS:     137540 HIT:     135902 MISS:       1638
LLC LOAD         ACCESS:      35538 HIT:      35237 MISS:        301
LLC RFO          ACCESS:      34151 HIT:      33778 MISS:        373
LLC PREFETCH     ACCESS:      28328 HIT:      27461 MISS:        867
LLC WRITE        ACCESS:      39108 HIT:      39100 MISS:          8
LLC TRANSLATION  ACCESS:        415 HIT:        326 MISS:         89
LLC PREFETCH REQUESTED:          0 ISSUED:          0 USEFUL:          0 USELESS:          0
LLC AVERAGE MISS LATENCY: 143.4 cycles
cpu0_DTLB TOTAL        ACCESS:   20385377 HIT:   19522691 MISS:     862686
cpu0_DTLB LOAD         ACCESS:   20385377 HIT:   19522691 MISS:     862686
cpu0_DTLB RFO          ACCESS:          0 HIT:          0 MISS:          0
cpu0_DTLB PREFETCH     ACCESS:          0 HIT:          0 MISS:          0
cpu0_DTLB WRITE        ACCESS:          0 HIT:          0 MISS:          0
cpu0_DTLB TRANSLATION  ACCESS:          0 HIT:          0 MISS:          0
cpu0_DTLB PREFETCH REQUESTED:          0 ISSUED:          0 USEFUL:          0 USELESS:          0
cpu0_DTLB AVERAGE MISS LATENCY: 4.995 cycles
cpu0_ITLB TOTAL        ACCESS:   22259144 HIT:   21289394 MISS:     969750
cpu0_ITLB LOAD         ACCESS:   22259144 HIT:   21289394 MISS:     969750
cpu0_ITLB RFO          ACCESS:          0 HIT:          0 MISS:          0
cpu0_ITLB PREFETCH     ACCESS:          0 HIT:          0 MISS:          0
cpu0_ITLB WRITE        ACCESS:          0 HIT:          0 MISS:          0
cpu0_ITLB TRANSLATION  ACCESS:          0 HIT:          0 MISS:          0
cpu0_ITLB PREFETCH REQUESTED:          0 ISSUED:          0 USEFUL:          0 USELESS:          0
cpu0_ITLB AVERAGE MISS LATENCY: 3.778 cycles
cpu0_L1D TOTAL        ACCESS:   30960579 HIT:   27194164 MISS:    3766415
cpu0_L1D LOAD         ACCESS:   17494792 HIT:   15476342 MISS:    2018450
cpu0_L1D RFO          ACCESS:          0 HIT:          0 MISS:          0
cpu0_L1D PREFETCH     ACCESS:      12549 HIT:       6918 MISS:       5631
cpu0_L1D WRITE        ACCESS:   13452197 HIT:   11710822 MISS:    1741375
cpu0_L1D TRANSLATION  ACCESS:       1041 HIT:         82 MISS:        959
cpu0_L1D PREFETCH REQUESTED:     162317 ISSUED:      12549 USEFUL:        364 USELESS:         61
cpu0_L1D AVERAGE MISS LATENCY: 5.453 cycles
cpu0_L1I TOTAL        ACCESS:   32518218 HIT:   25309172 MISS:    7209046
cpu0_L1I LOAD         ACCESS:   10200964 HIT:    8971142 MISS:    1229822
cpu0_L1I RFO          ACCESS:          0 HIT:          0 MISS:          0
cpu0_L1I PREFETCH     ACCESS:   22317254 HIT:   16338030 MISS:    5979224
cpu0_L1I WRITE        ACCESS:          0 HIT:          0 MISS:          0
cpu0_L1I TRANSLATION  ACCESS:          0 HIT:          0 MISS:          0
cpu0_L1I PREFETCH REQUESTED:   31437690 ISSUED:   22317248 USEFUL:    4624753 USELESS:    1183631
cpu0_L1I AVERAGE MISS LATENCY: 10.6 cycles
cpu0_L2C TOTAL        ACCESS:   17283667 HIT:   17176414 MISS:     107253
cpu0_L2C LOAD         ACCESS:    2261047 HIT:    2224986 MISS:      36061
cpu0_L2C RFO          ACCESS:     558853 HIT:     524700 MISS:      34153
cpu0_L2C PREFETCH     ACCESS:   13473620 HIT:   13437020 MISS:      36600
cpu0_L2C WRITE        ACCESS:     989191 HIT:     989167 MISS:         24
cpu0_L2C TRANSLATION  ACCESS:        956 HIT:        541 MISS:        415
cpu0_L2C PREFETCH REQUESTED:    8072205 ISSUED:    7662469 USEFUL:       5254 USELESS:      13473
cpu0_L2C AVERAGE MISS LATENCY: 20.64 cycles
cpu0_STLB TOTAL        ACCESS:    1169752 HIT:    1168766 MISS:        986
cpu0_STLB LOAD         ACCESS:    1169752 HIT:    1168766 MISS:        986
cpu0_STLB RFO          ACCESS:          0 HIT:          0 MISS:          0
cpu0_STLB PREFETCH     ACCESS:          0 HIT:          0 MISS:          0
cpu0_STLB WRITE        ACCESS:          0 HIT:          0 MISS:          0
cpu0_STLB TRANSLATION  ACCESS:          0 HIT:          0 MISS:          0
cpu0_STLB PREFETCH REQUESTED:          0 ISSUED:          0 USEFUL:          0 USELESS:          0
cpu0_STLB AVERAGE MISS LATENCY: 47.28 cycles

DRAM Statistics

Channel 0 RQ ROW_BUFFER_HIT:        177
  ROW_BUFFER_MISS:        614
 AVG DBUS CONGESTED CYCLE: 3.52
WQ ROW_BUFFER_HIT: Channel 0 
  ROW_BUFFER_MISS:         11
  FULL:         98

Channel 1 RQ ROW_BUFFER_HIT:        196
  ROW_BUFFER_MISS:        643
 AVG DBUS CONGESTED CYCLE: 3.568
WQ ROW_BUFFER_HIT: Channel 1 
  ROW_BUFFER_MISS:          5
  FULL:         59
BERTI TO_L1: 37864 TO_L2: 195885 TO_L2_BC_MSHR: 46806
BERTI AVG_LAT: 10.3195 NUM_TRACK_LATENCY: 1888553 NUM_CANT_TRACK_LATENCY: 0
BERTI CROSS_PAGE 40955 NO_CROSS_PAGE: 192794
BERTI FOUND_BERTI: 676804 NO_FOUND_BERTI: 21699358
BERTI AVERAGE_ISSUED: 2.5883
CPU 0 L1I Entangling prefetcher final stats
IP accesses: a3d2 28f480 40658 / 10213381
IP misses: 8fc6 23f180 10119 / 1242239
IP hits: 0 0 0 / 0
IP late: 9d10 274400 2392 / 634202
IP wrong: 4f8b 13e2c0 4630 / 1177820
miss rate: 0.121629
coverage: 0
coverage_late: 0.510532
accuracy: 0
accuracy_late: 0.349997
discarded: 0
evicts entangled j table: 0
evicts entangled k table: 217253
max bb size: 13
formats: 90417 34804 126867 19560 10665 27466 0 
hist_lookups: 75263 116271 115683 117475 103596 86964 72268 56609 45593 34571 26940 19532 12992 7266 3065 0 0 187200 
hist_lookups_evict: 0 %
hist_lookups_shortlat: 17.3127 %
bb_found_hist: 0 2529932 1009351 489523 213058 106110 86812 20688 12190 4698 6687 8647 0 1406 0 0 0 0 0 0 0 0 0 0 0 0 0 0 0 0 0 0 0 0 0 0 0 0 0 0 0 0 0 0 0 0 0 0 0 0 0 0 0 0 0 0 0 0 0 0 0 0 0 0 
bb_found_summary: 8385740 4489102 1.86803
entangled_found_hist: 0 1730442 1337315 1911926 265265 69129 17782 0 
entangled_found_summary: 11654247 5331859 2.18578
bb_ent_found_hist: 0 3715537 1992854 920577 492349 197340 172013 42427 13682 5646 15187 27674 0 8986 0 0 0 0 0 0 0 0 0 0 0 0 0 0 0 0 0 0 0 0 0 0 0 0 0 0 0 0 0 0 0 0 0 0 0 0 0 0 0 0 0 0 0 0 0 0 0 0 0 0 
bb_ent_found_summary: 15481511 7604272 2.0359
