WARNING: physical memory size is smaller than virtual memory size.

*** ChampSim Multicore Out-of-Order Simulator ***
Warmup Instructions: 30000000
Simulation Instructions: 100000000
Number of CPUs: 1
Page size: 4096

BTB:
Basic BTB sets: 1024 ways: 8
Indirect:
history lengths: 0 0 10 16 27 44 60 96 109 219 449 487 714 1313 2146 3881 
ITTAGE tables: 64768 bytes;Region table: 240 bytes;IUM: 384 bytes;Total Storage= 65392 bytes;
RAS:
RAS size: 64
Berti Prefetcher
CPU 0 Entangling prefetcher
Off-chip DRAM Size: 8 GiB Channels: 2 Width: 64-bit Data Race: 6400 MT/s
Heartbeat CPU 0 instructions: 10000009 cycles: 1718370 heartbeat IPC: 5.819 cumulative IPC: 5.819 (Simulation time: 00 hr 00 min 47 sec)
Heartbeat CPU 0 instructions: 20000008 cycles: 3436274 heartbeat IPC: 5.821 cumulative IPC: 5.82 (Simulation time: 00 hr 01 min 34 sec)
Heartbeat CPU 0 instructions: 30000004 cycles: 5153660 heartbeat IPC: 5.823 cumulative IPC: 5.821 (Simulation time: 00 hr 02 min 21 sec)
Warmup finished CPU 0 instructions: 30000004 cycles: 5153661 cumulative IPC: 5.821 (Simulation time: 00 hr 02 min 21 sec)
Warmup complete CPU 0 instructions: 30000004 cycles: 5153661 cumulative IPC: 5.821 (Simulation time: 00 hr 02 min 21 sec)
*** Reached end of trace: (0, "../traces/public_traces/srv/srv_74.champsimtrace.xz")
Heartbeat CPU 0 instructions: 40000000 cycles: 9329160 heartbeat IPC: 2.395 cumulative IPC: 2.395 (Simulation time: 00 hr 03 min 32 sec)
Heartbeat CPU 0 instructions: 50000010 cycles: 13413611 heartbeat IPC: 2.448 cumulative IPC: 2.421 (Simulation time: 00 hr 04 min 45 sec)
Heartbeat CPU 0 instructions: 60000009 cycles: 17556958 heartbeat IPC: 2.414 cumulative IPC: 2.419 (Simulation time: 00 hr 06 min 06 sec)
*** Reached end of trace: (0, "../traces/public_traces/srv/srv_74.champsimtrace.xz")
Heartbeat CPU 0 instructions: 70000007 cycles: 21679433 heartbeat IPC: 2.426 cumulative IPC: 2.42 (Simulation time: 00 hr 07 min 15 sec)
Heartbeat CPU 0 instructions: 80000001 cycles: 25746982 heartbeat IPC: 2.458 cumulative IPC: 2.428 (Simulation time: 00 hr 08 min 23 sec)
Heartbeat CPU 0 instructions: 90000000 cycles: 29857622 heartbeat IPC: 2.433 cumulative IPC: 2.429 (Simulation time: 00 hr 09 min 37 sec)
*** Reached end of trace: (0, "../traces/public_traces/srv/srv_74.champsimtrace.xz")
Heartbeat CPU 0 instructions: 100000001 cycles: 33981718 heartbeat IPC: 2.425 cumulative IPC: 2.428 (Simulation time: 00 hr 10 min 55 sec)
Heartbeat CPU 0 instructions: 110000000 cycles: 38032329 heartbeat IPC: 2.469 cumulative IPC: 2.433 (Simulation time: 00 hr 12 min 11 sec)
Heartbeat CPU 0 instructions: 120000011 cycles: 42143876 heartbeat IPC: 2.432 cumulative IPC: 2.433 (Simulation time: 00 hr 13 min 25 sec)
*** Reached end of trace: (0, "../traces/public_traces/srv/srv_74.champsimtrace.xz")
Heartbeat CPU 0 instructions: 130000002 cycles: 46254671 heartbeat IPC: 2.433 cumulative IPC: 2.433 (Simulation time: 00 hr 14 min 41 sec)
Simulation finished CPU 0 instructions: 100000000 cycles: 41101012 cumulative IPC: 2.433 (Simulation time: 00 hr 14 min 41 sec)
Simulation complete CPU 0 instructions: 100000000 cycles: 41101012 cumulative IPC: 2.433 (Simulation time: 00 hr 14 min 41 sec)

ChampSim completed all CPUs

=== Simulation ===
CPU 0 runs ../traces/public_traces/srv/srv_74.champsimtrace.xz
Region of Interest Statistics

CPU 0 cumulative IPC: 2.433 instructions: 100000000 cycles: 41101012
CPU 0 Branch Prediction Accuracy: 92.12% MPKI: 13.87 Average ROB Occupancy at Mispredict: 28.6
Branch type MPKI
BRANCH_DIRECT_JUMP: 1.08
BRANCH_INDIRECT: 5.78
BRANCH_CONDITIONAL: 1.89
BRANCH_DIRECT_CALL: 2.91
BRANCH_INDIRECT_CALL: 0.394
BRANCH_RETURN: 1.81

LLC TOTAL        ACCESS:      93353 HIT:      91951 MISS:       1402
LLC LOAD         ACCESS:      26211 HIT:      25968 MISS:        243
LLC RFO          ACCESS:      20720 HIT:      20435 MISS:        285
LLC PREFETCH     ACCESS:      21009 HIT:      20214 MISS:        795
LLC WRITE        ACCESS:      25009 HIT:      25003 MISS:          6
LLC TRANSLATION  ACCESS:        404 HIT:        331 MISS:         73
LLC PREFETCH REQUESTED:          0 ISSUED:          0 USEFUL:          0 USELESS:          0
LLC AVERAGE MISS LATENCY: 138.5 cycles
cpu0_DTLB TOTAL        ACCESS:   20320672 HIT:   19452472 MISS:     868200
cpu0_DTLB LOAD         ACCESS:   20320672 HIT:   19452472 MISS:     868200
cpu0_DTLB RFO          ACCESS:          0 HIT:          0 MISS:          0
cpu0_DTLB PREFETCH     ACCESS:          0 HIT:          0 MISS:          0
cpu0_DTLB WRITE        ACCESS:          0 HIT:          0 MISS:          0
cpu0_DTLB TRANSLATION  ACCESS:          0 HIT:          0 MISS:          0
cpu0_DTLB PREFETCH REQUESTED:          0 ISSUED:          0 USEFUL:          0 USELESS:          0
cpu0_DTLB AVERAGE MISS LATENCY: 5.045 cycles
cpu0_ITLB TOTAL        ACCESS:   22267903 HIT:   21311866 MISS:     956037
cpu0_ITLB LOAD         ACCESS:   22267903 HIT:   21311866 MISS:     956037
cpu0_ITLB RFO          ACCESS:          0 HIT:          0 MISS:          0
cpu0_ITLB PREFETCH     ACCESS:          0 HIT:          0 MISS:          0
cpu0_ITLB WRITE        ACCESS:          0 HIT:          0 MISS:          0
cpu0_ITLB TRANSLATION  ACCESS:          0 HIT:          0 MISS:          0
cpu0_ITLB PREFETCH REQUESTED:          0 ISSUED:          0 USEFUL:          0 USELESS:          0
cpu0_ITLB AVERAGE MISS LATENCY: 3.767 cycles
cpu0_L1D TOTAL        ACCESS:   30915061 HIT:   27194872 MISS:    3720189
cpu0_L1D LOAD         ACCESS:   17444003 HIT:   15438025 MISS:    2005978
cpu0_L1D RFO          ACCESS:          0 HIT:          0 MISS:          0
cpu0_L1D PREFETCH     ACCESS:       9596 HIT:       5837 MISS:       3759
cpu0_L1D WRITE        ACCESS:   13460529 HIT:   11750946 MISS:    1709583
cpu0_L1D TRANSLATION  ACCESS:        933 HIT:         64 MISS:        869
cpu0_L1D PREFETCH REQUESTED:      83638 ISSUED:       9596 USEFUL:        400 USELESS:         23
cpu0_L1D AVERAGE MISS LATENCY: 5.318 cycles
cpu0_L1I TOTAL        ACCESS:   32555812 HIT:   25358251 MISS:    7197561
cpu0_L1I LOAD         ACCESS:   10275020 HIT:    9054906 MISS:    1220114
cpu0_L1I RFO          ACCESS:          0 HIT:          0 MISS:          0
cpu0_L1I PREFETCH     ACCESS:   22280792 HIT:   16303345 MISS:    5977447
cpu0_L1I WRITE        ACCESS:          0 HIT:          0 MISS:          0
cpu0_L1I TRANSLATION  ACCESS:          0 HIT:          0 MISS:          0
cpu0_L1I PREFETCH REQUESTED:   31861249 ISSUED:   22280778 USEFUL:    4649367 USELESS:    1155155
cpu0_L1I AVERAGE MISS LATENCY: 10.62 cycles
cpu0_L2C TOTAL        ACCESS:   17255813 HIT:   17180544 MISS:      75269
cpu0_L2C LOAD         ACCESS:    2260993 HIT:    2234412 MISS:      26581
cpu0_L2C RFO          ACCESS:     549536 HIT:     528781 MISS:      20755
cpu0_L2C PREFETCH     ACCESS:   13457671 HIT:   13430142 MISS:      27529
cpu0_L2C WRITE        ACCESS:     986747 HIT:     986747 MISS:          0
cpu0_L2C TRANSLATION  ACCESS:        866 HIT:        462 MISS:        404
cpu0_L2C PREFETCH REQUESTED:    8066964 ISSUED:    7651668 USEFUL:       3840 USELESS:       9359
cpu0_L2C AVERAGE MISS LATENCY: 20.76 cycles
cpu0_STLB TOTAL        ACCESS:    1168071 HIT:    1167183 MISS:        888
cpu0_STLB LOAD         ACCESS:    1168071 HIT:    1167183 MISS:        888
cpu0_STLB RFO          ACCESS:          0 HIT:          0 MISS:          0
cpu0_STLB PREFETCH     ACCESS:          0 HIT:          0 MISS:          0
cpu0_STLB WRITE        ACCESS:          0 HIT:          0 MISS:          0
cpu0_STLB TRANSLATION  ACCESS:          0 HIT:          0 MISS:          0
cpu0_STLB PREFETCH REQUESTED:          0 ISSUED:          0 USEFUL:          0 USELESS:          0
cpu0_STLB AVERAGE MISS LATENCY: 48.17 cycles

DRAM Statistics

Channel 0 RQ ROW_BUFFER_HIT:        170
  ROW_BUFFER_MISS:        495
 AVG DBUS CONGESTED CYCLE: 3.555
WQ ROW_BUFFER_HIT: Channel 0 
  ROW_BUFFER_MISS:          0
  FULL:         39

Channel 1 RQ ROW_BUFFER_HIT:        191
  ROW_BUFFER_MISS:        540
 AVG DBUS CONGESTED CYCLE: 3.529
WQ ROW_BUFFER_HIT: Channel 1 
  ROW_BUFFER_MISS:          1
  FULL:         38
BERTI TO_L1: 31870 TO_L2: 96388 TO_L2_BC_MSHR: 22120
BERTI AVG_LAT: 10.0696 NUM_TRACK_LATENCY: 1880511 NUM_CANT_TRACK_LATENCY: 0
BERTI CROSS_PAGE 19237 NO_CROSS_PAGE: 109021
BERTI FOUND_BERTI: 628049 NO_FOUND_BERTI: 21674584
BERTI AVERAGE_ISSUED: 2.56407
CPU 0 L1I Entangling prefetcher final stats
IP accesses: a3d2 28f480 41472 / 10286650
IP misses: 8fc6 23f180 8753 / 1231744
IP hits: 0 0 0 / 0
IP late: 9cf1 273c40 2460 / 629385
IP wrong: a3c5 28f140 4768 / 1149582
miss rate: 0.119742
coverage: 0
coverage_late: 0.510971
accuracy: 0
accuracy_late: 0.353793
discarded: 0
evicts entangled j table: 0
evicts entangled k table: 220649
max bb size: 13
formats: 92901 33428 127322 22113 12193 25072 0 
hist_lookups: 67368 108276 117414 116279 104192 85832 70995 59100 48647 38881 28271 19737 13436 6849 2805 0 3 189604 
hist_lookups_evict: 0.000278374 %
hist_lookups_shortlat: 17.5936 %
bb_found_hist: 0 2545444 1046384 484359 217586 109508 80815 25380 12743 4712 8142 6597 0 1415 0 0 0 0 0 0 0 0 0 0 0 0 0 0 0 0 0 0 0 0 0 0 0 0 0 0 0 0 0 0 0 0 0 0 0 0 0 0 0 0 0 0 0 0 0 0 0 0 0 0 
bb_found_summary: 8488457 4543085 1.86844
entangled_found_hist: 0 1759527 1302207 1985481 256655 72018 23122 0 
entangled_found_summary: 11845826 5399010 2.19408
bb_ent_found_hist: 0 3707061 2112979 906157 480151 166779 170132 72685 18730 1292 17081 34602 0 10777 0 0 0 0 0 0 0 0 0 0 0 0 0 0 0 0 0 0 0 0 0 0 0 0 0 0 0 0 0 0 0 0 0 0 0 0 0 0 0 0 0 0 0 0 0 0 0 0 0 0 
bb_ent_found_summary: 15788577 7698426 2.05089
