WARNING: physical memory size is smaller than virtual memory size.

*** ChampSim Multicore Out-of-Order Simulator ***
Warmup Instructions: 30000000
Simulation Instructions: 100000000
Number of CPUs: 1
Page size: 4096

BTB:
Basic BTB sets: 1024 ways: 8
Indirect:
history lengths: 0 0 10 16 27 44 60 96 109 219 449 487 714 1313 2146 3881 
ITTAGE tables: 64768 bytes;Region table: 240 bytes;IUM: 384 bytes;Total Storage= 65392 bytes;
RAS:
RAS size: 64
Berti Prefetcher
CPU 0 Entangling prefetcher
Off-chip DRAM Size: 8 GiB Channels: 2 Width: 64-bit Data Race: 6400 MT/s
Heartbeat CPU 0 instructions: 10000002 cycles: 1763621 heartbeat IPC: 5.67 cumulative IPC: 5.67 (Simulation time: 00 hr 00 min 44 sec)
Heartbeat CPU 0 instructions: 20000010 cycles: 3528857 heartbeat IPC: 5.665 cumulative IPC: 5.668 (Simulation time: 00 hr 01 min 30 sec)
Heartbeat CPU 0 instructions: 30000004 cycles: 5293232 heartbeat IPC: 5.668 cumulative IPC: 5.668 (Simulation time: 00 hr 02 min 16 sec)
Warmup finished CPU 0 instructions: 30000004 cycles: 5293233 cumulative IPC: 5.668 (Simulation time: 00 hr 02 min 16 sec)
Warmup complete CPU 0 instructions: 30000004 cycles: 5293233 cumulative IPC: 5.668 (Simulation time: 00 hr 02 min 16 sec)
*** Reached end of trace: (0, "../traces/public_traces/srv/srv_46.champsimtrace.xz")
Heartbeat CPU 0 instructions: 40000000 cycles: 9143218 heartbeat IPC: 2.597 cumulative IPC: 2.597 (Simulation time: 00 hr 03 min 41 sec)
Heartbeat CPU 0 instructions: 50000008 cycles: 12836805 heartbeat IPC: 2.707 cumulative IPC: 2.651 (Simulation time: 00 hr 04 min 58 sec)
Heartbeat CPU 0 instructions: 60000010 cycles: 16656076 heartbeat IPC: 2.618 cumulative IPC: 2.64 (Simulation time: 00 hr 06 min 11 sec)
*** Reached end of trace: (0, "../traces/public_traces/srv/srv_46.champsimtrace.xz")
Heartbeat CPU 0 instructions: 70000003 cycles: 20462993 heartbeat IPC: 2.627 cumulative IPC: 2.637 (Simulation time: 00 hr 07 min 16 sec)
Heartbeat CPU 0 instructions: 80000002 cycles: 24104327 heartbeat IPC: 2.746 cumulative IPC: 2.658 (Simulation time: 00 hr 08 min 28 sec)
Heartbeat CPU 0 instructions: 90000003 cycles: 27825730 heartbeat IPC: 2.687 cumulative IPC: 2.663 (Simulation time: 00 hr 09 min 48 sec)
*** Reached end of trace: (0, "../traces/public_traces/srv/srv_46.champsimtrace.xz")
Heartbeat CPU 0 instructions: 100000007 cycles: 31626591 heartbeat IPC: 2.631 cumulative IPC: 2.658 (Simulation time: 00 hr 11 min 05 sec)
Heartbeat CPU 0 instructions: 110000005 cycles: 35347833 heartbeat IPC: 2.687 cumulative IPC: 2.662 (Simulation time: 00 hr 12 min 24 sec)
Heartbeat CPU 0 instructions: 120000006 cycles: 38921636 heartbeat IPC: 2.798 cumulative IPC: 2.676 (Simulation time: 00 hr 13 min 41 sec)
*** Reached end of trace: (0, "../traces/public_traces/srv/srv_46.champsimtrace.xz")
Heartbeat CPU 0 instructions: 130000004 cycles: 42750776 heartbeat IPC: 2.612 cumulative IPC: 2.67 (Simulation time: 00 hr 14 min 47 sec)
Simulation finished CPU 0 instructions: 100000000 cycles: 37457544 cumulative IPC: 2.67 (Simulation time: 00 hr 14 min 47 sec)
Simulation complete CPU 0 instructions: 100000000 cycles: 37457544 cumulative IPC: 2.67 (Simulation time: 00 hr 14 min 47 sec)

ChampSim completed all CPUs

=== Simulation ===
CPU 0 runs ../traces/public_traces/srv/srv_46.champsimtrace.xz
Region of Interest Statistics

CPU 0 cumulative IPC: 2.67 instructions: 100000000 cycles: 37457544
CPU 0 Branch Prediction Accuracy: 96% MPKI: 7.001 Average ROB Occupancy at Mispredict: 35.57
Branch type MPKI
BRANCH_DIRECT_JUMP: 0.562
BRANCH_INDIRECT: 3.21
BRANCH_CONDITIONAL: 0.937
BRANCH_DIRECT_CALL: 1.1
BRANCH_INDIRECT_CALL: 0.394
BRANCH_RETURN: 0.802

LLC TOTAL        ACCESS:     669032 HIT:     425711 MISS:     243321
LLC LOAD         ACCESS:      98484 HIT:      41918 MISS:      56566
LLC RFO          ACCESS:     150298 HIT:      83087 MISS:      67211
LLC PREFETCH     ACCESS:     208677 HIT:     106911 MISS:     101766
LLC WRITE        ACCESS:     191603 HIT:     189802 MISS:       1801
LLC TRANSLATION  ACCESS:      19970 HIT:       3993 MISS:      15977
LLC PREFETCH REQUESTED:          0 ISSUED:          0 USEFUL:          0 USELESS:          0
LLC AVERAGE MISS LATENCY: 167.9 cycles
cpu0_DTLB TOTAL        ACCESS:   19491157 HIT:   19030521 MISS:     460636
cpu0_DTLB LOAD         ACCESS:   19491157 HIT:   19030521 MISS:     460636
cpu0_DTLB RFO          ACCESS:          0 HIT:          0 MISS:          0
cpu0_DTLB PREFETCH     ACCESS:          0 HIT:          0 MISS:          0
cpu0_DTLB WRITE        ACCESS:          0 HIT:          0 MISS:          0
cpu0_DTLB TRANSLATION  ACCESS:          0 HIT:          0 MISS:          0
cpu0_DTLB PREFETCH REQUESTED:          0 ISSUED:          0 USEFUL:          0 USELESS:          0
cpu0_DTLB AVERAGE MISS LATENCY: 12.1 cycles
cpu0_ITLB TOTAL        ACCESS:   18075646 HIT:   17688521 MISS:     387125
cpu0_ITLB LOAD         ACCESS:   18075646 HIT:   17688521 MISS:     387125
cpu0_ITLB RFO          ACCESS:          0 HIT:          0 MISS:          0
cpu0_ITLB PREFETCH     ACCESS:          0 HIT:          0 MISS:          0
cpu0_ITLB WRITE        ACCESS:          0 HIT:          0 MISS:          0
cpu0_ITLB TRANSLATION  ACCESS:          0 HIT:          0 MISS:          0
cpu0_ITLB PREFETCH REQUESTED:          0 ISSUED:          0 USEFUL:          0 USELESS:          0
cpu0_ITLB AVERAGE MISS LATENCY: 4.284 cycles
cpu0_L1D TOTAL        ACCESS:   32087277 HIT:   28742182 MISS:    3345095
cpu0_L1D LOAD         ACCESS:   19411803 HIT:   18134395 MISS:    1277408
cpu0_L1D RFO          ACCESS:          0 HIT:          0 MISS:          0
cpu0_L1D PREFETCH     ACCESS:     441859 HIT:     220366 MISS:     221493
cpu0_L1D WRITE        ACCESS:   12208994 HIT:   10386207 MISS:    1822787
cpu0_L1D TRANSLATION  ACCESS:      24621 HIT:       1214 MISS:      23407
cpu0_L1D PREFETCH REQUESTED:    1925848 ISSUED:     441859 USEFUL:      13674 USELESS:       7876
cpu0_L1D AVERAGE MISS LATENCY: 12.67 cycles
cpu0_L1I TOTAL        ACCESS:   26177932 HIT:   22596195 MISS:    3581737
cpu0_L1I LOAD         ACCESS:    9955734 HIT:    9125398 MISS:     830336
cpu0_L1I RFO          ACCESS:          0 HIT:          0 MISS:          0
cpu0_L1I PREFETCH     ACCESS:   16222198 HIT:   13470797 MISS:    2751401
cpu0_L1I WRITE        ACCESS:          0 HIT:          0 MISS:          0
cpu0_L1I TRANSLATION  ACCESS:          0 HIT:          0 MISS:          0
cpu0_L1I PREFETCH REQUESTED:   35682170 ISSUED:   16222190 USEFUL:    1982557 USELESS:     669436
cpu0_L1I AVERAGE MISS LATENCY: 10.98 cycles
cpu0_L2C TOTAL        ACCESS:    9444379 HIT:    8853804 MISS:     590575
cpu0_L2C LOAD         ACCESS:    1419605 HIT:    1308393 MISS:     111212
cpu0_L2C RFO          ACCESS:     428073 HIT:     276742 MISS:     151331
cpu0_L2C PREFETCH     ACCESS:    6941929 HIT:    6633873 MISS:     308056
cpu0_L2C WRITE        ACCESS:     632485 HIT:     632479 MISS:          6
cpu0_L2C TRANSLATION  ACCESS:      22287 HIT:       2317 MISS:      19970
cpu0_L2C PREFETCH REQUESTED:    4283547 ISSUED:    4079086 USEFUL:      59043 USELESS:      68458
cpu0_L2C AVERAGE MISS LATENCY: 83.87 cycles
cpu0_STLB TOTAL        ACCESS:     528369 HIT:     513478 MISS:      14891
cpu0_STLB LOAD         ACCESS:     528369 HIT:     513478 MISS:      14891
cpu0_STLB RFO          ACCESS:          0 HIT:          0 MISS:          0
cpu0_STLB PREFETCH     ACCESS:          0 HIT:          0 MISS:          0
cpu0_STLB WRITE        ACCESS:          0 HIT:          0 MISS:          0
cpu0_STLB TRANSLATION  ACCESS:          0 HIT:          0 MISS:          0
cpu0_STLB PREFETCH REQUESTED:          0 ISSUED:          0 USEFUL:          0 USELESS:          0
cpu0_STLB AVERAGE MISS LATENCY: 271.1 cycles

DRAM Statistics

Channel 0 RQ ROW_BUFFER_HIT:      55224
  ROW_BUFFER_MISS:      67101
 AVG DBUS CONGESTED CYCLE: 3.863
WQ ROW_BUFFER_HIT: Channel 0 
  ROW_BUFFER_MISS:       9314
  FULL:      36940

Channel 1 RQ ROW_BUFFER_HIT:      53911
  ROW_BUFFER_MISS:      65270
 AVG DBUS CONGESTED CYCLE: 3.857
WQ ROW_BUFFER_HIT: Channel 1 
  ROW_BUFFER_MISS:       9143
  FULL:      36377
BERTI TO_L1: 295598 TO_L2: 1976734 TO_L2_BC_MSHR: 814892
BERTI AVG_LAT: 23.5392 NUM_TRACK_LATENCY: 1167822 NUM_CANT_TRACK_LATENCY: 0
BERTI CROSS_PAGE 404024 NO_CROSS_PAGE: 1868308
BERTI FOUND_BERTI: 1191957 NO_FOUND_BERTI: 24709922
BERTI AVERAGE_ISSUED: 4.48357
CPU 0 L1I Entangling prefetcher final stats
IP accesses: cd42 335080 61210 / 9964544
IP misses: f2a2 3ca880 4641 / 839146
IP hits: 0 0 0 / 0
IP late: e7a1 39e840 1883 / 393984
IP wrong: 9a9c 26a700 2187 / 665802
miss rate: 0.0842132
coverage: 0
coverage_late: 0.469506
accuracy: 0
accuracy_late: 0.371759
discarded: 0
evicts entangled j table: 0
evicts entangled k table: 144553
max bb size: 40
formats: 54784 0 99673 16456 9884 22363 0 
hist_lookups: 43443 70519 79467 78886 78024 72386 53438 41304 28479 21496 16490 11022 6703 3929 1942 0 27 181870 
hist_lookups_evict: 0.00342022 %
hist_lookups_shortlat: 23.0383 %
bb_found_hist: 0 2849488 1041760 449406 161858 50229 37192 9173 14735 18423 3455 1258 96 2141 0 0 0 0 0 0 0 0 0 0 0 0 0 0 0 0 61 0 0 0 0 0 0 73 0 0 78 0 0 0 0 0 0 0 0 0 0 0 0 0 0 0 0 0 0 0 0 0 0 0 
bb_found_summary: 7835877 4639426 1.68898
entangled_found_hist: 0 1562141 1135436 2791997 271422 61770 7433 0 
entangled_found_summary: 13648140 5830199 2.34094
bb_ent_found_hist: 0 4957563 2231643 891890 372975 183229 96730 20177 35337 66906 15334 6796 1215 6019 0 0 0 0 0 0 0 0 0 0 0 0 0 0 0 0 122 0 0 0 0 0 0 469 0 0 39 0 0 0 0 0 0 0 0 0 0 0 0 0 0 0 0 0 0 0 0 0 0 0 
bb_ent_found_summary: 16454529 8886444 1.85165
