WARNING: physical memory size is smaller than virtual memory size.

*** ChampSim Multicore Out-of-Order Simulator ***
Warmup Instructions: 30000000
Simulation Instructions: 100000000
Number of CPUs: 1
Page size: 4096

BTB:
Basic BTB sets: 1024 ways: 8
Indirect:
history lengths: 0 0 10 16 27 44 60 96 109 219 449 487 714 1313 2146 3881 
ITTAGE tables: 64768 bytes;Region table: 240 bytes;IUM: 384 bytes;Total Storage= 65392 bytes;
RAS:
RAS size: 64
Berti Prefetcher
CPU 0 Entangling prefetcher
Off-chip DRAM Size: 8 GiB Channels: 2 Width: 64-bit Data Race: 6400 MT/s
Heartbeat CPU 0 instructions: 10000004 cycles: 1717914 heartbeat IPC: 5.821 cumulative IPC: 5.821 (Simulation time: 00 hr 00 min 43 sec)
Heartbeat CPU 0 instructions: 20000004 cycles: 3435894 heartbeat IPC: 5.821 cumulative IPC: 5.821 (Simulation time: 00 hr 01 min 26 sec)
Heartbeat CPU 0 instructions: 30000000 cycles: 5154084 heartbeat IPC: 5.82 cumulative IPC: 5.821 (Simulation time: 00 hr 02 min 10 sec)
Warmup finished CPU 0 instructions: 30000000 cycles: 5154085 cumulative IPC: 5.821 (Simulation time: 00 hr 02 min 10 sec)
Warmup complete CPU 0 instructions: 30000000 cycles: 5154085 cumulative IPC: 5.821 (Simulation time: 00 hr 02 min 10 sec)
*** Reached end of trace: (0, "../traces/public_traces/srv/srv_21.champsimtrace.xz")
Heartbeat CPU 0 instructions: 40000004 cycles: 9358121 heartbeat IPC: 2.379 cumulative IPC: 2.379 (Simulation time: 00 hr 03 min 12 sec)
Heartbeat CPU 0 instructions: 50000002 cycles: 13549032 heartbeat IPC: 2.386 cumulative IPC: 2.382 (Simulation time: 00 hr 04 min 14 sec)
Heartbeat CPU 0 instructions: 60000009 cycles: 17657506 heartbeat IPC: 2.434 cumulative IPC: 2.399 (Simulation time: 00 hr 05 min 16 sec)
*** Reached end of trace: (0, "../traces/public_traces/srv/srv_21.champsimtrace.xz")
Heartbeat CPU 0 instructions: 70000004 cycles: 21822442 heartbeat IPC: 2.401 cumulative IPC: 2.4 (Simulation time: 00 hr 06 min 18 sec)
Heartbeat CPU 0 instructions: 80000000 cycles: 25989460 heartbeat IPC: 2.4 cumulative IPC: 2.4 (Simulation time: 00 hr 07 min 20 sec)
Heartbeat CPU 0 instructions: 90000000 cycles: 30091245 heartbeat IPC: 2.438 cumulative IPC: 2.406 (Simulation time: 00 hr 08 min 22 sec)
*** Reached end of trace: (0, "../traces/public_traces/srv/srv_21.champsimtrace.xz")
Heartbeat CPU 0 instructions: 100000001 cycles: 34231764 heartbeat IPC: 2.415 cumulative IPC: 2.407 (Simulation time: 00 hr 09 min 24 sec)
Heartbeat CPU 0 instructions: 110000001 cycles: 38380457 heartbeat IPC: 2.41 cumulative IPC: 2.408 (Simulation time: 00 hr 10 min 26 sec)
Heartbeat CPU 0 instructions: 120000002 cycles: 42483376 heartbeat IPC: 2.437 cumulative IPC: 2.411 (Simulation time: 00 hr 11 min 28 sec)
*** Reached end of trace: (0, "../traces/public_traces/srv/srv_21.champsimtrace.xz")
Heartbeat CPU 0 instructions: 130000000 cycles: 46614208 heartbeat IPC: 2.421 cumulative IPC: 2.412 (Simulation time: 00 hr 12 min 29 sec)
Simulation finished CPU 0 instructions: 100000000 cycles: 41460124 cumulative IPC: 2.412 (Simulation time: 00 hr 12 min 29 sec)
Simulation complete CPU 0 instructions: 100000000 cycles: 41460124 cumulative IPC: 2.412 (Simulation time: 00 hr 12 min 29 sec)

ChampSim completed all CPUs

=== Simulation ===
CPU 0 runs ../traces/public_traces/srv/srv_21.champsimtrace.xz
Region of Interest Statistics

CPU 0 cumulative IPC: 2.412 instructions: 100000000 cycles: 41460124
CPU 0 Branch Prediction Accuracy: 91.97% MPKI: 14.12 Average ROB Occupancy at Mispredict: 28.2
Branch type MPKI
BRANCH_DIRECT_JUMP: 1.1
BRANCH_INDIRECT: 5.88
BRANCH_CONDITIONAL: 1.93
BRANCH_DIRECT_CALL: 2.96
BRANCH_INDIRECT_CALL: 0.413
BRANCH_RETURN: 1.84

LLC TOTAL        ACCESS:     106240 HIT:     104600 MISS:       1640
LLC LOAD         ACCESS:      29159 HIT:      28875 MISS:        284
LLC RFO          ACCESS:      27018 HIT:      26719 MISS:        299
LLC PREFETCH     ACCESS:      18588 HIT:      17683 MISS:        905
LLC WRITE        ACCESS:      30940 HIT:      30934 MISS:          6
LLC TRANSLATION  ACCESS:        535 HIT:        389 MISS:        146
LLC PREFETCH REQUESTED:          0 ISSUED:          0 USEFUL:          0 USELESS:          0
LLC AVERAGE MISS LATENCY: 140.7 cycles
cpu0_DTLB TOTAL        ACCESS:   20383729 HIT:   19520561 MISS:     863168
cpu0_DTLB LOAD         ACCESS:   20383729 HIT:   19520561 MISS:     863168
cpu0_DTLB RFO          ACCESS:          0 HIT:          0 MISS:          0
cpu0_DTLB PREFETCH     ACCESS:          0 HIT:          0 MISS:          0
cpu0_DTLB WRITE        ACCESS:          0 HIT:          0 MISS:          0
cpu0_DTLB TRANSLATION  ACCESS:          0 HIT:          0 MISS:          0
cpu0_DTLB PREFETCH REQUESTED:          0 ISSUED:          0 USEFUL:          0 USELESS:          0
cpu0_DTLB AVERAGE MISS LATENCY: 5.016 cycles
cpu0_ITLB TOTAL        ACCESS:   22401427 HIT:   21454442 MISS:     946985
cpu0_ITLB LOAD         ACCESS:   22401427 HIT:   21454442 MISS:     946985
cpu0_ITLB RFO          ACCESS:          0 HIT:          0 MISS:          0
cpu0_ITLB PREFETCH     ACCESS:          0 HIT:          0 MISS:          0
cpu0_ITLB WRITE        ACCESS:          0 HIT:          0 MISS:          0
cpu0_ITLB TRANSLATION  ACCESS:          0 HIT:          0 MISS:          0
cpu0_ITLB PREFETCH REQUESTED:          0 ISSUED:          0 USEFUL:          0 USELESS:          0
cpu0_ITLB AVERAGE MISS LATENCY: 3.859 cycles
cpu0_L1D TOTAL        ACCESS:   30981567 HIT:   27234570 MISS:    3746997
cpu0_L1D LOAD         ACCESS:   17514311 HIT:   15493540 MISS:    2020771
cpu0_L1D RFO          ACCESS:          0 HIT:          0 MISS:          0
cpu0_L1D PREFETCH     ACCESS:      16465 HIT:       9243 MISS:       7222
cpu0_L1D WRITE        ACCESS:   13449458 HIT:   11731703 MISS:    1717755
cpu0_L1D TRANSLATION  ACCESS:       1333 HIT:         84 MISS:       1249
cpu0_L1D PREFETCH REQUESTED:     133440 ISSUED:      16465 USEFUL:        479 USELESS:         94
cpu0_L1D AVERAGE MISS LATENCY: 5.398 cycles
cpu0_L1I TOTAL        ACCESS:   32782490 HIT:   25537393 MISS:    7245097
cpu0_L1I LOAD         ACCESS:   10214110 HIT:    9015154 MISS:    1198956
cpu0_L1I RFO          ACCESS:          0 HIT:          0 MISS:          0
cpu0_L1I PREFETCH     ACCESS:   22568380 HIT:   16522239 MISS:    6046141
cpu0_L1I WRITE        ACCESS:          0 HIT:          0 MISS:          0
cpu0_L1I TRANSLATION  ACCESS:          0 HIT:          0 MISS:          0
cpu0_L1I PREFETCH REQUESTED:   31907527 ISSUED:   22568362 USEFUL:    4650280 USELESS:    1225773
cpu0_L1I AVERAGE MISS LATENCY: 10.62 cycles
cpu0_L2C TOTAL        ACCESS:   17392633 HIT:   17310610 MISS:      82023
cpu0_L2C LOAD         ACCESS:    2248059 HIT:    2218512 MISS:      29547
cpu0_L2C RFO          ACCESS:     553631 HIT:     526602 MISS:      27029
cpu0_L2C PREFETCH     ACCESS:   13604215 HIT:   13579333 MISS:      24882
cpu0_L2C WRITE        ACCESS:     985479 HIT:     985449 MISS:         30
cpu0_L2C TRANSLATION  ACCESS:       1249 HIT:        714 MISS:        535
cpu0_L2C PREFETCH REQUESTED:    8127193 ISSUED:    7725064 USEFUL:       3923 USELESS:       9633
cpu0_L2C AVERAGE MISS LATENCY: 21.23 cycles
cpu0_STLB TOTAL        ACCESS:    1162823 HIT:    1161577 MISS:       1246
cpu0_STLB LOAD         ACCESS:    1162823 HIT:    1161577 MISS:       1246
cpu0_STLB RFO          ACCESS:          0 HIT:          0 MISS:          0
cpu0_STLB PREFETCH     ACCESS:          0 HIT:          0 MISS:          0
cpu0_STLB WRITE        ACCESS:          0 HIT:          0 MISS:          0
cpu0_STLB TRANSLATION  ACCESS:          0 HIT:          0 MISS:          0
cpu0_STLB PREFETCH REQUESTED:          0 ISSUED:          0 USEFUL:          0 USELESS:          0
cpu0_STLB AVERAGE MISS LATENCY: 50.04 cycles

DRAM Statistics

Channel 0 RQ ROW_BUFFER_HIT:        194
  ROW_BUFFER_MISS:        642
 AVG DBUS CONGESTED CYCLE: 3.49
WQ ROW_BUFFER_HIT: Channel 0 
  ROW_BUFFER_MISS:          3
  FULL:        113

Channel 1 RQ ROW_BUFFER_HIT:        192
  ROW_BUFFER_MISS:        606
 AVG DBUS CONGESTED CYCLE: 3.616
WQ ROW_BUFFER_HIT: Channel 1 
  ROW_BUFFER_MISS:          0
  FULL:         25
BERTI TO_L1: 42282 TO_L2: 158324 TO_L2_BC_MSHR: 36550
BERTI AVG_LAT: 10.255 NUM_TRACK_LATENCY: 1888816 NUM_CANT_TRACK_LATENCY: 0
BERTI CROSS_PAGE 39723 NO_CROSS_PAGE: 160883
BERTI FOUND_BERTI: 662034 NO_FOUND_BERTI: 21724146
BERTI AVERAGE_ISSUED: 2.41173
CPU 0 L1I Entangling prefetcher final stats
IP accesses: a3d2 28f480 41131 / 10225796
IP misses: 8fc6 23f180 7620 / 1210642
IP hits: 0 0 0 / 0
IP late: 9d10 274400 2376 / 625298
IP wrong: 7373 1cdcc0 5072 / 1220179
miss rate: 0.118391
coverage: 0
coverage_late: 0.516502
accuracy: 0
accuracy_late: 0.338828
discarded: 0
evicts entangled j table: 0
evicts entangled k table: 213280
max bb size: 13
formats: 88459 35769 123999 21900 10023 23373 0 
hist_lookups: 73005 108316 112428 110906 98465 84300 72210 57431 43638 35606 26569 17356 12379 6984 2304 0 0 182030 
hist_lookups_evict: 0 %
hist_lookups_shortlat: 17.4371 %
bb_found_hist: 0 2538751 1048336 497143 217148 110256 90653 17362 12158 8927 7620 6428 737 2935 0 0 0 0 0 0 0 0 0 0 0 0 0 0 0 0 0 0 0 0 0 0 0 0 0 0 0 0 0 0 0 0 0 0 0 0 0 0 0 0 0 0 0 0 0 0 0 0 0 0 
bb_found_summary: 8583690 4558454 1.88303
entangled_found_hist: 0 1710122 1255123 1958054 273481 79384 22622 0 
entangled_found_summary: 11721106 5298786 2.21204
bb_ent_found_hist: 0 3710984 2023532 933026 497097 194569 174908 48704 17028 3781 14565 23001 1893 15428 0 0 0 0 0 0 0 0 0 0 0 0 0 0 0 0 0 0 0 0 0 0 0 0 0 0 0 0 0 0 0 0 0 0 0 0 0 0 0 0 0 0 0 0 0 0 0 0 0 0 
bb_ent_found_summary: 15700929 7658516 2.05013
