WARNING: physical memory size is smaller than virtual memory size.

*** ChampSim Multicore Out-of-Order Simulator ***
Warmup Instructions: 30000000
Simulation Instructions: 100000000
Number of CPUs: 1
Page size: 4096

BTB:
Basic BTB sets: 1024 ways: 8
Indirect:
history lengths: 0 0 10 16 27 44 60 96 109 219 449 487 714 1313 2146 3881 
ITTAGE tables: 64768 bytes;Region table: 240 bytes;IUM: 384 bytes;Total Storage= 65392 bytes;
RAS:
RAS size: 64
Berti Prefetcher
CPU 0 Entangling prefetcher
Off-chip DRAM Size: 8 GiB Channels: 2 Width: 64-bit Data Race: 6400 MT/s
Heartbeat CPU 0 instructions: 10000007 cycles: 1811397 heartbeat IPC: 5.521 cumulative IPC: 5.521 (Simulation time: 00 hr 00 min 47 sec)
Heartbeat CPU 0 instructions: 20000005 cycles: 3624760 heartbeat IPC: 5.515 cumulative IPC: 5.518 (Simulation time: 00 hr 01 min 35 sec)
Heartbeat CPU 0 instructions: 30000003 cycles: 5433129 heartbeat IPC: 5.53 cumulative IPC: 5.522 (Simulation time: 00 hr 02 min 22 sec)
Warmup finished CPU 0 instructions: 30000003 cycles: 5433130 cumulative IPC: 5.522 (Simulation time: 00 hr 02 min 22 sec)
Warmup complete CPU 0 instructions: 30000003 cycles: 5433130 cumulative IPC: 5.522 (Simulation time: 00 hr 02 min 22 sec)
*** Reached end of trace: (0, "../traces/public_traces/srv/srv_45.champsimtrace.xz")
Heartbeat CPU 0 instructions: 40000001 cycles: 9850424 heartbeat IPC: 2.264 cumulative IPC: 2.264 (Simulation time: 00 hr 03 min 36 sec)
Heartbeat CPU 0 instructions: 50000009 cycles: 14338470 heartbeat IPC: 2.228 cumulative IPC: 2.246 (Simulation time: 00 hr 04 min 47 sec)
Heartbeat CPU 0 instructions: 60000000 cycles: 18768839 heartbeat IPC: 2.257 cumulative IPC: 2.25 (Simulation time: 00 hr 06 min 07 sec)
*** Reached end of trace: (0, "../traces/public_traces/srv/srv_45.champsimtrace.xz")
Heartbeat CPU 0 instructions: 70000000 cycles: 23159068 heartbeat IPC: 2.278 cumulative IPC: 2.257 (Simulation time: 00 hr 07 min 23 sec)
Heartbeat CPU 0 instructions: 80000002 cycles: 27559127 heartbeat IPC: 2.273 cumulative IPC: 2.26 (Simulation time: 00 hr 08 min 48 sec)
Heartbeat CPU 0 instructions: 90000004 cycles: 31991014 heartbeat IPC: 2.256 cumulative IPC: 2.259 (Simulation time: 00 hr 10 min 13 sec)
*** Reached end of trace: (0, "../traces/public_traces/srv/srv_45.champsimtrace.xz")
Heartbeat CPU 0 instructions: 100000001 cycles: 36372784 heartbeat IPC: 2.282 cumulative IPC: 2.262 (Simulation time: 00 hr 11 min 26 sec)
Heartbeat CPU 0 instructions: 110000003 cycles: 40764565 heartbeat IPC: 2.277 cumulative IPC: 2.264 (Simulation time: 00 hr 12 min 37 sec)
Heartbeat CPU 0 instructions: 120000000 cycles: 45174795 heartbeat IPC: 2.267 cumulative IPC: 2.265 (Simulation time: 00 hr 13 min 47 sec)
*** Reached end of trace: (0, "../traces/public_traces/srv/srv_45.champsimtrace.xz")
Heartbeat CPU 0 instructions: 130000001 cycles: 49571453 heartbeat IPC: 2.274 cumulative IPC: 2.266 (Simulation time: 00 hr 14 min 58 sec)
Simulation finished CPU 0 instructions: 100000003 cycles: 44138326 cumulative IPC: 2.266 (Simulation time: 00 hr 14 min 58 sec)
Simulation complete CPU 0 instructions: 100000003 cycles: 44138326 cumulative IPC: 2.266 (Simulation time: 00 hr 14 min 58 sec)

ChampSim completed all CPUs

=== Simulation ===
CPU 0 runs ../traces/public_traces/srv/srv_45.champsimtrace.xz
Region of Interest Statistics

CPU 0 cumulative IPC: 2.266 instructions: 100000003 cycles: 44138326
CPU 0 Branch Prediction Accuracy: 95.08% MPKI: 9 Average ROB Occupancy at Mispredict: 48.96
Branch type MPKI
BRANCH_DIRECT_JUMP: 0.695
BRANCH_INDIRECT: 4.19
BRANCH_CONDITIONAL: 1.11
BRANCH_DIRECT_CALL: 1.57
BRANCH_INDIRECT_CALL: 0.435
BRANCH_RETURN: 0.996

LLC TOTAL        ACCESS:     669644 HIT:     507753 MISS:     161891
LLC LOAD         ACCESS:     169034 HIT:     124609 MISS:      44425
LLC RFO          ACCESS:     105469 HIT:      61756 MISS:      43713
LLC PREFETCH     ACCESS:     155903 HIT:     105845 MISS:      50058
LLC WRITE        ACCESS:     202643 HIT:     201378 MISS:       1265
LLC TRANSLATION  ACCESS:      36595 HIT:      14165 MISS:      22430
LLC PREFETCH REQUESTED:          0 ISSUED:          0 USEFUL:          0 USELESS:          0
LLC AVERAGE MISS LATENCY: 200.4 cycles
cpu0_DTLB TOTAL        ACCESS:   21607604 HIT:   20402109 MISS:    1205495
cpu0_DTLB LOAD         ACCESS:   21607604 HIT:   20402109 MISS:    1205495
cpu0_DTLB RFO          ACCESS:          0 HIT:          0 MISS:          0
cpu0_DTLB PREFETCH     ACCESS:          0 HIT:          0 MISS:          0
cpu0_DTLB WRITE        ACCESS:          0 HIT:          0 MISS:          0
cpu0_DTLB TRANSLATION  ACCESS:          0 HIT:          0 MISS:          0
cpu0_DTLB PREFETCH REQUESTED:          0 ISSUED:          0 USEFUL:          0 USELESS:          0
cpu0_DTLB AVERAGE MISS LATENCY: 9.746 cycles
cpu0_ITLB TOTAL        ACCESS:   25510621 HIT:   24497221 MISS:    1013400
cpu0_ITLB LOAD         ACCESS:   25510621 HIT:   24497221 MISS:    1013400
cpu0_ITLB RFO          ACCESS:          0 HIT:          0 MISS:          0
cpu0_ITLB PREFETCH     ACCESS:          0 HIT:          0 MISS:          0
cpu0_ITLB WRITE        ACCESS:          0 HIT:          0 MISS:          0
cpu0_ITLB TRANSLATION  ACCESS:          0 HIT:          0 MISS:          0
cpu0_ITLB PREFETCH REQUESTED:          0 ISSUED:          0 USEFUL:          0 USELESS:          0
cpu0_ITLB AVERAGE MISS LATENCY: 3.838 cycles
cpu0_L1D TOTAL        ACCESS:   32739884 HIT:   27222983 MISS:    5516901
cpu0_L1D LOAD         ACCESS:   19419541 HIT:   16514809 MISS:    2904732
cpu0_L1D RFO          ACCESS:          0 HIT:          0 MISS:          0
cpu0_L1D PREFETCH     ACCESS:      56413 HIT:      18590 MISS:      37823
cpu0_L1D WRITE        ACCESS:   13215378 HIT:   10688176 MISS:    2527202
cpu0_L1D TRANSLATION  ACCESS:      48552 HIT:       1408 MISS:      47144
cpu0_L1D PREFETCH REQUESTED:    1211670 ISSUED:      56413 USEFUL:       3428 USELESS:        851
cpu0_L1D AVERAGE MISS LATENCY: 10.3 cycles
cpu0_L1I TOTAL        ACCESS:   36961340 HIT:   28067642 MISS:    8893698
cpu0_L1I LOAD         ACCESS:   12344012 HIT:   10470546 MISS:    1873466
cpu0_L1I RFO          ACCESS:          0 HIT:          0 MISS:          0
cpu0_L1I PREFETCH     ACCESS:   24617328 HIT:   17597096 MISS:    7020232
cpu0_L1I WRITE        ACCESS:          0 HIT:          0 MISS:          0
cpu0_L1I TRANSLATION  ACCESS:          0 HIT:          0 MISS:          0
cpu0_L1I PREFETCH REQUESTED:   38015032 ISSUED:   24617335 USEFUL:    5497742 USELESS:    1281583
cpu0_L1I AVERAGE MISS LATENCY: 10.9 cycles
cpu0_L2C TOTAL        ACCESS:   21762825 HIT:   21214507 MISS:     548318
cpu0_L2C LOAD         ACCESS:    3289373 HIT:    3108171 MISS:     181202
cpu0_L2C RFO          ACCESS:     841360 HIT:     734348 MISS:     107012
cpu0_L2C PREFETCH     ACCESS:   16175113 HIT:   15951770 MISS:     223343
cpu0_L2C WRITE        ACCESS:    1413100 HIT:    1412934 MISS:        166
cpu0_L2C TRANSLATION  ACCESS:      43879 HIT:       7284 MISS:      36595
cpu0_L2C PREFETCH REQUESTED:   10096803 ISSUED:    9367652 USEFUL:      55078 USELESS:      76186
cpu0_L2C AVERAGE MISS LATENCY: 74.92 cycles
cpu0_STLB TOTAL        ACCESS:    1411708 HIT:    1385797 MISS:      25911
cpu0_STLB LOAD         ACCESS:    1411708 HIT:    1385797 MISS:      25911
cpu0_STLB RFO          ACCESS:          0 HIT:          0 MISS:          0
cpu0_STLB PREFETCH     ACCESS:          0 HIT:          0 MISS:          0
cpu0_STLB WRITE        ACCESS:          0 HIT:          0 MISS:          0
cpu0_STLB TRANSLATION  ACCESS:          0 HIT:          0 MISS:          0
cpu0_STLB PREFETCH REQUESTED:          0 ISSUED:          0 USEFUL:          0 USELESS:          0
cpu0_STLB AVERAGE MISS LATENCY: 255.2 cycles

DRAM Statistics

Channel 0 RQ ROW_BUFFER_HIT:      33649
  ROW_BUFFER_MISS:      48151
 AVG DBUS CONGESTED CYCLE: 3.917
WQ ROW_BUFFER_HIT: Channel 0 
  ROW_BUFFER_MISS:       5168
  FULL:      25717

Channel 1 RQ ROW_BUFFER_HIT:      31999
  ROW_BUFFER_MISS:      46821
 AVG DBUS CONGESTED CYCLE: 3.91
WQ ROW_BUFFER_HIT: Channel 1 
  ROW_BUFFER_MISS:       5108
  FULL:      26141
BERTI TO_L1: 71502 TO_L2: 1215705 TO_L2_BC_MSHR: 725595
BERTI AVG_LAT: 14.9999 NUM_TRACK_LATENCY: 2706045 NUM_CANT_TRACK_LATENCY: 0
BERTI CROSS_PAGE 188205 NO_CROSS_PAGE: 1099002
BERTI FOUND_BERTI: 668530 NO_FOUND_BERTI: 24516498
BERTI AVERAGE_ISSUED: 5.67373
CPU 0 L1I Entangling prefetcher final stats
IP accesses: 9a90 26a400 61509 / 12353131
IP misses: dabf 36afc0 9638 / 1882585
IP hits: 0 0 0 / 0
IP late: dac2 36b080 3384 / 915498
IP wrong: 9a9c 26a700 7030 / 1272180
miss rate: 0.152398
coverage: 0
coverage_late: 0.486299
accuracy: 0
accuracy_late: 0.41848
discarded: 0
evicts entangled j table: 0
evicts entangled k table: 343121
max bb size: 37
formats: 160597 0 206325 32233 19613 41233 0 
hist_lookups: 89061 157057 189842 190450 175179 148283 117883 82277 65525 50788 40880 26162 14867 9228 4744 0 3 466830 
hist_lookups_evict: 0.000164019 %
hist_lookups_shortlat: 25.523 %
bb_found_hist: 0 3257304 1330738 544746 205676 76331 40251 16302 9988 1871 5149 3434 0 10304 0 0 0 0 0 0 0 0 0 0 0 0 0 0 0 0 79 0 81 0 0 0 0 79 0 0 0 0 0 0 0 0 0 0 0 0 0 0 0 0 0 0 0 0 0 0 0 0 0 0 
bb_found_summary: 9440841 5502333 1.71579
entangled_found_hist: 0 2151589 1387312 3165663 284329 62680 30540 0 
entangled_found_summary: 16057158 7082113 2.26729
bb_ent_found_hist: 0 5278245 2681578 1276325 457092 204035 116034 41347 20278 3 14456 17676 0 46736 0 0 0 0 0 0 0 0 0 0 0 0 0 0 0 0 0 0 79 0 0 0 0 447 0 0 0 0 0 0 0 0 0 0 0 0 0 0 0 0 0 0 0 0 0 0 0 0 0 0 
bb_ent_found_summary: 19432434 10154331 1.91371
