WARNING: physical memory size is smaller than virtual memory size.

*** ChampSim Multicore Out-of-Order Simulator ***
Warmup Instructions: 30000000
Simulation Instructions: 100000000
Number of CPUs: 1
Page size: 4096

BTB:
Basic BTB sets: 1024 ways: 8
Indirect:
history lengths: 0 0 10 16 27 44 60 96 109 219 449 487 714 1313 2146 3881 
ITTAGE tables: 64768 bytes;Region table: 240 bytes;IUM: 384 bytes;Total Storage= 65392 bytes;
RAS:
RAS size: 64
Berti Prefetcher
CPU 0 Entangling prefetcher
Off-chip DRAM Size: 8 GiB Channels: 2 Width: 64-bit Data Race: 6400 MT/s
Heartbeat CPU 0 instructions: 10000007 cycles: 1945850 heartbeat IPC: 5.139 cumulative IPC: 5.139 (Simulation time: 00 hr 00 min 45 sec)
Heartbeat CPU 0 instructions: 20000006 cycles: 4563701 heartbeat IPC: 3.82 cumulative IPC: 4.382 (Simulation time: 00 hr 01 min 42 sec)
Heartbeat CPU 0 instructions: 30000000 cycles: 6259425 heartbeat IPC: 5.897 cumulative IPC: 4.793 (Simulation time: 00 hr 02 min 23 sec)
Warmup finished CPU 0 instructions: 30000000 cycles: 6259426 cumulative IPC: 4.793 (Simulation time: 00 hr 02 min 23 sec)
Warmup complete CPU 0 instructions: 30000000 cycles: 6259426 cumulative IPC: 4.793 (Simulation time: 00 hr 02 min 23 sec)
*** Reached end of trace: (0, "../traces/public_traces/srv/srv_11.champsimtrace.xz")
Heartbeat CPU 0 instructions: 40000001 cycles: 10465280 heartbeat IPC: 2.378 cumulative IPC: 2.378 (Simulation time: 00 hr 03 min 28 sec)
Heartbeat CPU 0 instructions: 50000002 cycles: 13247130 heartbeat IPC: 3.595 cumulative IPC: 2.862 (Simulation time: 00 hr 04 min 38 sec)
Heartbeat CPU 0 instructions: 60000005 cycles: 17545229 heartbeat IPC: 2.327 cumulative IPC: 2.658 (Simulation time: 00 hr 05 min 44 sec)
*** Reached end of trace: (0, "../traces/public_traces/srv/srv_11.champsimtrace.xz")
Heartbeat CPU 0 instructions: 70000000 cycles: 21604815 heartbeat IPC: 2.463 cumulative IPC: 2.607 (Simulation time: 00 hr 06 min 45 sec)
Heartbeat CPU 0 instructions: 80000004 cycles: 24462520 heartbeat IPC: 3.499 cumulative IPC: 2.747 (Simulation time: 00 hr 07 min 57 sec)
Heartbeat CPU 0 instructions: 90000000 cycles: 28659060 heartbeat IPC: 2.383 cumulative IPC: 2.679 (Simulation time: 00 hr 09 min 01 sec)
*** Reached end of trace: (0, "../traces/public_traces/srv/srv_11.champsimtrace.xz")
Heartbeat CPU 0 instructions: 100000004 cycles: 32674173 heartbeat IPC: 2.491 cumulative IPC: 2.65 (Simulation time: 00 hr 10 min 02 sec)
Heartbeat CPU 0 instructions: 110000008 cycles: 35659139 heartbeat IPC: 3.35 cumulative IPC: 2.721 (Simulation time: 00 hr 11 min 14 sec)
Heartbeat CPU 0 instructions: 120000001 cycles: 39755657 heartbeat IPC: 2.441 cumulative IPC: 2.687 (Simulation time: 00 hr 12 min 18 sec)
*** Reached end of trace: (0, "../traces/public_traces/srv/srv_11.champsimtrace.xz")
Heartbeat CPU 0 instructions: 130000005 cycles: 43730253 heartbeat IPC: 2.516 cumulative IPC: 2.669 (Simulation time: 00 hr 13 min 19 sec)
Simulation finished CPU 0 instructions: 100000005 cycles: 37470828 cumulative IPC: 2.669 (Simulation time: 00 hr 13 min 19 sec)
Simulation complete CPU 0 instructions: 100000005 cycles: 37470828 cumulative IPC: 2.669 (Simulation time: 00 hr 13 min 19 sec)

ChampSim completed all CPUs

=== Simulation ===
CPU 0 runs ../traces/public_traces/srv/srv_11.champsimtrace.xz
Region of Interest Statistics

CPU 0 cumulative IPC: 2.669 instructions: 100000005 cycles: 37470828
CPU 0 Branch Prediction Accuracy: 96.86% MPKI: 6.858 Average ROB Occupancy at Mispredict: 41.19
Branch type MPKI
BRANCH_DIRECT_JUMP: 0.542
BRANCH_INDIRECT: 3.54
BRANCH_CONDITIONAL: 0.929
BRANCH_DIRECT_CALL: 1.04
BRANCH_INDIRECT_CALL: 0.0819
BRANCH_RETURN: 0.729

LLC TOTAL        ACCESS:     842564 HIT:     713139 MISS:     129425
LLC LOAD         ACCESS:     142508 HIT:     115581 MISS:      26927
LLC RFO          ACCESS:      37239 HIT:      27417 MISS:       9822
LLC PREFETCH     ACCESS:     465665 HIT:     396882 MISS:      68783
LLC WRITE        ACCESS:     128582 HIT:     127362 MISS:       1220
LLC TRANSLATION  ACCESS:      68570 HIT:      45897 MISS:      22673
LLC PREFETCH REQUESTED:          0 ISSUED:          0 USEFUL:          0 USELESS:          0
LLC AVERAGE MISS LATENCY: 168.2 cycles
cpu0_DTLB TOTAL        ACCESS:   19844293 HIT:   15953194 MISS:    3891099
cpu0_DTLB LOAD         ACCESS:   19844293 HIT:   15953194 MISS:    3891099
cpu0_DTLB RFO          ACCESS:          0 HIT:          0 MISS:          0
cpu0_DTLB PREFETCH     ACCESS:          0 HIT:          0 MISS:          0
cpu0_DTLB WRITE        ACCESS:          0 HIT:          0 MISS:          0
cpu0_DTLB TRANSLATION  ACCESS:          0 HIT:          0 MISS:          0
cpu0_DTLB PREFETCH REQUESTED:          0 ISSUED:          0 USEFUL:          0 USELESS:          0
cpu0_DTLB AVERAGE MISS LATENCY: 6.082 cycles
cpu0_ITLB TOTAL        ACCESS:   12767120 HIT:   12383043 MISS:     384077
cpu0_ITLB LOAD         ACCESS:   12767120 HIT:   12383043 MISS:     384077
cpu0_ITLB RFO          ACCESS:          0 HIT:          0 MISS:          0
cpu0_ITLB PREFETCH     ACCESS:          0 HIT:          0 MISS:          0
cpu0_ITLB WRITE        ACCESS:          0 HIT:          0 MISS:          0
cpu0_ITLB TRANSLATION  ACCESS:          0 HIT:          0 MISS:          0
cpu0_ITLB PREFETCH REQUESTED:          0 ISSUED:          0 USEFUL:          0 USELESS:          0
cpu0_ITLB AVERAGE MISS LATENCY: 9.101 cycles
cpu0_L1D TOTAL        ACCESS:   30228502 HIT:   23621419 MISS:    6607083
cpu0_L1D LOAD         ACCESS:   21077355 HIT:   15120746 MISS:    5956609
cpu0_L1D RFO          ACCESS:          0 HIT:          0 MISS:          0
cpu0_L1D PREFETCH     ACCESS:      31622 HIT:      12075 MISS:      19547
cpu0_L1D WRITE        ACCESS:    9000390 HIT:    8478750 MISS:     521640
cpu0_L1D TRANSLATION  ACCESS:     119135 HIT:       9848 MISS:     109287
cpu0_L1D PREFETCH REQUESTED:     559544 ISSUED:      31622 USEFUL:       1578 USELESS:       1069
cpu0_L1D AVERAGE MISS LATENCY: 13.14 cycles
cpu0_L1I TOTAL        ACCESS:   19012769 HIT:   16302747 MISS:    2710022
cpu0_L1I LOAD         ACCESS:    5934313 HIT:    5204426 MISS:     729887
cpu0_L1I RFO          ACCESS:          0 HIT:          0 MISS:          0
cpu0_L1I PREFETCH     ACCESS:   13078456 HIT:   11098321 MISS:    1980135
cpu0_L1I WRITE        ACCESS:          0 HIT:          0 MISS:          0
cpu0_L1I TRANSLATION  ACCESS:          0 HIT:          0 MISS:          0
cpu0_L1I PREFETCH REQUESTED:   28010442 ISSUED:   13078491 USEFUL:    1324879 USELESS:     586653
cpu0_L1I AVERAGE MISS LATENCY: 13.53 cycles
cpu0_L2C TOTAL        ACCESS:   13249423 HIT:   12353683 MISS:     895740
cpu0_L2C LOAD         ACCESS:    6047765 HIT:    5884863 MISS:     162902
cpu0_L2C RFO          ACCESS:     184939 HIT:     147263 MISS:      37676
cpu0_L2C PREFETCH     ACCESS:    6493499 HIT:    5866913 MISS:     626586
cpu0_L2C WRITE        ACCESS:     414822 HIT:     414816 MISS:          6
cpu0_L2C TRANSLATION  ACCESS:     108398 HIT:      39828 MISS:      68570
cpu0_L2C PREFETCH REQUESTED:    7969534 ISSUED:    4572404 USEFUL:      89839 USELESS:     135986
cpu0_L2C AVERAGE MISS LATENCY: 39.09 cycles
cpu0_STLB TOTAL        ACCESS:    2951311 HIT:    2858942 MISS:      92369
cpu0_STLB LOAD         ACCESS:    2951311 HIT:    2858942 MISS:      92369
cpu0_STLB RFO          ACCESS:          0 HIT:          0 MISS:          0
cpu0_STLB PREFETCH     ACCESS:          0 HIT:          0 MISS:          0
cpu0_STLB WRITE        ACCESS:          0 HIT:          0 MISS:          0
cpu0_STLB TRANSLATION  ACCESS:          0 HIT:          0 MISS:          0
cpu0_STLB PREFETCH REQUESTED:          0 ISSUED:          0 USEFUL:          0 USELESS:          0
cpu0_STLB AVERAGE MISS LATENCY: 79.09 cycles

DRAM Statistics

Channel 0 RQ ROW_BUFFER_HIT:      14037
  ROW_BUFFER_MISS:      53081
 AVG DBUS CONGESTED CYCLE: 3.831
WQ ROW_BUFFER_HIT: Channel 0 
  ROW_BUFFER_MISS:       5629
  FULL:      22891

Channel 1 RQ ROW_BUFFER_HIT:      13125
  ROW_BUFFER_MISS:      47947
 AVG DBUS CONGESTED CYCLE: 3.827
WQ ROW_BUFFER_HIT: Channel 1 
  ROW_BUFFER_MISS:       4881
  FULL:      21833
BERTI TO_L1: 65031 TO_L2: 1390909 TO_L2_BC_MSHR: 241997
BERTI AVG_LAT: 13.8546 NUM_TRACK_LATENCY: 7466363 NUM_CANT_TRACK_LATENCY: 1
BERTI CROSS_PAGE 961697 NO_CROSS_PAGE: 494243
BERTI FOUND_BERTI: 8269907 NO_FOUND_BERTI: 20127293
BERTI AVERAGE_ISSUED: 2.41491
CPU 0 L1I Entangling prefetcher final stats
IP accesses: bfb3 2fecc0 61760 / 5960900
IP misses: 4b3d 12cf40 2885 / 756474
IP hits: 0 0 0 / 0
IP late: 38bd e2f40 1048 / 324018
IP wrong: 3a99 ea640 1457 / 584168
miss rate: 0.126907
coverage: 0
coverage_late: 0.428327
accuracy: 0
accuracy_late: 0.356775
discarded: 0
evicts entangled j table: 0
evicts entangled k table: 92618
max bb size: 111
formats: 13358 19363 60478 13238 7411 13239 0 
hist_lookups: 36454 54130 54940 57807 51004 39070 30010 22878 17976 14235 10619 7037 4465 2292 762 0 270 92259 
hist_lookups_evict: 0.0544127 %
hist_lookups_shortlat: 18.5929 %
bb_found_hist: 0 1416097 626735 238351 170655 95592 63242 62973 83367 59441 42427 50446 17372 7276 5239 22802 5286 9321 1144 1851 1497 472 430 1170 270 0 707 386 708 0 54 333 0 175 183 0 217 166 0 0 166 0 0 0 0 0 0 102 65 0 0 0 0 0 0 0 0 0 0 0 166 0 333 0 
bb_found_summary: 8778150 2987217 2.93858
entangled_found_hist: 0 891716 760583 967252 124568 70760 3528 0 
entangled_found_summary: 6187878 2818407 2.19553
bb_ent_found_hist: 0 1959879 1247119 586962 307754 241853 118960 51031 90340 34333 77638 42062 14366 23040 4512 50277 22065 30996 2371 2495 3409 1522 423 2591 113 0 871 54 5374 0 218 0 0 0 598 0 227 166 0 0 339 0 0 0 0 0 0 296 195 0 0 0 0 0 0 0 0 0 0 0 335 0 657 0 
bb_ent_found_summary: 14741511 4925441 2.99294
