WARNING: physical memory size is smaller than virtual memory size.

*** ChampSim Multicore Out-of-Order Simulator ***
Warmup Instructions: 30000000
Simulation Instructions: 100000000
Number of CPUs: 1
Page size: 4096

BTB:
Basic BTB sets: 1024 ways: 8
Indirect:
history lengths: 0 0 10 16 27 44 60 96 109 219 449 487 714 1313 2146 3881 
ITTAGE tables: 64768 bytes;Region table: 240 bytes;IUM: 384 bytes;Total Storage= 65392 bytes;
RAS:
RAS size: 64
Berti Prefetcher
CPU 0 Entangling prefetcher
Off-chip DRAM Size: 8 GiB Channels: 2 Width: 64-bit Data Race: 6400 MT/s
Heartbeat CPU 0 instructions: 10000004 cycles: 1844406 heartbeat IPC: 5.422 cumulative IPC: 5.422 (Simulation time: 00 hr 00 min 46 sec)
Heartbeat CPU 0 instructions: 20000002 cycles: 3726292 heartbeat IPC: 5.314 cumulative IPC: 5.367 (Simulation time: 00 hr 01 min 28 sec)
Heartbeat CPU 0 instructions: 30000004 cycles: 5613091 heartbeat IPC: 5.3 cumulative IPC: 5.345 (Simulation time: 00 hr 02 min 13 sec)
Warmup finished CPU 0 instructions: 30000004 cycles: 5613092 cumulative IPC: 5.345 (Simulation time: 00 hr 02 min 13 sec)
Warmup complete CPU 0 instructions: 30000004 cycles: 5613092 cumulative IPC: 5.345 (Simulation time: 00 hr 02 min 13 sec)
*** Reached end of trace: (0, "../traces/public_traces/srv/srv_53.champsimtrace.xz")
Heartbeat CPU 0 instructions: 40000003 cycles: 10258844 heartbeat IPC: 2.153 cumulative IPC: 2.153 (Simulation time: 00 hr 03 min 40 sec)
Heartbeat CPU 0 instructions: 50000001 cycles: 14704021 heartbeat IPC: 2.25 cumulative IPC: 2.2 (Simulation time: 00 hr 04 min 55 sec)
Heartbeat CPU 0 instructions: 60000003 cycles: 19054907 heartbeat IPC: 2.298 cumulative IPC: 2.232 (Simulation time: 00 hr 06 min 09 sec)
*** Reached end of trace: (0, "../traces/public_traces/srv/srv_53.champsimtrace.xz")
Heartbeat CPU 0 instructions: 70000000 cycles: 23573112 heartbeat IPC: 2.213 cumulative IPC: 2.227 (Simulation time: 00 hr 07 min 26 sec)
Heartbeat CPU 0 instructions: 80000008 cycles: 27992829 heartbeat IPC: 2.263 cumulative IPC: 2.234 (Simulation time: 00 hr 08 min 40 sec)
Heartbeat CPU 0 instructions: 90000006 cycles: 32271919 heartbeat IPC: 2.337 cumulative IPC: 2.251 (Simulation time: 00 hr 09 min 53 sec)
*** Reached end of trace: (0, "../traces/public_traces/srv/srv_53.champsimtrace.xz")
Heartbeat CPU 0 instructions: 100000001 cycles: 36818088 heartbeat IPC: 2.2 cumulative IPC: 2.243 (Simulation time: 00 hr 11 min 10 sec)
Heartbeat CPU 0 instructions: 110000002 cycles: 41217292 heartbeat IPC: 2.273 cumulative IPC: 2.247 (Simulation time: 00 hr 12 min 24 sec)
Heartbeat CPU 0 instructions: 120000004 cycles: 45437206 heartbeat IPC: 2.37 cumulative IPC: 2.26 (Simulation time: 00 hr 13 min 36 sec)
*** Reached end of trace: (0, "../traces/public_traces/srv/srv_53.champsimtrace.xz")
Heartbeat CPU 0 instructions: 130000002 cycles: 50023188 heartbeat IPC: 2.181 cumulative IPC: 2.252 (Simulation time: 00 hr 14 min 54 sec)
Simulation finished CPU 0 instructions: 100000000 cycles: 44410098 cumulative IPC: 2.252 (Simulation time: 00 hr 14 min 54 sec)
Simulation complete CPU 0 instructions: 100000000 cycles: 44410098 cumulative IPC: 2.252 (Simulation time: 00 hr 14 min 54 sec)

ChampSim completed all CPUs

=== Simulation ===
CPU 0 runs ../traces/public_traces/srv/srv_53.champsimtrace.xz
Region of Interest Statistics

CPU 0 cumulative IPC: 2.252 instructions: 100000000 cycles: 44410098
CPU 0 Branch Prediction Accuracy: 93.37% MPKI: 12.77 Average ROB Occupancy at Mispredict: 25.26
Branch type MPKI
BRANCH_DIRECT_JUMP: 1.16
BRANCH_INDIRECT: 5.39
BRANCH_CONDITIONAL: 1.64
BRANCH_DIRECT_CALL: 2.23
BRANCH_INDIRECT_CALL: 0.577
BRANCH_RETURN: 1.78

LLC TOTAL        ACCESS:     507926 HIT:     448437 MISS:      59489
LLC LOAD         ACCESS:     108436 HIT:      91472 MISS:      16964
LLC RFO          ACCESS:      73338 HIT:      61367 MISS:      11971
LLC PREFETCH     ACCESS:     156165 HIT:     134543 MISS:      21622
LLC WRITE        ACCESS:     149329 HIT:     148358 MISS:        971
LLC TRANSLATION  ACCESS:      20658 HIT:      12697 MISS:       7961
LLC PREFETCH REQUESTED:          0 ISSUED:          0 USEFUL:          0 USELESS:          0
LLC AVERAGE MISS LATENCY: 151.8 cycles
cpu0_DTLB TOTAL        ACCESS:   16153524 HIT:   15563319 MISS:     590205
cpu0_DTLB LOAD         ACCESS:   16153524 HIT:   15563319 MISS:     590205
cpu0_DTLB RFO          ACCESS:          0 HIT:          0 MISS:          0
cpu0_DTLB PREFETCH     ACCESS:          0 HIT:          0 MISS:          0
cpu0_DTLB WRITE        ACCESS:          0 HIT:          0 MISS:          0
cpu0_DTLB TRANSLATION  ACCESS:          0 HIT:          0 MISS:          0
cpu0_DTLB PREFETCH REQUESTED:          0 ISSUED:          0 USEFUL:          0 USELESS:          0
cpu0_DTLB AVERAGE MISS LATENCY: 8.349 cycles
cpu0_ITLB TOTAL        ACCESS:   19622242 HIT:   19081625 MISS:     540617
cpu0_ITLB LOAD         ACCESS:   19622242 HIT:   19081625 MISS:     540617
cpu0_ITLB RFO          ACCESS:          0 HIT:          0 MISS:          0
cpu0_ITLB PREFETCH     ACCESS:          0 HIT:          0 MISS:          0
cpu0_ITLB WRITE        ACCESS:          0 HIT:          0 MISS:          0
cpu0_ITLB TRANSLATION  ACCESS:          0 HIT:          0 MISS:          0
cpu0_ITLB PREFETCH REQUESTED:          0 ISSUED:          0 USEFUL:          0 USELESS:          0
cpu0_ITLB AVERAGE MISS LATENCY: 3.997 cycles
cpu0_L1D TOTAL        ACCESS:   24519873 HIT:   21876438 MISS:    2643435
cpu0_L1D LOAD         ACCESS:   14117631 HIT:   12641735 MISS:    1475896
cpu0_L1D RFO          ACCESS:          0 HIT:          0 MISS:          0
cpu0_L1D PREFETCH     ACCESS:      32633 HIT:      19043 MISS:      13590
cpu0_L1D WRITE        ACCESS:   10340607 HIT:    9214262 MISS:    1126345
cpu0_L1D TRANSLATION  ACCESS:      29002 HIT:       1398 MISS:      27604
cpu0_L1D PREFETCH REQUESTED:     100105 ISSUED:      32633 USEFUL:       2242 USELESS:        336
cpu0_L1D AVERAGE MISS LATENCY: 8.928 cycles
cpu0_L1I TOTAL        ACCESS:   28783165 HIT:   23912777 MISS:    4870388
cpu0_L1I LOAD         ACCESS:    9780216 HIT:    8734891 MISS:    1045325
cpu0_L1I RFO          ACCESS:          0 HIT:          0 MISS:          0
cpu0_L1I PREFETCH     ACCESS:   19002949 HIT:   15177886 MISS:    3825063
cpu0_L1I WRITE        ACCESS:          0 HIT:          0 MISS:          0
cpu0_L1I TRANSLATION  ACCESS:          0 HIT:          0 MISS:          0
cpu0_L1I PREFETCH REQUESTED:   41597364 ISSUED:   19002932 USEFUL:    2808120 USELESS:     910431
cpu0_L1I AVERAGE MISS LATENCY: 10.54 cycles
cpu0_L2C TOTAL        ACCESS:   12039779 HIT:   11630651 MISS:     409128
cpu0_L2C LOAD         ACCESS:    1778595 HIT:    1664950 MISS:     113645
cpu0_L2C RFO          ACCESS:     416498 HIT:     342297 MISS:      74201
cpu0_L2C PREFETCH     ACCESS:    9068393 HIT:    8867809 MISS:     200584
cpu0_L2C WRITE        ACCESS:     749805 HIT:     749765 MISS:         40
cpu0_L2C TRANSLATION  ACCESS:      26488 HIT:       5830 MISS:      20658
cpu0_L2C PREFETCH REQUESTED:    5508030 ISSUED:    5338958 USEFUL:      43328 USELESS:      68116
cpu0_L2C AVERAGE MISS LATENCY: 39.44 cycles
cpu0_STLB TOTAL        ACCESS:     722148 HIT:     704844 MISS:      17304
cpu0_STLB LOAD         ACCESS:     722148 HIT:     704844 MISS:      17304
cpu0_STLB RFO          ACCESS:          0 HIT:          0 MISS:          0
cpu0_STLB PREFETCH     ACCESS:          0 HIT:          0 MISS:          0
cpu0_STLB WRITE        ACCESS:          0 HIT:          0 MISS:          0
cpu0_STLB TRANSLATION  ACCESS:          0 HIT:          0 MISS:          0
cpu0_STLB PREFETCH REQUESTED:          0 ISSUED:          0 USEFUL:          0 USELESS:          0
cpu0_STLB AVERAGE MISS LATENCY: 137.3 cycles

DRAM Statistics

Channel 0 RQ ROW_BUFFER_HIT:       7618
  ROW_BUFFER_MISS:      23424
 AVG DBUS CONGESTED CYCLE: 3.814
WQ ROW_BUFFER_HIT: Channel 0 
  ROW_BUFFER_MISS:       1920
  FULL:      11420

Channel 1 RQ ROW_BUFFER_HIT:       6783
  ROW_BUFFER_MISS:      20691
 AVG DBUS CONGESTED CYCLE: 3.806
WQ ROW_BUFFER_HIT: Channel 1 
  ROW_BUFFER_MISS:       1769
  FULL:       9241
BERTI TO_L1: 25967 TO_L2: 92637 TO_L2_BC_MSHR: 53198
BERTI AVG_LAT: 13.7916 NUM_TRACK_LATENCY: 1386570 NUM_CANT_TRACK_LATENCY: 0
BERTI CROSS_PAGE 22323 NO_CROSS_PAGE: 96281
BERTI FOUND_BERTI: 461980 NO_FOUND_BERTI: 17782175
BERTI AVERAGE_ISSUED: 7.00212
CPU 0 L1I Entangling prefetcher final stats
IP accesses: 427b 109ec0 41027 / 9798124
IP misses: 3f25 fc940 11593 / 1063233
IP hits: 0 0 0 / 0
IP late: a78c 29e300 3600 / 454115
IP wrong: dac0 36b000 3486 / 902816
miss rate: 0.108514
coverage: 0
coverage_late: 0.427108
accuracy: 0
accuracy_late: 0.334664
discarded: 0
evicts entangled j table: 0
evicts entangled k table: 174728
max bb size: 38
formats: 75887 0 111908 14616 12328 27666 0 
hist_lookups: 61562 97878 108742 102823 90988 75603 56172 38805 28413 21726 14995 10209 6145 2945 1161 0 27 182326 
hist_lookups_evict: 0.00299827 %
hist_lookups_shortlat: 20.2468 %
bb_found_hist: 0 2490333 1246720 544676 250710 128020 43858 38805 32353 1997 29223 5377 5213 0 508 0 0 0 0 0 0 0 0 0 0 0 0 0 0 0 0 0 0 0 0 0 524 1000 508 0 0 0 0 0 0 0 0 0 0 0 0 0 0 0 0 0 0 0 0 0 0 0 0 0 
bb_found_summary: 9568534 4819825 1.98525
entangled_found_hist: 0 1673943 1034369 2728705 228765 102228 47382 0 
entangled_found_summary: 13639288 5815392 2.34538
bb_ent_found_hist: 0 3880623 2908223 1133619 467897 332909 85992 157812 42314 5662 150394 15574 37378 0 0 0 0 0 0 0 0 0 0 0 0 0 0 0 0 0 0 0 0 0 0 0 13 754 2988 0 0 0 0 0 0 0 0 0 0 0 0 0 0 0 0 0 0 0 0 0 0 0 0 0 
bb_ent_found_summary: 20909865 9222152 2.26736
