WARNING: physical memory size is smaller than virtual memory size.

*** ChampSim Multicore Out-of-Order Simulator ***
Warmup Instructions: 30000000
Simulation Instructions: 100000000
Number of CPUs: 1
Page size: 4096

BTB:
Basic BTB sets: 1024 ways: 8
Indirect:
history lengths: 0 0 10 16 27 44 60 96 109 219 449 487 714 1313 2146 3881 
ITTAGE tables: 64768 bytes;Region table: 240 bytes;IUM: 384 bytes;Total Storage= 65392 bytes;
RAS:
RAS size: 64
Berti Prefetcher
CPU 0 Entangling prefetcher
Off-chip DRAM Size: 8 GiB Channels: 2 Width: 64-bit Data Race: 6400 MT/s
Heartbeat CPU 0 instructions: 10000007 cycles: 1731437 heartbeat IPC: 5.776 cumulative IPC: 5.776 (Simulation time: 00 hr 00 min 49 sec)
Heartbeat CPU 0 instructions: 20000003 cycles: 3466056 heartbeat IPC: 5.765 cumulative IPC: 5.77 (Simulation time: 00 hr 01 min 40 sec)
Heartbeat CPU 0 instructions: 30000004 cycles: 5191429 heartbeat IPC: 5.796 cumulative IPC: 5.779 (Simulation time: 00 hr 02 min 29 sec)
Warmup finished CPU 0 instructions: 30000004 cycles: 5191430 cumulative IPC: 5.779 (Simulation time: 00 hr 02 min 29 sec)
Warmup complete CPU 0 instructions: 30000004 cycles: 5191430 cumulative IPC: 5.779 (Simulation time: 00 hr 02 min 29 sec)
*** Reached end of trace: (0, "../traces/public_traces/srv/srv_55.champsimtrace.xz")
Heartbeat CPU 0 instructions: 40000006 cycles: 9334908 heartbeat IPC: 2.413 cumulative IPC: 2.413 (Simulation time: 00 hr 03 min 44 sec)
Heartbeat CPU 0 instructions: 50000000 cycles: 13423199 heartbeat IPC: 2.446 cumulative IPC: 2.43 (Simulation time: 00 hr 04 min 53 sec)
Heartbeat CPU 0 instructions: 60000000 cycles: 17511763 heartbeat IPC: 2.446 cumulative IPC: 2.435 (Simulation time: 00 hr 05 min 54 sec)
*** Reached end of trace: (0, "../traces/public_traces/srv/srv_55.champsimtrace.xz")
Heartbeat CPU 0 instructions: 70000007 cycles: 21288668 heartbeat IPC: 2.648 cumulative IPC: 2.485 (Simulation time: 00 hr 06 min 59 sec)
Heartbeat CPU 0 instructions: 80000003 cycles: 25499308 heartbeat IPC: 2.375 cumulative IPC: 2.462 (Simulation time: 00 hr 08 min 09 sec)
Heartbeat CPU 0 instructions: 90000000 cycles: 29334701 heartbeat IPC: 2.607 cumulative IPC: 2.485 (Simulation time: 00 hr 09 min 15 sec)
*** Reached end of trace: (0, "../traces/public_traces/srv/srv_55.champsimtrace.xz")
Heartbeat CPU 0 instructions: 100000001 cycles: 33396699 heartbeat IPC: 2.462 cumulative IPC: 2.482 (Simulation time: 00 hr 10 min 24 sec)
Heartbeat CPU 0 instructions: 110000000 cycles: 37468416 heartbeat IPC: 2.456 cumulative IPC: 2.479 (Simulation time: 00 hr 11 min 33 sec)
Heartbeat CPU 0 instructions: 120000000 cycles: 41411648 heartbeat IPC: 2.536 cumulative IPC: 2.485 (Simulation time: 00 hr 12 min 42 sec)
*** Reached end of trace: (0, "../traces/public_traces/srv/srv_55.champsimtrace.xz")
Heartbeat CPU 0 instructions: 130000003 cycles: 45167671 heartbeat IPC: 2.662 cumulative IPC: 2.501 (Simulation time: 00 hr 13 min 49 sec)
Simulation finished CPU 0 instructions: 100000001 cycles: 39976243 cumulative IPC: 2.501 (Simulation time: 00 hr 13 min 49 sec)
Simulation complete CPU 0 instructions: 100000001 cycles: 39976243 cumulative IPC: 2.501 (Simulation time: 00 hr 13 min 49 sec)

ChampSim completed all CPUs

=== Simulation ===
CPU 0 runs ../traces/public_traces/srv/srv_55.champsimtrace.xz
Region of Interest Statistics

CPU 0 cumulative IPC: 2.501 instructions: 100000001 cycles: 39976243
CPU 0 Branch Prediction Accuracy: 95.35% MPKI: 8.446 Average ROB Occupancy at Mispredict: 33.68
Branch type MPKI
BRANCH_DIRECT_JUMP: 0.773
BRANCH_INDIRECT: 3.64
BRANCH_CONDITIONAL: 1.21
BRANCH_DIRECT_CALL: 1.48
BRANCH_INDIRECT_CALL: 0.378
BRANCH_RETURN: 0.96

LLC TOTAL        ACCESS:     829396 HIT:     622660 MISS:     206736
LLC LOAD         ACCESS:     154874 HIT:      96149 MISS:      58725
LLC RFO          ACCESS:     123630 HIT:      78684 MISS:      44946
LLC PREFETCH     ACCESS:     291641 HIT:     216011 MISS:      75630
LLC WRITE        ACCESS:     220198 HIT:     217449 MISS:       2749
LLC TRANSLATION  ACCESS:      39053 HIT:      14367 MISS:      24686
LLC PREFETCH REQUESTED:          0 ISSUED:          0 USEFUL:          0 USELESS:          0
LLC AVERAGE MISS LATENCY: 156.8 cycles
cpu0_DTLB TOTAL        ACCESS:   17664133 HIT:   17204062 MISS:     460071
cpu0_DTLB LOAD         ACCESS:   17664133 HIT:   17204062 MISS:     460071
cpu0_DTLB RFO          ACCESS:          0 HIT:          0 MISS:          0
cpu0_DTLB PREFETCH     ACCESS:          0 HIT:          0 MISS:          0
cpu0_DTLB WRITE        ACCESS:          0 HIT:          0 MISS:          0
cpu0_DTLB TRANSLATION  ACCESS:          0 HIT:          0 MISS:          0
cpu0_DTLB PREFETCH REQUESTED:          0 ISSUED:          0 USEFUL:          0 USELESS:          0
cpu0_DTLB AVERAGE MISS LATENCY: 15.53 cycles
cpu0_ITLB TOTAL        ACCESS:   13819263 HIT:   13451933 MISS:     367330
cpu0_ITLB LOAD         ACCESS:   13819263 HIT:   13451933 MISS:     367330
cpu0_ITLB RFO          ACCESS:          0 HIT:          0 MISS:          0
cpu0_ITLB PREFETCH     ACCESS:          0 HIT:          0 MISS:          0
cpu0_ITLB WRITE        ACCESS:          0 HIT:          0 MISS:          0
cpu0_ITLB TRANSLATION  ACCESS:          0 HIT:          0 MISS:          0
cpu0_ITLB PREFETCH REQUESTED:          0 ISSUED:          0 USEFUL:          0 USELESS:          0
cpu0_ITLB AVERAGE MISS LATENCY: 5.088 cycles
cpu0_L1D TOTAL        ACCESS:   27529043 HIT:   25017673 MISS:    2511370
cpu0_L1D LOAD         ACCESS:   16513489 HIT:   15324887 MISS:    1188602
cpu0_L1D RFO          ACCESS:          0 HIT:          0 MISS:          0
cpu0_L1D PREFETCH     ACCESS:    1016928 HIT:     783999 MISS:     232929
cpu0_L1D WRITE        ACCESS:    9948397 HIT:    8907425 MISS:    1040972
cpu0_L1D TRANSLATION  ACCESS:      50229 HIT:       1362 MISS:      48867
cpu0_L1D PREFETCH REQUESTED:    1646367 ISSUED:    1016928 USEFUL:      14156 USELESS:       4980
cpu0_L1D AVERAGE MISS LATENCY: 14.8 cycles
cpu0_L1I TOTAL        ACCESS:   20409255 HIT:   16794511 MISS:    3614744
cpu0_L1I LOAD         ACCESS:    6544713 HIT:    5601787 MISS:     942926
cpu0_L1I RFO          ACCESS:          0 HIT:          0 MISS:          0
cpu0_L1I PREFETCH     ACCESS:   13864542 HIT:   11192724 MISS:    2671818
cpu0_L1I WRITE        ACCESS:          0 HIT:          0 MISS:          0
cpu0_L1I TRANSLATION  ACCESS:          0 HIT:          0 MISS:          0
cpu0_L1I PREFETCH REQUESTED:   25626114 ISSUED:   13864542 USEFUL:    1795621 USELESS:     775815
cpu0_L1I AVERAGE MISS LATENCY: 11.25 cycles
cpu0_L2C TOTAL        ACCESS:    9266212 HIT:    8543327 MISS:     722885
cpu0_L2C LOAD         ACCESS:    1444222 HIT:    1281434 MISS:     162788
cpu0_L2C RFO          ACCESS:     349436 HIT:     224261 MISS:     125175
cpu0_L2C PREFETCH     ACCESS:    6813669 HIT:    6417847 MISS:     395822
cpu0_L2C WRITE        ACCESS:     611884 HIT:     611837 MISS:         47
cpu0_L2C TRANSLATION  ACCESS:      47001 HIT:       7948 MISS:      39053
cpu0_L2C PREFETCH REQUESTED:    4241732 ISSUED:    4016159 USEFUL:      72844 USELESS:     110291
cpu0_L2C AVERAGE MISS LATENCY: 61.35 cycles
cpu0_STLB TOTAL        ACCESS:     507512 HIT:     477874 MISS:      29638
cpu0_STLB LOAD         ACCESS:     507512 HIT:     477874 MISS:      29638
cpu0_STLB RFO          ACCESS:          0 HIT:          0 MISS:          0
cpu0_STLB PREFETCH     ACCESS:          0 HIT:          0 MISS:          0
cpu0_STLB WRITE        ACCESS:          0 HIT:          0 MISS:          0
cpu0_STLB TRANSLATION  ACCESS:          0 HIT:          0 MISS:          0
cpu0_STLB PREFETCH REQUESTED:          0 ISSUED:          0 USEFUL:          0 USELESS:          0
cpu0_STLB AVERAGE MISS LATENCY: 210.6 cycles

DRAM Statistics

Channel 0 RQ ROW_BUFFER_HIT:      31305
  ROW_BUFFER_MISS:      73684
 AVG DBUS CONGESTED CYCLE: 3.828
WQ ROW_BUFFER_HIT: Channel 0 
  ROW_BUFFER_MISS:       7823
  FULL:      38333

Channel 1 RQ ROW_BUFFER_HIT:      30731
  ROW_BUFFER_MISS:      68256
 AVG DBUS CONGESTED CYCLE: 3.829
WQ ROW_BUFFER_HIT: Channel 1 
  ROW_BUFFER_MISS:       7904
  FULL:      35831
BERTI TO_L1: 593837 TO_L2: 1458986 TO_L2_BC_MSHR: 265570
BERTI AVG_LAT: 23.1596 NUM_TRACK_LATENCY: 1073776 NUM_CANT_TRACK_LATENCY: 0
BERTI CROSS_PAGE 430200 NO_CROSS_PAGE: 1622623
BERTI FOUND_BERTI: 1756979 NO_FOUND_BERTI: 20051595
BERTI AVERAGE_ISSUED: 5.60665
CPU 0 L1I Entangling prefetcher final stats
IP accesses: f81d 3e0740 125798 / 6579969
IP misses: 3f25 fc940 3801 / 978182
IP hits: 0 0 0 / 0
IP late: dabf 36afc0 1128 / 436842
IP wrong: c733 31ccc0 2678 / 771454
miss rate: 0.148661
coverage: 0
coverage_late: 0.446586
accuracy: 0
accuracy_late: 0.361536
discarded: 0
evicts entangled j table: 0
evicts entangled k table: 172266
max bb size: 40
formats: 56419 0 118485 18533 13822 32225 0 
hist_lookups: 54736 80535 91435 96114 86201 72839 57450 42440 31968 24250 17608 12382 7538 3931 1641 0 51 158441 
hist_lookups_evict: 0.00607462 %
hist_lookups_shortlat: 18.872 %
bb_found_hist: 0 1672581 837918 368385 185025 86305 39812 41784 11216 4721 13522 2306 717 0 194 0 0 3394 97 0 0 0 0 0 0 0 0 0 0 0 0 0 0 0 0 0 117 174 97 0 160 0 0 0 0 0 0 0 0 0 0 0 0 0 0 0 0 0 0 0 0 0 0 0 
bb_found_summary: 6540860 3268525 2.00117
entangled_found_hist: 0 1181281 646334 1571688 203349 70952 17876 0 
entangled_found_summary: 8464425 3691480 2.29297
bb_ent_found_hist: 0 2593172 1530117 668378 350970 239290 99316 126926 11859 6713 48107 8037 1731 0 97 0 0 19787 0 0 0 0 0 0 0 0 0 0 0 0 0 0 0 0 0 0 0 20 424 0 0 0 0 0 0 0 0 0 0 0 0 0 0 0 0 0 0 0 0 0 0 0 0 0 
bb_ent_found_summary: 12843375 5704944 2.25128
