WARNING: physical memory size is smaller than virtual memory size.

*** ChampSim Multicore Out-of-Order Simulator ***
Warmup Instructions: 30000000
Simulation Instructions: 100000000
Number of CPUs: 1
Page size: 4096

BTB:
Basic BTB sets: 1024 ways: 8
Indirect:
history lengths: 0 0 10 16 27 44 60 96 109 219 449 487 714 1313 2146 3881 
ITTAGE tables: 64768 bytes;Region table: 240 bytes;IUM: 384 bytes;Total Storage= 65392 bytes;
RAS:
RAS size: 64
Berti Prefetcher
CPU 0 Entangling prefetcher
Off-chip DRAM Size: 8 GiB Channels: 2 Width: 64-bit Data Race: 6400 MT/s
Heartbeat CPU 0 instructions: 10000004 cycles: 1717717 heartbeat IPC: 5.822 cumulative IPC: 5.822 (Simulation time: 00 hr 00 min 45 sec)
Heartbeat CPU 0 instructions: 20000000 cycles: 3433904 heartbeat IPC: 5.827 cumulative IPC: 5.824 (Simulation time: 00 hr 01 min 30 sec)
Heartbeat CPU 0 instructions: 30000002 cycles: 5150695 heartbeat IPC: 5.825 cumulative IPC: 5.824 (Simulation time: 00 hr 02 min 15 sec)
Warmup finished CPU 0 instructions: 30000002 cycles: 5150696 cumulative IPC: 5.824 (Simulation time: 00 hr 02 min 15 sec)
Warmup complete CPU 0 instructions: 30000002 cycles: 5150696 cumulative IPC: 5.824 (Simulation time: 00 hr 02 min 15 sec)
*** Reached end of trace: (0, "../traces/public_traces/srv/srv_17.champsimtrace.xz")
Heartbeat CPU 0 instructions: 40000009 cycles: 8685975 heartbeat IPC: 2.829 cumulative IPC: 2.829 (Simulation time: 00 hr 03 min 16 sec)
Heartbeat CPU 0 instructions: 50000000 cycles: 12217479 heartbeat IPC: 2.832 cumulative IPC: 2.83 (Simulation time: 00 hr 04 min 17 sec)
Heartbeat CPU 0 instructions: 60000005 cycles: 15745189 heartbeat IPC: 2.835 cumulative IPC: 2.832 (Simulation time: 00 hr 05 min 18 sec)
*** Reached end of trace: (0, "../traces/public_traces/srv/srv_17.champsimtrace.xz")
Heartbeat CPU 0 instructions: 70000001 cycles: 19234307 heartbeat IPC: 2.866 cumulative IPC: 2.84 (Simulation time: 00 hr 06 min 19 sec)
Heartbeat CPU 0 instructions: 80000002 cycles: 22743209 heartbeat IPC: 2.85 cumulative IPC: 2.842 (Simulation time: 00 hr 07 min 22 sec)
Heartbeat CPU 0 instructions: 90000006 cycles: 26255498 heartbeat IPC: 2.847 cumulative IPC: 2.843 (Simulation time: 00 hr 08 min 23 sec)
*** Reached end of trace: (0, "../traces/public_traces/srv/srv_17.champsimtrace.xz")
Heartbeat CPU 0 instructions: 100000009 cycles: 29739745 heartbeat IPC: 2.87 cumulative IPC: 2.847 (Simulation time: 00 hr 09 min 24 sec)
Heartbeat CPU 0 instructions: 110000001 cycles: 33239941 heartbeat IPC: 2.857 cumulative IPC: 2.848 (Simulation time: 00 hr 10 min 25 sec)
Heartbeat CPU 0 instructions: 120000008 cycles: 36741523 heartbeat IPC: 2.856 cumulative IPC: 2.849 (Simulation time: 00 hr 11 min 26 sec)
*** Reached end of trace: (0, "../traces/public_traces/srv/srv_17.champsimtrace.xz")
Heartbeat CPU 0 instructions: 130000011 cycles: 40222184 heartbeat IPC: 2.873 cumulative IPC: 2.851 (Simulation time: 00 hr 12 min 27 sec)
Simulation finished CPU 0 instructions: 100000009 cycles: 35071489 cumulative IPC: 2.851 (Simulation time: 00 hr 12 min 27 sec)
Simulation complete CPU 0 instructions: 100000009 cycles: 35071489 cumulative IPC: 2.851 (Simulation time: 00 hr 12 min 27 sec)

ChampSim completed all CPUs

=== Simulation ===
CPU 0 runs ../traces/public_traces/srv/srv_17.champsimtrace.xz
Region of Interest Statistics

CPU 0 cumulative IPC: 2.851 instructions: 100000009 cycles: 35071489
CPU 0 Branch Prediction Accuracy: 95.14% MPKI: 8.63 Average ROB Occupancy at Mispredict: 44.49
Branch type MPKI
BRANCH_DIRECT_JUMP: 0.535
BRANCH_INDIRECT: 3.55
BRANCH_CONDITIONAL: 1.27
BRANCH_DIRECT_CALL: 1.64
BRANCH_INDIRECT_CALL: 0.294
BRANCH_RETURN: 1.35

LLC TOTAL        ACCESS:      13839 HIT:      13203 MISS:        636
LLC LOAD         ACCESS:       9707 HIT:       9472 MISS:        235
LLC RFO          ACCESS:        146 HIT:        146 MISS:          0
LLC PREFETCH     ACCESS:       3674 HIT:       3280 MISS:        394
LLC WRITE        ACCESS:        303 HIT:        303 MISS:          0
LLC TRANSLATION  ACCESS:          9 HIT:          2 MISS:          7
LLC PREFETCH REQUESTED:          0 ISSUED:          0 USEFUL:          0 USELESS:          0
LLC AVERAGE MISS LATENCY: 163.1 cycles
cpu0_DTLB TOTAL        ACCESS:   19937086 HIT:   18893286 MISS:    1043800
cpu0_DTLB LOAD         ACCESS:   19937086 HIT:   18893286 MISS:    1043800
cpu0_DTLB RFO          ACCESS:          0 HIT:          0 MISS:          0
cpu0_DTLB PREFETCH     ACCESS:          0 HIT:          0 MISS:          0
cpu0_DTLB WRITE        ACCESS:          0 HIT:          0 MISS:          0
cpu0_DTLB TRANSLATION  ACCESS:          0 HIT:          0 MISS:          0
cpu0_DTLB PREFETCH REQUESTED:          0 ISSUED:          0 USEFUL:          0 USELESS:          0
cpu0_DTLB AVERAGE MISS LATENCY: 4.945 cycles
cpu0_ITLB TOTAL        ACCESS:   23176966 HIT:   22154230 MISS:    1022736
cpu0_ITLB LOAD         ACCESS:   23176966 HIT:   22154230 MISS:    1022736
cpu0_ITLB RFO          ACCESS:          0 HIT:          0 MISS:          0
cpu0_ITLB PREFETCH     ACCESS:          0 HIT:          0 MISS:          0
cpu0_ITLB WRITE        ACCESS:          0 HIT:          0 MISS:          0
cpu0_ITLB TRANSLATION  ACCESS:          0 HIT:          0 MISS:          0
cpu0_ITLB PREFETCH REQUESTED:          0 ISSUED:          0 USEFUL:          0 USELESS:          0
cpu0_ITLB AVERAGE MISS LATENCY: 3.899 cycles
cpu0_L1D TOTAL        ACCESS:   30757204 HIT:   26556699 MISS:    4200505
cpu0_L1D LOAD         ACCESS:   16801889 HIT:   14431212 MISS:    2370677
cpu0_L1D RFO          ACCESS:          0 HIT:          0 MISS:          0
cpu0_L1D PREFETCH     ACCESS:          0 HIT:          0 MISS:          0
cpu0_L1D WRITE        ACCESS:   13955300 HIT:   12125487 MISS:    1829813
cpu0_L1D TRANSLATION  ACCESS:         15 HIT:          0 MISS:         15
cpu0_L1D PREFETCH REQUESTED:          0 ISSUED:          0 USEFUL:          0 USELESS:          0
cpu0_L1D AVERAGE MISS LATENCY: 4.804 cycles
cpu0_L1I TOTAL        ACCESS:   33735101 HIT:   25855826 MISS:    7879275
cpu0_L1I LOAD         ACCESS:   11497041 HIT:    9880019 MISS:    1617022
cpu0_L1I RFO          ACCESS:          0 HIT:          0 MISS:          0
cpu0_L1I PREFETCH     ACCESS:   22238060 HIT:   15975807 MISS:    6262253
cpu0_L1I WRITE        ACCESS:          0 HIT:          0 MISS:          0
cpu0_L1I TRANSLATION  ACCESS:          0 HIT:          0 MISS:          0
cpu0_L1I PREFETCH REQUESTED:   33230058 ISSUED:   22238041 USEFUL:    5072259 USELESS:     997663
cpu0_L1I AVERAGE MISS LATENCY: 11.01 cycles
cpu0_L2C TOTAL        ACCESS:   18695673 HIT:   18680333 MISS:      15340
cpu0_L2C LOAD         ACCESS:    2774976 HIT:    2765184 MISS:       9792
cpu0_L2C RFO          ACCESS:     570411 HIT:     570265 MISS:        146
cpu0_L2C PREFETCH     ACCESS:   14207566 HIT:   14202173 MISS:       5393
cpu0_L2C WRITE        ACCESS:    1142705 HIT:    1142705 MISS:          0
cpu0_L2C TRANSLATION  ACCESS:         15 HIT:          6 MISS:          9
cpu0_L2C PREFETCH REQUESTED:    8844951 ISSUED:    8137578 USEFUL:        994 USELESS:       1975
cpu0_L2C AVERAGE MISS LATENCY: 24.37 cycles
cpu0_STLB TOTAL        ACCESS:    1344595 HIT:    1344580 MISS:         15
cpu0_STLB LOAD         ACCESS:    1344595 HIT:    1344580 MISS:         15
cpu0_STLB RFO          ACCESS:          0 HIT:          0 MISS:          0
cpu0_STLB PREFETCH     ACCESS:          0 HIT:          0 MISS:          0
cpu0_STLB WRITE        ACCESS:          0 HIT:          0 MISS:          0
cpu0_STLB TRANSLATION  ACCESS:          0 HIT:          0 MISS:          0
cpu0_STLB PREFETCH REQUESTED:          0 ISSUED:          0 USEFUL:          0 USELESS:          0
cpu0_STLB AVERAGE MISS LATENCY: 228.7 cycles

DRAM Statistics

Channel 0 RQ ROW_BUFFER_HIT:         36
  ROW_BUFFER_MISS:        287
 AVG DBUS CONGESTED CYCLE: 3.489
WQ ROW_BUFFER_HIT: Channel 0 
  ROW_BUFFER_MISS:          0
  FULL:          0

Channel 1 RQ ROW_BUFFER_HIT:         29
  ROW_BUFFER_MISS:        284
 AVG DBUS CONGESTED CYCLE: 3.482
WQ ROW_BUFFER_HIT: Channel 1 
  ROW_BUFFER_MISS:          0
  FULL:          0
BERTI TO_L1: 56 TO_L2: 1064 TO_L2_BC_MSHR: 0
BERTI AVG_LAT: 9.6768 NUM_TRACK_LATENCY: 2146353 NUM_CANT_TRACK_LATENCY: 0
BERTI CROSS_PAGE 25 NO_CROSS_PAGE: 1095
BERTI FOUND_BERTI: 418396 NO_FOUND_BERTI: 21102246
BERTI AVERAGE_ISSUED: 1.83007
CPU 0 L1I Entangling prefetcher final stats
IP accesses: a3d2 28f480 49599 / 11507078
IP misses: 5641 159040 11627 / 1627059
IP hits: 0 0 0 / 0
IP late: 9d10 274400 4106 / 787362
IP wrong: 12d8 4b600 4991 / 986736
miss rate: 0.141397
coverage: 0
coverage_late: 0.483918
accuracy: 0
accuracy_late: 0.44381
discarded: 0
evicts entangled j table: 0
evicts entangled k table: 269718
max bb size: 13
formats: 130161 32620 131620 20469 7119 21749 0 
hist_lookups: 72077 138572 154722 162726 143100 113344 95004 70456 54951 38743 28027 19273 16136 7418 3326 0 0 205783 
hist_lookups_evict: 0 %
hist_lookups_shortlat: 15.5466 %
bb_found_hist: 0 2734732 1094939 525578 185519 86985 77527 15749 1672 0 13372 5013 0 1671 0 0 0 0 0 0 0 0 0 0 0 0 0 0 0 0 0 0 0 0 0 0 0 0 0 0 0 0 0 0 0 0 0 0 0 0 0 0 0 0 0 0 0 0 0 0 0 0 0 0 
bb_found_summary: 8477712 4742757 1.78751
entangled_found_hist: 0 1701963 1401617 2198346 295287 76338 25833 0 
entangled_found_summary: 12818071 5699384 2.24903
bb_ent_found_hist: 0 4038748 2198338 1071239 423442 214501 170496 44814 5563 0 33883 35118 0 12899 0 0 0 0 0 0 0 0 0 0 0 0 0 0 0 0 0 0 0 0 0 0 0 0 0 0 0 0 0 0 0 0 0 0 0 0 0 0 0 0 0 0 0 0 0 0 0 0 0 0 
bb_ent_found_summary: 16689407 8249041 2.0232
