WARNING: physical memory size is smaller than virtual memory size.

*** ChampSim Multicore Out-of-Order Simulator ***
Warmup Instructions: 30000000
Simulation Instructions: 100000000
Number of CPUs: 1
Page size: 4096

BTB:
Basic BTB sets: 1024 ways: 8
Indirect:
history lengths: 0 0 10 16 27 44 60 96 109 219 449 487 714 1313 2146 3881 
ITTAGE tables: 64768 bytes;Region table: 240 bytes;IUM: 384 bytes;Total Storage= 65392 bytes;
RAS:
RAS size: 64
[LLC] INSTR Demand IPV: 1 2 2 1 4 Prefetch IPV: 1 2 1 1 4
[LLC] DATA  Demand IPV: 1 1 1 2 4 Prefetch IPV: 1 1 2 2 4
Berti Prefetcher
CPU 0 Entangling prefetcher
Off-chip DRAM Size: 8 GiB Channels: 2 Width: 64-bit Data Race: 6400 MT/s
[DUEL] Epoch ended. INSTR misses = 87, DATA misses = 72. Winner = DATA
[DUEL] Epoch ended. INSTR misses = 53, DATA misses = 50. Winner = DATA
[DUEL] Epoch ended. INSTR misses = 40, DATA misses = 34. Winner = DATA
[DUEL] Epoch ended. INSTR misses = 40, DATA misses = 32. Winner = DATA
[DUEL] Epoch ended. INSTR misses = 51, DATA misses = 42. Winner = DATA
[DUEL] Epoch ended. INSTR misses = 55, DATA misses = 33. Winner = DATA
[DUEL] Epoch ended. INSTR misses = 63, DATA misses = 54. Winner = DATA
[DUEL] Epoch ended. INSTR misses = 42, DATA misses = 31. Winner = DATA
[DUEL] Epoch ended. INSTR misses = 43, DATA misses = 56. Winner = INSTR
[DUEL] Epoch ended. INSTR misses = 111, DATA misses = 76. Winner = DATA
[DUEL] Epoch ended. INSTR misses = 7, DATA misses = 10. Winner = INSTR
[DUEL] Epoch ended. INSTR misses = 50, DATA misses = 43. Winner = DATA
[DUEL] Epoch ended. INSTR misses = 41, DATA misses = 43. Winner = INSTR
[DUEL] Epoch ended. INSTR misses = 60, DATA misses = 65. Winner = INSTR
[DUEL] Epoch ended. INSTR misses = 87, DATA misses = 61. Winner = DATA
[DUEL] Epoch ended. INSTR misses = 47, DATA misses = 32. Winner = DATA
[DUEL] Epoch ended. INSTR misses = 64, DATA misses = 68. Winner = INSTR
[DUEL] Epoch ended. INSTR misses = 98, DATA misses = 75. Winner = DATA
[DUEL] Epoch ended. INSTR misses = 99, DATA misses = 80. Winner = DATA
Heartbeat CPU 0 instructions: 10000011 cycles: 2107560 heartbeat IPC: 4.745 cumulative IPC: 4.745 (Simulation time: 00 hr 00 min 30 sec)
[DUEL] Epoch ended. INSTR misses = 56, DATA misses = 60. Winner = INSTR
[DUEL] Epoch ended. INSTR misses = 42, DATA misses = 35. Winner = DATA
[DUEL] Epoch ended. INSTR misses = 56, DATA misses = 64. Winner = INSTR
[DUEL] Epoch ended. INSTR misses = 49, DATA misses = 35. Winner = DATA
[DUEL] Epoch ended. INSTR misses = 71, DATA misses = 71. Winner = INSTR
[DUEL] Epoch ended. INSTR misses = 78, DATA misses = 64. Winner = DATA
[DUEL] Epoch ended. INSTR misses = 52, DATA misses = 35. Winner = DATA
[DUEL] Epoch ended. INSTR misses = 67, DATA misses = 52. Winner = DATA
[DUEL] Epoch ended. INSTR misses = 49, DATA misses = 34. Winner = DATA
[DUEL] Epoch ended. INSTR misses = 81, DATA misses = 79. Winner = DATA
[DUEL] Epoch ended. INSTR misses = 71, DATA misses = 74. Winner = INSTR
[DUEL] Epoch ended. INSTR misses = 48, DATA misses = 41. Winner = DATA
[DUEL] Epoch ended. INSTR misses = 59, DATA misses = 67. Winner = INSTR
[DUEL] Epoch ended. INSTR misses = 83, DATA misses = 77. Winner = DATA
[DUEL] Epoch ended. INSTR misses = 77, DATA misses = 25. Winner = DATA
[DUEL] Epoch ended. INSTR misses = 31, DATA misses = 49. Winner = INSTR
[DUEL] Epoch ended. INSTR misses = 51, DATA misses = 36. Winner = DATA
[DUEL] Epoch ended. INSTR misses = 69, DATA misses = 75. Winner = INSTR
[DUEL] Epoch ended. INSTR misses = 43, DATA misses = 34. Winner = DATA
[DUEL] Epoch ended. INSTR misses = 101, DATA misses = 79. Winner = DATA
Heartbeat CPU 0 instructions: 20000001 cycles: 4200375 heartbeat IPC: 4.778 cumulative IPC: 4.761 (Simulation time: 00 hr 01 min 00 sec)
[DUEL] Epoch ended. INSTR misses = 55, DATA misses = 61. Winner = INSTR
[DUEL] Epoch ended. INSTR misses = 49, DATA misses = 41. Winner = DATA
[DUEL] Epoch ended. INSTR misses = 35, DATA misses = 23. Winner = DATA
[DUEL] Epoch ended. INSTR misses = 47, DATA misses = 58. Winner = INSTR
[DUEL] Epoch ended. INSTR misses = 61, DATA misses = 63. Winner = INSTR
[DUEL] Epoch ended. INSTR misses = 71, DATA misses = 75. Winner = INSTR
[DUEL] Epoch ended. INSTR misses = 69, DATA misses = 68. Winner = DATA
[DUEL] Epoch ended. INSTR misses = 49, DATA misses = 46. Winner = DATA
[DUEL] Epoch ended. INSTR misses = 68, DATA misses = 39. Winner = DATA
[DUEL] Epoch ended. INSTR misses = 69, DATA misses = 47. Winner = DATA
[DUEL] Epoch ended. INSTR misses = 38, DATA misses = 28. Winner = DATA
[DUEL] Epoch ended. INSTR misses = 41, DATA misses = 55. Winner = INSTR
[DUEL] Epoch ended. INSTR misses = 124, DATA misses = 86. Winner = DATA
[DUEL] Epoch ended. INSTR misses = 72, DATA misses = 83. Winner = INSTR
[DUEL] Epoch ended. INSTR misses = 48, DATA misses = 34. Winner = DATA
[DUEL] Epoch ended. INSTR misses = 33, DATA misses = 47. Winner = INSTR
[DUEL] Epoch ended. INSTR misses = 62, DATA misses = 44. Winner = DATA
[DUEL] Epoch ended. INSTR misses = 37, DATA misses = 43. Winner = INSTR
[DUEL] Epoch ended. INSTR misses = 52, DATA misses = 42. Winner = DATA
Heartbeat CPU 0 instructions: 30000007 cycles: 6308614 heartbeat IPC: 4.743 cumulative IPC: 4.755 (Simulation time: 00 hr 01 min 31 sec)
Warmup finished CPU 0 instructions: 30000007 cycles: 6308615 cumulative IPC: 4.755 (Simulation time: 00 hr 01 min 31 sec)
Warmup complete CPU 0 instructions: 30000007 cycles: 6308615 cumulative IPC: 4.755 (Simulation time: 00 hr 01 min 31 sec)
[DUEL] Epoch ended. INSTR misses = 43, DATA misses = 48. Winner = INSTR
[DUEL] Epoch ended. INSTR misses = 84, DATA misses = 64. Winner = DATA
[DUEL] Epoch ended. INSTR misses = 48, DATA misses = 35. Winner = DATA
[DUEL] Epoch ended. INSTR misses = 60, DATA misses = 58. Winner = DATA
*** Reached end of trace: (0, "../traces/public_traces/srv/srv_39.champsimtrace.xz")
[DUEL] Epoch ended. INSTR misses = 48, DATA misses = 44. Winner = DATA
[DUEL] Epoch ended. INSTR misses = 31, DATA misses = 27. Winner = DATA
[DUEL] Epoch ended. INSTR misses = 14, DATA misses = 9. Winner = DATA
[DUEL] Epoch ended. INSTR misses = 20, DATA misses = 3. Winner = DATA
[DUEL] Epoch ended. INSTR misses = 36, DATA misses = 25. Winner = DATA
[DUEL] Epoch ended. INSTR misses = 44, DATA misses = 25. Winner = DATA
[DUEL] Epoch ended. INSTR misses = 50, DATA misses = 32. Winner = DATA
[DUEL] Epoch ended. INSTR misses = 68, DATA misses = 72. Winner = INSTR
[DUEL] Epoch ended. INSTR misses = 30, DATA misses = 11. Winner = DATA
[DUEL] Epoch ended. INSTR misses = 34, DATA misses = 49. Winner = INSTR
[DUEL] Epoch ended. INSTR misses = 97, DATA misses = 70. Winner = DATA
[DUEL] Epoch ended. INSTR misses = 28, DATA misses = 28. Winner = INSTR
[DUEL] Epoch ended. INSTR misses = 26, DATA misses = 26. Winner = INSTR
[DUEL] Epoch ended. INSTR misses = 37, DATA misses = 39. Winner = INSTR
[DUEL] Epoch ended. INSTR misses = 66, DATA misses = 64. Winner = DATA
[DUEL] Epoch ended. INSTR misses = 59, DATA misses = 58. Winner = DATA
Heartbeat CPU 0 instructions: 40000000 cycles: 12120983 heartbeat IPC: 1.72 cumulative IPC: 1.72 (Simulation time: 00 hr 02 min 27 sec)
[DUEL] Epoch ended. INSTR misses = 57, DATA misses = 49. Winner = DATA
[DUEL] Epoch ended. INSTR misses = 54, DATA misses = 53. Winner = DATA
[DUEL] Epoch ended. INSTR misses = 88, DATA misses = 82. Winner = DATA
[DUEL] Epoch ended. INSTR misses = 96, DATA misses = 88. Winner = DATA
[DUEL] Epoch ended. INSTR misses = 46, DATA misses = 41. Winner = DATA
[DUEL] Epoch ended. INSTR misses = 40, DATA misses = 33. Winner = DATA
[DUEL] Epoch ended. INSTR misses = 74, DATA misses = 79. Winner = INSTR
[DUEL] Epoch ended. INSTR misses = 58, DATA misses = 39. Winner = DATA
[DUEL] Epoch ended. INSTR misses = 39, DATA misses = 48. Winner = INSTR
[DUEL] Epoch ended. INSTR misses = 82, DATA misses = 59. Winner = DATA
[DUEL] Epoch ended. INSTR misses = 62, DATA misses = 38. Winner = DATA
[DUEL] Epoch ended. INSTR misses = 59, DATA misses = 55. Winner = DATA
[DUEL] Epoch ended. INSTR misses = 32, DATA misses = 27. Winner = DATA
[DUEL] Epoch ended. INSTR misses = 83, DATA misses = 81. Winner = DATA
[DUEL] Epoch ended. INSTR misses = 71, DATA misses = 77. Winner = INSTR
[DUEL] Epoch ended. INSTR misses = 52, DATA misses = 39. Winner = DATA
[DUEL] Epoch ended. INSTR misses = 61, DATA misses = 66. Winner = INSTR
[DUEL] Epoch ended. INSTR misses = 79, DATA misses = 80. Winner = INSTR
[DUEL] Epoch ended. INSTR misses = 67, DATA misses = 35. Winner = DATA
Heartbeat CPU 0 instructions: 50000002 cycles: 17873651 heartbeat IPC: 1.738 cumulative IPC: 1.729 (Simulation time: 00 hr 03 min 24 sec)
[DUEL] Epoch ended. INSTR misses = 49, DATA misses = 52. Winner = INSTR
[DUEL] Epoch ended. INSTR misses = 30, DATA misses = 21. Winner = DATA
[DUEL] Epoch ended. INSTR misses = 69, DATA misses = 75. Winner = INSTR
[DUEL] Epoch ended. INSTR misses = 58, DATA misses = 56. Winner = DATA
[DUEL] Epoch ended. INSTR misses = 99, DATA misses = 76. Winner = DATA
[DUEL] Epoch ended. INSTR misses = 41, DATA misses = 41. Winner = INSTR
[DUEL] Epoch ended. INSTR misses = 53, DATA misses = 40. Winner = DATA
[DUEL] Epoch ended. INSTR misses = 38, DATA misses = 34. Winner = DATA
[DUEL] Epoch ended. INSTR misses = 45, DATA misses = 51. Winner = INSTR
[DUEL] Epoch ended. INSTR misses = 57, DATA misses = 68. Winner = INSTR
[DUEL] Epoch ended. INSTR misses = 69, DATA misses = 72. Winner = INSTR
[DUEL] Epoch ended. INSTR misses = 86, DATA misses = 79. Winner = DATA
[DUEL] Epoch ended. INSTR misses = 47, DATA misses = 34. Winner = DATA
[DUEL] Epoch ended. INSTR misses = 66, DATA misses = 41. Winner = DATA
[DUEL] Epoch ended. INSTR misses = 59, DATA misses = 44. Winner = DATA
[DUEL] Epoch ended. INSTR misses = 42, DATA misses = 33. Winner = DATA
[DUEL] Epoch ended. INSTR misses = 74, DATA misses = 80. Winner = INSTR
[DUEL] Epoch ended. INSTR misses = 84, DATA misses = 61. Winner = DATA
[DUEL] Epoch ended. INSTR misses = 71, DATA misses = 79. Winner = INSTR
[DUEL] Epoch ended. INSTR misses = 54, DATA misses = 47. Winner = DATA
Heartbeat CPU 0 instructions: 60000002 cycles: 23793028 heartbeat IPC: 1.689 cumulative IPC: 1.716 (Simulation time: 00 hr 04 min 21 sec)
[DUEL] Epoch ended. INSTR misses = 25, DATA misses = 34. Winner = INSTR
[DUEL] Epoch ended. INSTR misses = 45, DATA misses = 44. Winner = DATA
[DUEL] Epoch ended. INSTR misses = 58, DATA misses = 64. Winner = INSTR
[DUEL] Epoch ended. INSTR misses = 35, DATA misses = 21. Winner = DATA
[DUEL] Epoch ended. INSTR misses = 47, DATA misses = 47. Winner = INSTR
[DUEL] Epoch ended. INSTR misses = 73, DATA misses = 64. Winner = DATA
[DUEL] Epoch ended. INSTR misses = 69, DATA misses = 57. Winner = DATA
[DUEL] Epoch ended. INSTR misses = 36, DATA misses = 36. Winner = INSTR
*** Reached end of trace: (0, "../traces/public_traces/srv/srv_39.champsimtrace.xz")
[DUEL] Epoch ended. INSTR misses = 63, DATA misses = 47. Winner = DATA
[DUEL] Epoch ended. INSTR misses = 21, DATA misses = 21. Winner = INSTR
[DUEL] Epoch ended. INSTR misses = 22, DATA misses = 8. Winner = DATA
[DUEL] Epoch ended. INSTR misses = 25, DATA misses = 3. Winner = DATA
[DUEL] Epoch ended. INSTR misses = 48, DATA misses = 37. Winner = DATA
[DUEL] Epoch ended. INSTR misses = 46, DATA misses = 32. Winner = DATA
[DUEL] Epoch ended. INSTR misses = 31, DATA misses = 12. Winner = DATA
[DUEL] Epoch ended. INSTR misses = 71, DATA misses = 74. Winner = INSTR
[DUEL] Epoch ended. INSTR misses = 23, DATA misses = 8. Winner = DATA
[DUEL] Epoch ended. INSTR misses = 33, DATA misses = 50. Winner = INSTR
[DUEL] Epoch ended. INSTR misses = 97, DATA misses = 71. Winner = DATA
Heartbeat CPU 0 instructions: 70000010 cycles: 29593924 heartbeat IPC: 1.724 cumulative IPC: 1.718 (Simulation time: 00 hr 05 min 17 sec)
[DUEL] Epoch ended. INSTR misses = 27, DATA misses = 30. Winner = INSTR
[DUEL] Epoch ended. INSTR misses = 27, DATA misses = 31. Winner = INSTR
[DUEL] Epoch ended. INSTR misses = 35, DATA misses = 33. Winner = DATA
[DUEL] Epoch ended. INSTR misses = 64, DATA misses = 64. Winner = INSTR
[DUEL] Epoch ended. INSTR misses = 76, DATA misses = 60. Winner = DATA
[DUEL] Epoch ended. INSTR misses = 55, DATA misses = 47. Winner = DATA
[DUEL] Epoch ended. INSTR misses = 57, DATA misses = 52. Winner = DATA
[DUEL] Epoch ended. INSTR misses = 91, DATA misses = 88. Winner = DATA
[DUEL] Epoch ended. INSTR misses = 90, DATA misses = 89. Winner = DATA
[DUEL] Epoch ended. INSTR misses = 48, DATA misses = 37. Winner = DATA
[DUEL] Epoch ended. INSTR misses = 34, DATA misses = 31. Winner = DATA
[DUEL] Epoch ended. INSTR misses = 84, DATA misses = 79. Winner = DATA
[DUEL] Epoch ended. INSTR misses = 53, DATA misses = 57. Winner = INSTR
[DUEL] Epoch ended. INSTR misses = 32, DATA misses = 30. Winner = DATA
[DUEL] Epoch ended. INSTR misses = 81, DATA misses = 59. Winner = DATA
[DUEL] Epoch ended. INSTR misses = 73, DATA misses = 43. Winner = DATA
[DUEL] Epoch ended. INSTR misses = 48, DATA misses = 50. Winner = INSTR
[DUEL] Epoch ended. INSTR misses = 39, DATA misses = 42. Winner = INSTR
[DUEL] Epoch ended. INSTR misses = 76, DATA misses = 67. Winner = DATA
[DUEL] Epoch ended. INSTR misses = 82, DATA misses = 75. Winner = DATA
Heartbeat CPU 0 instructions: 80000004 cycles: 35371507 heartbeat IPC: 1.731 cumulative IPC: 1.72 (Simulation time: 00 hr 06 min 13 sec)
[DUEL] Epoch ended. INSTR misses = 70, DATA misses = 73. Winner = INSTR
[DUEL] Epoch ended. INSTR misses = 33, DATA misses = 34. Winner = INSTR
[DUEL] Epoch ended. INSTR misses = 78, DATA misses = 81. Winner = INSTR
[DUEL] Epoch ended. INSTR misses = 100, DATA misses = 64. Winner = DATA
[DUEL] Epoch ended. INSTR misses = 20, DATA misses = 19. Winner = DATA
[DUEL] Epoch ended. INSTR misses = 31, DATA misses = 22. Winner = DATA
[DUEL] Epoch ended. INSTR misses = 63, DATA misses = 75. Winner = INSTR
[DUEL] Epoch ended. INSTR misses = 68, DATA misses = 65. Winner = DATA
[DUEL] Epoch ended. INSTR misses = 92, DATA misses = 65. Winner = DATA
[DUEL] Epoch ended. INSTR misses = 40, DATA misses = 46. Winner = INSTR
[DUEL] Epoch ended. INSTR misses = 47, DATA misses = 37. Winner = DATA
[DUEL] Epoch ended. INSTR misses = 68, DATA misses = 65. Winner = DATA
[DUEL] Epoch ended. INSTR misses = 35, DATA misses = 38. Winner = INSTR
[DUEL] Epoch ended. INSTR misses = 38, DATA misses = 47. Winner = INSTR
[DUEL] Epoch ended. INSTR misses = 67, DATA misses = 72. Winner = INSTR
[DUEL] Epoch ended. INSTR misses = 86, DATA misses = 78. Winner = DATA
[DUEL] Epoch ended. INSTR misses = 57, DATA misses = 35. Winner = DATA
[DUEL] Epoch ended. INSTR misses = 43, DATA misses = 39. Winner = DATA
[DUEL] Epoch ended. INSTR misses = 63, DATA misses = 45. Winner = DATA
Heartbeat CPU 0 instructions: 90000004 cycles: 41044426 heartbeat IPC: 1.763 cumulative IPC: 1.727 (Simulation time: 00 hr 07 min 09 sec)
[DUEL] Epoch ended. INSTR misses = 56, DATA misses = 56. Winner = INSTR
[DUEL] Epoch ended. INSTR misses = 57, DATA misses = 57. Winner = INSTR
[DUEL] Epoch ended. INSTR misses = 86, DATA misses = 61. Winner = DATA
[DUEL] Epoch ended. INSTR misses = 69, DATA misses = 78. Winner = INSTR
[DUEL] Epoch ended. INSTR misses = 55, DATA misses = 46. Winner = DATA
[DUEL] Epoch ended. INSTR misses = 21, DATA misses = 38. Winner = INSTR
[DUEL] Epoch ended. INSTR misses = 60, DATA misses = 42. Winner = DATA
[DUEL] Epoch ended. INSTR misses = 53, DATA misses = 66. Winner = INSTR
[DUEL] Epoch ended. INSTR misses = 40, DATA misses = 25. Winner = DATA
[DUEL] Epoch ended. INSTR misses = 62, DATA misses = 66. Winner = INSTR
[DUEL] Epoch ended. INSTR misses = 53, DATA misses = 41. Winner = DATA
[DUEL] Epoch ended. INSTR misses = 61, DATA misses = 57. Winner = DATA
[DUEL] Epoch ended. INSTR misses = 49, DATA misses = 50. Winner = INSTR
*** Reached end of trace: (0, "../traces/public_traces/srv/srv_39.champsimtrace.xz")
[DUEL] Epoch ended. INSTR misses = 62, DATA misses = 44. Winner = DATA
[DUEL] Epoch ended. INSTR misses = 17, DATA misses = 18. Winner = INSTR
[DUEL] Epoch ended. INSTR misses = 15, DATA misses = 2. Winner = DATA
[DUEL] Epoch ended. INSTR misses = 25, DATA misses = 3. Winner = DATA
[DUEL] Epoch ended. INSTR misses = 48, DATA misses = 37. Winner = DATA
[DUEL] Epoch ended. INSTR misses = 42, DATA misses = 32. Winner = DATA
[DUEL] Epoch ended. INSTR misses = 34, DATA misses = 12. Winner = DATA
Heartbeat CPU 0 instructions: 100000001 cycles: 46747762 heartbeat IPC: 1.753 cumulative IPC: 1.731 (Simulation time: 00 hr 08 min 05 sec)
[DUEL] Epoch ended. INSTR misses = 69, DATA misses = 73. Winner = INSTR
[DUEL] Epoch ended. INSTR misses = 45, DATA misses = 35. Winner = DATA
[DUEL] Epoch ended. INSTR misses = 30, DATA misses = 44. Winner = INSTR
[DUEL] Epoch ended. INSTR misses = 76, DATA misses = 53. Winner = DATA
[DUEL] Epoch ended. INSTR misses = 26, DATA misses = 32. Winner = INSTR
[DUEL] Epoch ended. INSTR misses = 34, DATA misses = 33. Winner = DATA
[DUEL] Epoch ended. INSTR misses = 52, DATA misses = 53. Winner = INSTR
[DUEL] Epoch ended. INSTR misses = 41, DATA misses = 39. Winner = DATA
[DUEL] Epoch ended. INSTR misses = 75, DATA misses = 59. Winner = DATA
[DUEL] Epoch ended. INSTR misses = 67, DATA misses = 60. Winner = DATA
[DUEL] Epoch ended. INSTR misses = 60, DATA misses = 57. Winner = DATA
[DUEL] Epoch ended. INSTR misses = 65, DATA misses = 62. Winner = DATA
[DUEL] Epoch ended. INSTR misses = 103, DATA misses = 92. Winner = DATA
[DUEL] Epoch ended. INSTR misses = 58, DATA misses = 51. Winner = DATA
[DUEL] Epoch ended. INSTR misses = 14, DATA misses = 16. Winner = INSTR
[DUEL] Epoch ended. INSTR misses = 86, DATA misses = 80. Winner = DATA
[DUEL] Epoch ended. INSTR misses = 66, DATA misses = 75. Winner = INSTR
[DUEL] Epoch ended. INSTR misses = 39, DATA misses = 16. Winner = DATA
[DUEL] Epoch ended. INSTR misses = 57, DATA misses = 54. Winner = DATA
Heartbeat CPU 0 instructions: 110000002 cycles: 52669378 heartbeat IPC: 1.689 cumulative IPC: 1.726 (Simulation time: 00 hr 09 min 02 sec)
[DUEL] Epoch ended. INSTR misses = 68, DATA misses = 46. Winner = DATA
[DUEL] Epoch ended. INSTR misses = 69, DATA misses = 71. Winner = INSTR
[DUEL] Epoch ended. INSTR misses = 42, DATA misses = 43. Winner = INSTR
[DUEL] Epoch ended. INSTR misses = 53, DATA misses = 41. Winner = DATA
[DUEL] Epoch ended. INSTR misses = 76, DATA misses = 77. Winner = INSTR
[DUEL] Epoch ended. INSTR misses = 74, DATA misses = 75. Winner = INSTR
[DUEL] Epoch ended. INSTR misses = 38, DATA misses = 34. Winner = DATA
[DUEL] Epoch ended. INSTR misses = 69, DATA misses = 77. Winner = INSTR
[DUEL] Epoch ended. INSTR misses = 101, DATA misses = 69. Winner = DATA
[DUEL] Epoch ended. INSTR misses = 37, DATA misses = 33. Winner = DATA
[DUEL] Epoch ended. INSTR misses = 14, DATA misses = 9. Winner = DATA
[DUEL] Epoch ended. INSTR misses = 60, DATA misses = 72. Winner = INSTR
[DUEL] Epoch ended. INSTR misses = 65, DATA misses = 62. Winner = DATA
[DUEL] Epoch ended. INSTR misses = 78, DATA misses = 73. Winner = DATA
[DUEL] Epoch ended. INSTR misses = 53, DATA misses = 53. Winner = INSTR
[DUEL] Epoch ended. INSTR misses = 31, DATA misses = 24. Winner = DATA
[DUEL] Epoch ended. INSTR misses = 69, DATA misses = 74. Winner = INSTR
[DUEL] Epoch ended. INSTR misses = 40, DATA misses = 33. Winner = DATA
[DUEL] Epoch ended. INSTR misses = 57, DATA misses = 64. Winner = INSTR
[DUEL] Epoch ended. INSTR misses = 40, DATA misses = 52. Winner = INSTR
Heartbeat CPU 0 instructions: 120000008 cycles: 58484692 heartbeat IPC: 1.72 cumulative IPC: 1.725 (Simulation time: 00 hr 09 min 59 sec)
[DUEL] Epoch ended. INSTR misses = 104, DATA misses = 103. Winner = DATA
[DUEL] Epoch ended. INSTR misses = 43, DATA misses = 16. Winner = DATA
[DUEL] Epoch ended. INSTR misses = 34, DATA misses = 32. Winner = DATA
[DUEL] Epoch ended. INSTR misses = 60, DATA misses = 44. Winner = DATA
[DUEL] Epoch ended. INSTR misses = 64, DATA misses = 70. Winner = INSTR
[DUEL] Epoch ended. INSTR misses = 48, DATA misses = 54. Winner = INSTR
[DUEL] Epoch ended. INSTR misses = 79, DATA misses = 50. Winner = DATA
[DUEL] Epoch ended. INSTR misses = 67, DATA misses = 81. Winner = INSTR
[DUEL] Epoch ended. INSTR misses = 72, DATA misses = 71. Winner = DATA
[DUEL] Epoch ended. INSTR misses = 14, DATA misses = 14. Winner = INSTR
[DUEL] Epoch ended. INSTR misses = 56, DATA misses = 38. Winner = DATA
[DUEL] Epoch ended. INSTR misses = 51, DATA misses = 64. Winner = INSTR
[DUEL] Epoch ended. INSTR misses = 62, DATA misses = 53. Winner = DATA
[DUEL] Epoch ended. INSTR misses = 44, DATA misses = 46. Winner = INSTR
[DUEL] Epoch ended. INSTR misses = 52, DATA misses = 34. Winner = DATA
[DUEL] Epoch ended. INSTR misses = 57, DATA misses = 57. Winner = INSTR
[DUEL] Epoch ended. INSTR misses = 65, DATA misses = 69. Winner = INSTR
*** Reached end of trace: (0, "../traces/public_traces/srv/srv_39.champsimtrace.xz")
[DUEL] Epoch ended. INSTR misses = 50, DATA misses = 30. Winner = DATA
[DUEL] Epoch ended. INSTR misses = 14, DATA misses = 12. Winner = DATA
Heartbeat CPU 0 instructions: 130000006 cycles: 64255923 heartbeat IPC: 1.733 cumulative IPC: 1.726 (Simulation time: 00 hr 10 min 56 sec)
Simulation finished CPU 0 instructions: 100000011 cycles: 57947310 cumulative IPC: 1.726 (Simulation time: 00 hr 10 min 56 sec)
Simulation complete CPU 0 instructions: 100000011 cycles: 57947310 cumulative IPC: 1.726 (Simulation time: 00 hr 10 min 56 sec)

ChampSim completed all CPUs

=== Simulation ===
CPU 0 runs ../traces/public_traces/srv/srv_39.champsimtrace.xz
Region of Interest Statistics

CPU 0 cumulative IPC: 1.726 instructions: 100000011 cycles: 57947310
CPU 0 Branch Prediction Accuracy: 99.88% MPKI: 0.1886 Average ROB Occupancy at Mispredict: 213.6
Branch type MPKI
BRANCH_DIRECT_JUMP: 0
BRANCH_INDIRECT: 0.143
BRANCH_CONDITIONAL: 0.0452
BRANCH_DIRECT_CALL: 0
BRANCH_INDIRECT_CALL: 1e-05
BRANCH_RETURN: 0.00046

LLC TOTAL        ACCESS:    4661872 HIT:    2002629 MISS:    2659243
LLC LOAD         ACCESS:     489194 HIT:     374844 MISS:     114350
LLC RFO          ACCESS:    1561961 HIT:     416779 MISS:    1145182
LLC PREFETCH     ACCESS:     806264 HIT:     344555 MISS:     461709
LLC WRITE        ACCESS:    1794018 HIT:     865730 MISS:     928288
LLC TRANSLATION  ACCESS:      10435 HIT:        721 MISS:       9714
LLC PREFETCH REQUESTED:          0 ISSUED:          0 USEFUL:          0 USELESS:          0
LLC AVERAGE MISS LATENCY: 198.1 cycles
cpu0_DTLB TOTAL        ACCESS:   18621075 HIT:   17594562 MISS:    1026513
cpu0_DTLB LOAD         ACCESS:   18621075 HIT:   17594562 MISS:    1026513
cpu0_DTLB RFO          ACCESS:          0 HIT:          0 MISS:          0
cpu0_DTLB PREFETCH     ACCESS:          0 HIT:          0 MISS:          0
cpu0_DTLB WRITE        ACCESS:          0 HIT:          0 MISS:          0
cpu0_DTLB TRANSLATION  ACCESS:          0 HIT:          0 MISS:          0
cpu0_DTLB PREFETCH REQUESTED:          0 ISSUED:          0 USEFUL:          0 USELESS:          0
cpu0_DTLB AVERAGE MISS LATENCY: 7.815 cycles
cpu0_ITLB TOTAL        ACCESS:   14527700 HIT:   14508969 MISS:      18731
cpu0_ITLB LOAD         ACCESS:   14527700 HIT:   14508969 MISS:      18731
cpu0_ITLB RFO          ACCESS:          0 HIT:          0 MISS:          0
cpu0_ITLB PREFETCH     ACCESS:          0 HIT:          0 MISS:          0
cpu0_ITLB WRITE        ACCESS:          0 HIT:          0 MISS:          0
cpu0_ITLB TRANSLATION  ACCESS:          0 HIT:          0 MISS:          0
cpu0_ITLB PREFETCH REQUESTED:          0 ISSUED:          0 USEFUL:          0 USELESS:          0
cpu0_ITLB AVERAGE MISS LATENCY: 21.34 cycles
cpu0_L1D TOTAL        ACCESS:   34076987 HIT:   20921106 MISS:   13155881
cpu0_L1D LOAD         ACCESS:   13405357 HIT:   10552433 MISS:    2852924
cpu0_L1D RFO          ACCESS:          0 HIT:          0 MISS:          0
cpu0_L1D PREFETCH     ACCESS:    3623766 HIT:    1328917 MISS:    2294849
cpu0_L1D WRITE        ACCESS:   17016946 HIT:    9026736 MISS:    7990210
cpu0_L1D TRANSLATION  ACCESS:      30918 HIT:      13020 MISS:      17898
cpu0_L1D PREFETCH REQUESTED:    9222107 ISSUED:    3623766 USEFUL:     366981 USELESS:      57160
cpu0_L1D AVERAGE MISS LATENCY: 39.48 cycles
cpu0_L1I TOTAL        ACCESS:   21113534 HIT:   14745747 MISS:    6367787
cpu0_L1I LOAD         ACCESS:   11180140 HIT:    6304344 MISS:    4875796
cpu0_L1I RFO          ACCESS:          0 HIT:          0 MISS:          0
cpu0_L1I PREFETCH     ACCESS:    9933394 HIT:    8441403 MISS:    1491991
cpu0_L1I WRITE        ACCESS:          0 HIT:          0 MISS:          0
cpu0_L1I TRANSLATION  ACCESS:          0 HIT:          0 MISS:          0
cpu0_L1I PREFETCH REQUESTED:   32702123 ISSUED:    9933396 USEFUL:    1200339 USELESS:     132128
cpu0_L1I AVERAGE MISS LATENCY: 9.172 cycles
cpu0_L2C TOTAL        ACCESS:   17054739 HIT:   12321998 MISS:    4732741
cpu0_L2C LOAD         ACCESS:    4550164 HIT:    4005103 MISS:     545061
cpu0_L2C RFO          ACCESS:    1824229 HIT:     261812 MISS:    1562417
cpu0_L2C PREFETCH     ACCESS:    8476926 HIT:    5862129 MISS:    2614797
cpu0_L2C WRITE        ACCESS:    2185582 HIT:    2185551 MISS:         31
cpu0_L2C TRANSLATION  ACCESS:      17838 HIT:       7403 MISS:      10435
cpu0_L2C PREFETCH REQUESTED:    7691026 ISSUED:    5337854 USEFUL:      95356 USELESS:     180793
cpu0_L2C AVERAGE MISS LATENCY: 122.1 cycles
cpu0_STLB TOTAL        ACCESS:     500642 HIT:     471836 MISS:      28806
cpu0_STLB LOAD         ACCESS:     500642 HIT:     471836 MISS:      28806
cpu0_STLB RFO          ACCESS:          0 HIT:          0 MISS:          0
cpu0_STLB PREFETCH     ACCESS:          0 HIT:          0 MISS:          0
cpu0_STLB WRITE        ACCESS:          0 HIT:          0 MISS:          0
cpu0_STLB TRANSLATION  ACCESS:          0 HIT:          0 MISS:          0
cpu0_STLB PREFETCH REQUESTED:          0 ISSUED:          0 USEFUL:          0 USELESS:          0
cpu0_STLB AVERAGE MISS LATENCY: 221.7 cycles

DRAM Statistics

Channel 0 RQ ROW_BUFFER_HIT:     390798
  ROW_BUFFER_MISS:     483722
 AVG DBUS CONGESTED CYCLE: 3.947
WQ ROW_BUFFER_HIT: Channel 0 
  ROW_BUFFER_MISS:      61475
  FULL:     530144

Channel 1 RQ ROW_BUFFER_HIT:     393175
  ROW_BUFFER_MISS:     463194
 AVG DBUS CONGESTED CYCLE: 3.944
WQ ROW_BUFFER_HIT: Channel 1 
  ROW_BUFFER_MISS:      64974
  FULL:     514066
BERTI TO_L1: 3751377 TO_L2: 8464997 TO_L2_BC_MSHR: 4030735
BERTI AVG_LAT: 72.034 NUM_TRACK_LATENCY: 2131610 NUM_CANT_TRACK_LATENCY: 3
BERTI CROSS_PAGE 1572562 NO_CROSS_PAGE: 10643812
BERTI FOUND_BERTI: 3547384 NO_FOUND_BERTI: 15959786
BERTI AVERAGE_ISSUED: 4.89292
CPU 0 L1I Entangling prefetcher final stats
IP accesses: 5cd0 173400 134918 / 11295072
IP misses: 13dd 4f740 20424 / 4990728
IP hits: 0 0 0 / 0
IP late: 9d3d 274f40 8775 / 2108086
IP wrong: 585d 161740 4435 / 125896
miss rate: 0.441851
coverage: 0
coverage_late: 0.422401
accuracy: 0
accuracy_late: 0.943646
discarded: 0
evicts entangled j table: 0
evicts entangled k table: 358561
max bb size: 13
formats: 63998 0 250406 91161 35042 56047 0 
hist_lookups: 47259 132298 229638 306254 287328 249791 172023 141604 137054 129486 100598 65429 42544 22959 6395 0 495 819256 
hist_lookups_evict: 0.0171256 %
hist_lookups_shortlat: 28.344 %
bb_found_hist: 0 2482102 1148689 461675 210742 109703 73783 29182 6687 989 0 470 0 4515 0 0 0 0 0 0 0 0 0 0 0 0 0 0 0 0 0 0 0 0 0 0 0 0 0 0 0 0 0 0 0 0 0 0 0 0 0 0 0 0 0 0 0 0 0 0 0 0 0 0 
bb_found_summary: 8329222 4528537 1.83928
entangled_found_hist: 0 1288764 753069 2290005 544819 76485 26680 0 
entangled_found_summary: 12386698 4979822 2.48738
bb_ent_found_hist: 0 3783120 2393113 1096054 540088 182757 198453 82112 34271 2950 0 3002 0 19664 0 0 0 0 0 0 0 0 0 0 0 0 0 0 0 0 0 0 0 0 0 0 0 0 0 0 0 0 0 0 0 0 0 0 0 0 0 0 0 0 0 0 0 0 0 0 0 0 0 0 
bb_ent_found_summary: 17286519 8335584 2.07383
