WARNING: physical memory size is smaller than virtual memory size.

*** ChampSim Multicore Out-of-Order Simulator ***
Warmup Instructions: 30000000
Simulation Instructions: 100000000
Number of CPUs: 1
Page size: 4096

BTB:
Basic BTB sets: 1024 ways: 8
Indirect:
history lengths: 0 0 10 16 27 44 60 96 109 219 449 487 714 1313 2146 3881 
ITTAGE tables: 64768 bytes;Region table: 240 bytes;IUM: 384 bytes;Total Storage= 65392 bytes;
RAS:
RAS size: 64
[LLC] INSTR Demand IPV: 1 2 2 1 4 Prefetch IPV: 1 2 1 1 4
[LLC] DATA  Demand IPV: 1 1 1 2 4 Prefetch IPV: 1 1 2 2 4
Berti Prefetcher
CPU 0 Entangling prefetcher
Off-chip DRAM Size: 8 GiB Channels: 2 Width: 64-bit Data Race: 6400 MT/s
[DUEL] Epoch ended. INSTR misses = 93, DATA misses = 93. Winner = INSTR
[DUEL] Epoch ended. INSTR misses = 60, DATA misses = 61. Winner = INSTR
[DUEL] Epoch ended. INSTR misses = 50, DATA misses = 49. Winner = DATA
[DUEL] Epoch ended. INSTR misses = 40, DATA misses = 31. Winner = DATA
[DUEL] Epoch ended. INSTR misses = 65, DATA misses = 64. Winner = DATA
[DUEL] Epoch ended. INSTR misses = 46, DATA misses = 57. Winner = INSTR
[DUEL] Epoch ended. INSTR misses = 29, DATA misses = 25. Winner = DATA
[DUEL] Epoch ended. INSTR misses = 60, DATA misses = 60. Winner = INSTR
[DUEL] Epoch ended. INSTR misses = 57, DATA misses = 54. Winner = DATA
[DUEL] Epoch ended. INSTR misses = 102, DATA misses = 96. Winner = DATA
[DUEL] Epoch ended. INSTR misses = 55, DATA misses = 47. Winner = DATA
[DUEL] Epoch ended. INSTR misses = 65, DATA misses = 63. Winner = DATA
[DUEL] Epoch ended. INSTR misses = 75, DATA misses = 55. Winner = DATA
[DUEL] Epoch ended. INSTR misses = 111, DATA misses = 101. Winner = DATA
[DUEL] Epoch ended. INSTR misses = 30, DATA misses = 48. Winner = INSTR
[DUEL] Epoch ended. INSTR misses = 120, DATA misses = 123. Winner = INSTR
[DUEL] Epoch ended. INSTR misses = 45, DATA misses = 49. Winner = INSTR
[DUEL] Epoch ended. INSTR misses = 49, DATA misses = 57. Winner = INSTR
[DUEL] Epoch ended. INSTR misses = 24, DATA misses = 39. Winner = INSTR
Heartbeat CPU 0 instructions: 10000007 cycles: 2115042 heartbeat IPC: 4.728 cumulative IPC: 4.728 (Simulation time: 00 hr 00 min 30 sec)
[DUEL] Epoch ended. INSTR misses = 81, DATA misses = 83. Winner = INSTR
[DUEL] Epoch ended. INSTR misses = 85, DATA misses = 89. Winner = INSTR
[DUEL] Epoch ended. INSTR misses = 80, DATA misses = 89. Winner = INSTR
[DUEL] Epoch ended. INSTR misses = 27, DATA misses = 27. Winner = INSTR
[DUEL] Epoch ended. INSTR misses = 101, DATA misses = 104. Winner = INSTR
[DUEL] Epoch ended. INSTR misses = 80, DATA misses = 99. Winner = INSTR
[DUEL] Epoch ended. INSTR misses = 82, DATA misses = 83. Winner = INSTR
[DUEL] Epoch ended. INSTR misses = 70, DATA misses = 63. Winner = DATA
[DUEL] Epoch ended. INSTR misses = 57, DATA misses = 62. Winner = INSTR
[DUEL] Epoch ended. INSTR misses = 78, DATA misses = 67. Winner = DATA
[DUEL] Epoch ended. INSTR misses = 55, DATA misses = 60. Winner = INSTR
[DUEL] Epoch ended. INSTR misses = 39, DATA misses = 31. Winner = DATA
[DUEL] Epoch ended. INSTR misses = 104, DATA misses = 106. Winner = INSTR
[DUEL] Epoch ended. INSTR misses = 83, DATA misses = 81. Winner = DATA
[DUEL] Epoch ended. INSTR misses = 82, DATA misses = 93. Winner = INSTR
[DUEL] Epoch ended. INSTR misses = 38, DATA misses = 35. Winner = DATA
[DUEL] Epoch ended. INSTR misses = 98, DATA misses = 88. Winner = DATA
[DUEL] Epoch ended. INSTR misses = 65, DATA misses = 70. Winner = INSTR
[DUEL] Epoch ended. INSTR misses = 71, DATA misses = 64. Winner = DATA
[DUEL] Epoch ended. INSTR misses = 67, DATA misses = 80. Winner = INSTR
Heartbeat CPU 0 instructions: 20000001 cycles: 4204975 heartbeat IPC: 4.785 cumulative IPC: 4.756 (Simulation time: 00 hr 01 min 00 sec)
[DUEL] Epoch ended. INSTR misses = 73, DATA misses = 72. Winner = DATA
[DUEL] Epoch ended. INSTR misses = 60, DATA misses = 67. Winner = INSTR
[DUEL] Epoch ended. INSTR misses = 78, DATA misses = 62. Winner = DATA
[DUEL] Epoch ended. INSTR misses = 73, DATA misses = 84. Winner = INSTR
[DUEL] Epoch ended. INSTR misses = 101, DATA misses = 117. Winner = INSTR
[DUEL] Epoch ended. INSTR misses = 76, DATA misses = 66. Winner = DATA
[DUEL] Epoch ended. INSTR misses = 40, DATA misses = 52. Winner = INSTR
[DUEL] Epoch ended. INSTR misses = 68, DATA misses = 55. Winner = DATA
[DUEL] Epoch ended. INSTR misses = 64, DATA misses = 62. Winner = DATA
[DUEL] Epoch ended. INSTR misses = 63, DATA misses = 69. Winner = INSTR
[DUEL] Epoch ended. INSTR misses = 44, DATA misses = 51. Winner = INSTR
[DUEL] Epoch ended. INSTR misses = 99, DATA misses = 88. Winner = DATA
[DUEL] Epoch ended. INSTR misses = 92, DATA misses = 99. Winner = INSTR
[DUEL] Epoch ended. INSTR misses = 64, DATA misses = 77. Winner = INSTR
[DUEL] Epoch ended. INSTR misses = 42, DATA misses = 31. Winner = DATA
[DUEL] Epoch ended. INSTR misses = 104, DATA misses = 108. Winner = INSTR
[DUEL] Epoch ended. INSTR misses = 60, DATA misses = 54. Winner = DATA
[DUEL] Epoch ended. INSTR misses = 40, DATA misses = 55. Winner = INSTR
[DUEL] Epoch ended. INSTR misses = 58, DATA misses = 37. Winner = DATA
Heartbeat CPU 0 instructions: 30000008 cycles: 6316460 heartbeat IPC: 4.736 cumulative IPC: 4.749 (Simulation time: 00 hr 01 min 30 sec)
Warmup finished CPU 0 instructions: 30000008 cycles: 6316461 cumulative IPC: 4.749 (Simulation time: 00 hr 01 min 30 sec)
Warmup complete CPU 0 instructions: 30000008 cycles: 6316461 cumulative IPC: 4.749 (Simulation time: 00 hr 01 min 30 sec)
[DUEL] Epoch ended. INSTR misses = 78, DATA misses = 75. Winner = DATA
[DUEL] Epoch ended. INSTR misses = 72, DATA misses = 86. Winner = INSTR
[DUEL] Epoch ended. INSTR misses = 54, DATA misses = 47. Winner = DATA
[DUEL] Epoch ended. INSTR misses = 45, DATA misses = 45. Winner = INSTR
*** Reached end of trace: (0, "../traces/public_traces/srv/srv_75.champsimtrace.xz")
[DUEL] Epoch ended. INSTR misses = 31, DATA misses = 30. Winner = DATA
[DUEL] Epoch ended. INSTR misses = 53, DATA misses = 67. Winner = INSTR
[DUEL] Epoch ended. INSTR misses = 42, DATA misses = 38. Winner = DATA
[DUEL] Epoch ended. INSTR misses = 16, DATA misses = 12. Winner = DATA
[DUEL] Epoch ended. INSTR misses = 22, DATA misses = 27. Winner = INSTR
[DUEL] Epoch ended. INSTR misses = 54, DATA misses = 52. Winner = DATA
[DUEL] Epoch ended. INSTR misses = 66, DATA misses = 65. Winner = DATA
[DUEL] Epoch ended. INSTR misses = 5, DATA misses = 2. Winner = DATA
[DUEL] Epoch ended. INSTR misses = 56, DATA misses = 59. Winner = INSTR
[DUEL] Epoch ended. INSTR misses = 72, DATA misses = 53. Winner = DATA
[DUEL] Epoch ended. INSTR misses = 97, DATA misses = 99. Winner = INSTR
[DUEL] Epoch ended. INSTR misses = 49, DATA misses = 48. Winner = DATA
[DUEL] Epoch ended. INSTR misses = 63, DATA misses = 61. Winner = DATA
[DUEL] Epoch ended. INSTR misses = 66, DATA misses = 45. Winner = DATA
[DUEL] Epoch ended. INSTR misses = 109, DATA misses = 95. Winner = DATA
[DUEL] Epoch ended. INSTR misses = 78, DATA misses = 84. Winner = INSTR
Heartbeat CPU 0 instructions: 40000004 cycles: 12360831 heartbeat IPC: 1.654 cumulative IPC: 1.654 (Simulation time: 00 hr 02 min 28 sec)
[DUEL] Epoch ended. INSTR misses = 69, DATA misses = 84. Winner = INSTR
[DUEL] Epoch ended. INSTR misses = 39, DATA misses = 46. Winner = INSTR
[DUEL] Epoch ended. INSTR misses = 54, DATA misses = 58. Winner = INSTR
[DUEL] Epoch ended. INSTR misses = 49, DATA misses = 51. Winner = INSTR
[DUEL] Epoch ended. INSTR misses = 55, DATA misses = 66. Winner = INSTR
[DUEL] Epoch ended. INSTR misses = 83, DATA misses = 85. Winner = INSTR
[DUEL] Epoch ended. INSTR misses = 82, DATA misses = 88. Winner = INSTR
[DUEL] Epoch ended. INSTR misses = 56, DATA misses = 48. Winner = DATA
[DUEL] Epoch ended. INSTR misses = 74, DATA misses = 88. Winner = INSTR
[DUEL] Epoch ended. INSTR misses = 110, DATA misses = 132. Winner = INSTR
[DUEL] Epoch ended. INSTR misses = 104, DATA misses = 94. Winner = DATA
[DUEL] Epoch ended. INSTR misses = 24, DATA misses = 18. Winner = DATA
[DUEL] Epoch ended. INSTR misses = 47, DATA misses = 48. Winner = INSTR
[DUEL] Epoch ended. INSTR misses = 97, DATA misses = 88. Winner = DATA
[DUEL] Epoch ended. INSTR misses = 47, DATA misses = 48. Winner = INSTR
[DUEL] Epoch ended. INSTR misses = 30, DATA misses = 31. Winner = INSTR
[DUEL] Epoch ended. INSTR misses = 113, DATA misses = 122. Winner = INSTR
[DUEL] Epoch ended. INSTR misses = 82, DATA misses = 81. Winner = DATA
[DUEL] Epoch ended. INSTR misses = 76, DATA misses = 85. Winner = INSTR
Heartbeat CPU 0 instructions: 50000002 cycles: 18348727 heartbeat IPC: 1.67 cumulative IPC: 1.662 (Simulation time: 00 hr 03 min 26 sec)
[DUEL] Epoch ended. INSTR misses = 33, DATA misses = 25. Winner = DATA
[DUEL] Epoch ended. INSTR misses = 102, DATA misses = 90. Winner = DATA
[DUEL] Epoch ended. INSTR misses = 73, DATA misses = 71. Winner = DATA
[DUEL] Epoch ended. INSTR misses = 78, DATA misses = 80. Winner = INSTR
[DUEL] Epoch ended. INSTR misses = 57, DATA misses = 65. Winner = INSTR
[DUEL] Epoch ended. INSTR misses = 80, DATA misses = 77. Winner = DATA
[DUEL] Epoch ended. INSTR misses = 78, DATA misses = 82. Winner = INSTR
[DUEL] Epoch ended. INSTR misses = 56, DATA misses = 49. Winner = DATA
[DUEL] Epoch ended. INSTR misses = 72, DATA misses = 80. Winner = INSTR
[DUEL] Epoch ended. INSTR misses = 109, DATA misses = 120. Winner = INSTR
[DUEL] Epoch ended. INSTR misses = 75, DATA misses = 62. Winner = DATA
[DUEL] Epoch ended. INSTR misses = 65, DATA misses = 71. Winner = INSTR
[DUEL] Epoch ended. INSTR misses = 39, DATA misses = 39. Winner = INSTR
[DUEL] Epoch ended. INSTR misses = 63, DATA misses = 61. Winner = DATA
[DUEL] Epoch ended. INSTR misses = 84, DATA misses = 94. Winner = INSTR
[DUEL] Epoch ended. INSTR misses = 78, DATA misses = 64. Winner = DATA
[DUEL] Epoch ended. INSTR misses = 58, DATA misses = 51. Winner = DATA
[DUEL] Epoch ended. INSTR misses = 93, DATA misses = 107. Winner = INSTR
[DUEL] Epoch ended. INSTR misses = 90, DATA misses = 90. Winner = INSTR
[DUEL] Epoch ended. INSTR misses = 31, DATA misses = 38. Winner = INSTR
Heartbeat CPU 0 instructions: 60000000 cycles: 24274554 heartbeat IPC: 1.688 cumulative IPC: 1.671 (Simulation time: 00 hr 04 min 23 sec)
[DUEL] Epoch ended. INSTR misses = 87, DATA misses = 83. Winner = DATA
[DUEL] Epoch ended. INSTR misses = 60, DATA misses = 56. Winner = DATA
[DUEL] Epoch ended. INSTR misses = 50, DATA misses = 59. Winner = INSTR
[DUEL] Epoch ended. INSTR misses = 68, DATA misses = 61. Winner = DATA
[DUEL] Epoch ended. INSTR misses = 62, DATA misses = 50. Winner = DATA
[DUEL] Epoch ended. INSTR misses = 79, DATA misses = 94. Winner = INSTR
[DUEL] Epoch ended. INSTR misses = 44, DATA misses = 38. Winner = DATA
[DUEL] Epoch ended. INSTR misses = 45, DATA misses = 45. Winner = INSTR
*** Reached end of trace: (0, "../traces/public_traces/srv/srv_75.champsimtrace.xz")
[DUEL] Epoch ended. INSTR misses = 54, DATA misses = 56. Winner = INSTR
[DUEL] Epoch ended. INSTR misses = 33, DATA misses = 40. Winner = INSTR
[DUEL] Epoch ended. INSTR misses = 40, DATA misses = 40. Winner = INSTR
[DUEL] Epoch ended. INSTR misses = 14, DATA misses = 11. Winner = DATA
[DUEL] Epoch ended. INSTR misses = 28, DATA misses = 29. Winner = INSTR
[DUEL] Epoch ended. INSTR misses = 50, DATA misses = 52. Winner = INSTR
[DUEL] Epoch ended. INSTR misses = 63, DATA misses = 62. Winner = DATA
[DUEL] Epoch ended. INSTR misses = 37, DATA misses = 32. Winner = DATA
[DUEL] Epoch ended. INSTR misses = 28, DATA misses = 27. Winner = DATA
[DUEL] Epoch ended. INSTR misses = 62, DATA misses = 52. Winner = DATA
[DUEL] Epoch ended. INSTR misses = 114, DATA misses = 114. Winner = INSTR
Heartbeat CPU 0 instructions: 70000000 cycles: 30253810 heartbeat IPC: 1.672 cumulative IPC: 1.671 (Simulation time: 00 hr 05 min 21 sec)
[DUEL] Epoch ended. INSTR misses = 64, DATA misses = 65. Winner = INSTR
[DUEL] Epoch ended. INSTR misses = 54, DATA misses = 43. Winner = DATA
[DUEL] Epoch ended. INSTR misses = 44, DATA misses = 31. Winner = DATA
[DUEL] Epoch ended. INSTR misses = 110, DATA misses = 95. Winner = DATA
[DUEL] Epoch ended. INSTR misses = 96, DATA misses = 101. Winner = INSTR
[DUEL] Epoch ended. INSTR misses = 53, DATA misses = 66. Winner = INSTR
[DUEL] Epoch ended. INSTR misses = 39, DATA misses = 44. Winner = INSTR
[DUEL] Epoch ended. INSTR misses = 72, DATA misses = 77. Winner = INSTR
[DUEL] Epoch ended. INSTR misses = 58, DATA misses = 51. Winner = DATA
[DUEL] Epoch ended. INSTR misses = 48, DATA misses = 66. Winner = INSTR
[DUEL] Epoch ended. INSTR misses = 63, DATA misses = 65. Winner = INSTR
[DUEL] Epoch ended. INSTR misses = 98, DATA misses = 106. Winner = INSTR
[DUEL] Epoch ended. INSTR misses = 56, DATA misses = 50. Winner = DATA
[DUEL] Epoch ended. INSTR misses = 59, DATA misses = 67. Winner = INSTR
[DUEL] Epoch ended. INSTR misses = 109, DATA misses = 134. Winner = INSTR
[DUEL] Epoch ended. INSTR misses = 109, DATA misses = 96. Winner = DATA
[DUEL] Epoch ended. INSTR misses = 45, DATA misses = 43. Winner = DATA
[DUEL] Epoch ended. INSTR misses = 21, DATA misses = 22. Winner = INSTR
[DUEL] Epoch ended. INSTR misses = 96, DATA misses = 85. Winner = DATA
[DUEL] Epoch ended. INSTR misses = 51, DATA misses = 53. Winner = INSTR
Heartbeat CPU 0 instructions: 80000006 cycles: 36169941 heartbeat IPC: 1.69 cumulative IPC: 1.675 (Simulation time: 00 hr 06 min 18 sec)
[DUEL] Epoch ended. INSTR misses = 29, DATA misses = 24. Winner = DATA
[DUEL] Epoch ended. INSTR misses = 113, DATA misses = 120. Winner = INSTR
[DUEL] Epoch ended. INSTR misses = 101, DATA misses = 92. Winner = DATA
[DUEL] Epoch ended. INSTR misses = 79, DATA misses = 89. Winner = INSTR
[DUEL] Epoch ended. INSTR misses = 48, DATA misses = 40. Winner = DATA
[DUEL] Epoch ended. INSTR misses = 67, DATA misses = 56. Winner = DATA
[DUEL] Epoch ended. INSTR misses = 87, DATA misses = 86. Winner = DATA
[DUEL] Epoch ended. INSTR misses = 61, DATA misses = 64. Winner = INSTR
[DUEL] Epoch ended. INSTR misses = 59, DATA misses = 65. Winner = INSTR
[DUEL] Epoch ended. INSTR misses = 79, DATA misses = 77. Winner = DATA
[DUEL] Epoch ended. INSTR misses = 99, DATA misses = 93. Winner = DATA
[DUEL] Epoch ended. INSTR misses = 57, DATA misses = 68. Winner = INSTR
[DUEL] Epoch ended. INSTR misses = 51, DATA misses = 50. Winner = DATA
[DUEL] Epoch ended. INSTR misses = 107, DATA misses = 117. Winner = INSTR
[DUEL] Epoch ended. INSTR misses = 92, DATA misses = 89. Winner = DATA
[DUEL] Epoch ended. INSTR misses = 49, DATA misses = 44. Winner = DATA
[DUEL] Epoch ended. INSTR misses = 37, DATA misses = 39. Winner = INSTR
[DUEL] Epoch ended. INSTR misses = 64, DATA misses = 63. Winner = DATA
[DUEL] Epoch ended. INSTR misses = 103, DATA misses = 107. Winner = INSTR
Heartbeat CPU 0 instructions: 90000010 cycles: 42035248 heartbeat IPC: 1.705 cumulative IPC: 1.68 (Simulation time: 00 hr 07 min 15 sec)
[DUEL] Epoch ended. INSTR misses = 66, DATA misses = 53. Winner = DATA
[DUEL] Epoch ended. INSTR misses = 49, DATA misses = 46. Winner = DATA
[DUEL] Epoch ended. INSTR misses = 94, DATA misses = 107. Winner = INSTR
[DUEL] Epoch ended. INSTR misses = 91, DATA misses = 92. Winner = INSTR
[DUEL] Epoch ended. INSTR misses = 35, DATA misses = 44. Winner = INSTR
[DUEL] Epoch ended. INSTR misses = 80, DATA misses = 75. Winner = DATA
[DUEL] Epoch ended. INSTR misses = 65, DATA misses = 64. Winner = DATA
[DUEL] Epoch ended. INSTR misses = 66, DATA misses = 70. Winner = INSTR
[DUEL] Epoch ended. INSTR misses = 70, DATA misses = 57. Winner = DATA
[DUEL] Epoch ended. INSTR misses = 38, DATA misses = 36. Winner = DATA
[DUEL] Epoch ended. INSTR misses = 90, DATA misses = 99. Winner = INSTR
[DUEL] Epoch ended. INSTR misses = 77, DATA misses = 66. Winner = DATA
[DUEL] Epoch ended. INSTR misses = 19, DATA misses = 24. Winner = INSTR
*** Reached end of trace: (0, "../traces/public_traces/srv/srv_75.champsimtrace.xz")
[DUEL] Epoch ended. INSTR misses = 38, DATA misses = 39. Winner = INSTR
[DUEL] Epoch ended. INSTR misses = 33, DATA misses = 41. Winner = INSTR
[DUEL] Epoch ended. INSTR misses = 45, DATA misses = 40. Winner = DATA
[DUEL] Epoch ended. INSTR misses = 29, DATA misses = 30. Winner = INSTR
[DUEL] Epoch ended. INSTR misses = 32, DATA misses = 27. Winner = DATA
[DUEL] Epoch ended. INSTR misses = 31, DATA misses = 35. Winner = INSTR
[DUEL] Epoch ended. INSTR misses = 64, DATA misses = 61. Winner = DATA
Heartbeat CPU 0 instructions: 100000007 cycles: 48069084 heartbeat IPC: 1.657 cumulative IPC: 1.677 (Simulation time: 00 hr 08 min 13 sec)
[DUEL] Epoch ended. INSTR misses = 38, DATA misses = 33. Winner = DATA
[DUEL] Epoch ended. INSTR misses = 37, DATA misses = 38. Winner = INSTR
[DUEL] Epoch ended. INSTR misses = 47, DATA misses = 41. Winner = DATA
[DUEL] Epoch ended. INSTR misses = 119, DATA misses = 114. Winner = DATA
[DUEL] Epoch ended. INSTR misses = 68, DATA misses = 66. Winner = DATA
[DUEL] Epoch ended. INSTR misses = 47, DATA misses = 42. Winner = DATA
[DUEL] Epoch ended. INSTR misses = 44, DATA misses = 31. Winner = DATA
[DUEL] Epoch ended. INSTR misses = 112, DATA misses = 94. Winner = DATA
[DUEL] Epoch ended. INSTR misses = 97, DATA misses = 104. Winner = INSTR
[DUEL] Epoch ended. INSTR misses = 59, DATA misses = 74. Winner = INSTR
[DUEL] Epoch ended. INSTR misses = 31, DATA misses = 32. Winner = INSTR
[DUEL] Epoch ended. INSTR misses = 74, DATA misses = 77. Winner = INSTR
[DUEL] Epoch ended. INSTR misses = 72, DATA misses = 83. Winner = INSTR
[DUEL] Epoch ended. INSTR misses = 31, DATA misses = 38. Winner = INSTR
[DUEL] Epoch ended. INSTR misses = 63, DATA misses = 63. Winner = INSTR
[DUEL] Epoch ended. INSTR misses = 99, DATA misses = 104. Winner = INSTR
[DUEL] Epoch ended. INSTR misses = 76, DATA misses = 71. Winner = DATA
[DUEL] Epoch ended. INSTR misses = 36, DATA misses = 46. Winner = INSTR
[DUEL] Epoch ended. INSTR misses = 110, DATA misses = 134. Winner = INSTR
Heartbeat CPU 0 instructions: 110000005 cycles: 53906481 heartbeat IPC: 1.713 cumulative IPC: 1.681 (Simulation time: 00 hr 09 min 09 sec)
[DUEL] Epoch ended. INSTR misses = 112, DATA misses = 95. Winner = DATA
[DUEL] Epoch ended. INSTR misses = 43, DATA misses = 40. Winner = DATA
[DUEL] Epoch ended. INSTR misses = 21, DATA misses = 22. Winner = INSTR
[DUEL] Epoch ended. INSTR misses = 95, DATA misses = 85. Winner = DATA
[DUEL] Epoch ended. INSTR misses = 68, DATA misses = 74. Winner = INSTR
[DUEL] Epoch ended. INSTR misses = 32, DATA misses = 19. Winner = DATA
[DUEL] Epoch ended. INSTR misses = 93, DATA misses = 104. Winner = INSTR
[DUEL] Epoch ended. INSTR misses = 99, DATA misses = 88. Winner = DATA
[DUEL] Epoch ended. INSTR misses = 80, DATA misses = 88. Winner = INSTR
[DUEL] Epoch ended. INSTR misses = 47, DATA misses = 40. Winner = DATA
[DUEL] Epoch ended. INSTR misses = 71, DATA misses = 57. Winner = DATA
[DUEL] Epoch ended. INSTR misses = 86, DATA misses = 88. Winner = INSTR
[DUEL] Epoch ended. INSTR misses = 93, DATA misses = 95. Winner = INSTR
[DUEL] Epoch ended. INSTR misses = 35, DATA misses = 35. Winner = INSTR
[DUEL] Epoch ended. INSTR misses = 70, DATA misses = 77. Winner = INSTR
[DUEL] Epoch ended. INSTR misses = 99, DATA misses = 96. Winner = DATA
[DUEL] Epoch ended. INSTR misses = 81, DATA misses = 86. Winner = INSTR
[DUEL] Epoch ended. INSTR misses = 53, DATA misses = 54. Winner = INSTR
[DUEL] Epoch ended. INSTR misses = 83, DATA misses = 92. Winner = INSTR
[DUEL] Epoch ended. INSTR misses = 91, DATA misses = 89. Winner = DATA
Heartbeat CPU 0 instructions: 120000009 cycles: 59808698 heartbeat IPC: 1.694 cumulative IPC: 1.682 (Simulation time: 00 hr 10 min 07 sec)
[DUEL] Epoch ended. INSTR misses = 79, DATA misses = 75. Winner = DATA
[DUEL] Epoch ended. INSTR misses = 9, DATA misses = 8. Winner = DATA
[DUEL] Epoch ended. INSTR misses = 62, DATA misses = 63. Winner = INSTR
[DUEL] Epoch ended. INSTR misses = 103, DATA misses = 107. Winner = INSTR
[DUEL] Epoch ended. INSTR misses = 66, DATA misses = 53. Winner = DATA
[DUEL] Epoch ended. INSTR misses = 73, DATA misses = 71. Winner = DATA
[DUEL] Epoch ended. INSTR misses = 73, DATA misses = 87. Winner = INSTR
[DUEL] Epoch ended. INSTR misses = 92, DATA misses = 86. Winner = DATA
[DUEL] Epoch ended. INSTR misses = 72, DATA misses = 74. Winner = INSTR
[DUEL] Epoch ended. INSTR misses = 48, DATA misses = 48. Winner = INSTR
[DUEL] Epoch ended. INSTR misses = 56, DATA misses = 62. Winner = INSTR
[DUEL] Epoch ended. INSTR misses = 86, DATA misses = 85. Winner = DATA
[DUEL] Epoch ended. INSTR misses = 68, DATA misses = 60. Winner = DATA
[DUEL] Epoch ended. INSTR misses = 20, DATA misses = 18. Winner = DATA
[DUEL] Epoch ended. INSTR misses = 90, DATA misses = 98. Winner = INSTR
[DUEL] Epoch ended. INSTR misses = 78, DATA misses = 72. Winner = DATA
[DUEL] Epoch ended. INSTR misses = 20, DATA misses = 26. Winner = INSTR
*** Reached end of trace: (0, "../traces/public_traces/srv/srv_75.champsimtrace.xz")
[DUEL] Epoch ended. INSTR misses = 49, DATA misses = 47. Winner = DATA
[DUEL] Epoch ended. INSTR misses = 21, DATA misses = 32. Winner = INSTR
Heartbeat CPU 0 instructions: 130000006 cycles: 65815745 heartbeat IPC: 1.665 cumulative IPC: 1.681 (Simulation time: 00 hr 11 min 04 sec)
Simulation finished CPU 0 instructions: 100000010 cycles: 59499286 cumulative IPC: 1.681 (Simulation time: 00 hr 11 min 04 sec)
Simulation complete CPU 0 instructions: 100000010 cycles: 59499286 cumulative IPC: 1.681 (Simulation time: 00 hr 11 min 04 sec)

ChampSim completed all CPUs

=== Simulation ===
CPU 0 runs ../traces/public_traces/srv/srv_75.champsimtrace.xz
Region of Interest Statistics

CPU 0 cumulative IPC: 1.681 instructions: 100000010 cycles: 59499286
CPU 0 Branch Prediction Accuracy: 99.88% MPKI: 0.1907 Average ROB Occupancy at Mispredict: 209.9
Branch type MPKI
BRANCH_DIRECT_JUMP: 6e-05
BRANCH_INDIRECT: 0.145
BRANCH_CONDITIONAL: 0.0444
BRANCH_DIRECT_CALL: 0
BRANCH_INDIRECT_CALL: 0
BRANCH_RETURN: 0.0015

LLC TOTAL        ACCESS:    4701142 HIT:    1956517 MISS:    2744625
LLC LOAD         ACCESS:     483479 HIT:     357089 MISS:     126390
LLC RFO          ACCESS:    1583777 HIT:     422201 MISS:    1161576
LLC PREFETCH     ACCESS:     811823 HIT:     305580 MISS:     506243
LLC WRITE        ACCESS:    1813307 HIT:     870949 MISS:     942358
LLC TRANSLATION  ACCESS:       8756 HIT:        698 MISS:       8058
LLC PREFETCH REQUESTED:          0 ISSUED:          0 USEFUL:          0 USELESS:          0
LLC AVERAGE MISS LATENCY: 202.7 cycles
cpu0_DTLB TOTAL        ACCESS:   18641406 HIT:   17608229 MISS:    1033177
cpu0_DTLB LOAD         ACCESS:   18641406 HIT:   17608229 MISS:    1033177
cpu0_DTLB RFO          ACCESS:          0 HIT:          0 MISS:          0
cpu0_DTLB PREFETCH     ACCESS:          0 HIT:          0 MISS:          0
cpu0_DTLB WRITE        ACCESS:          0 HIT:          0 MISS:          0
cpu0_DTLB TRANSLATION  ACCESS:          0 HIT:          0 MISS:          0
cpu0_DTLB PREFETCH REQUESTED:          0 ISSUED:          0 USEFUL:          0 USELESS:          0
cpu0_DTLB AVERAGE MISS LATENCY: 7.25 cycles
cpu0_ITLB TOTAL        ACCESS:   14659931 HIT:   14640116 MISS:      19815
cpu0_ITLB LOAD         ACCESS:   14659931 HIT:   14640116 MISS:      19815
cpu0_ITLB RFO          ACCESS:          0 HIT:          0 MISS:          0
cpu0_ITLB PREFETCH     ACCESS:          0 HIT:          0 MISS:          0
cpu0_ITLB WRITE        ACCESS:          0 HIT:          0 MISS:          0
cpu0_ITLB TRANSLATION  ACCESS:          0 HIT:          0 MISS:          0
cpu0_ITLB PREFETCH REQUESTED:          0 ISSUED:          0 USEFUL:          0 USELESS:          0
cpu0_ITLB AVERAGE MISS LATENCY: 19.2 cycles
cpu0_L1D TOTAL        ACCESS:   34050316 HIT:   20607931 MISS:   13442385
cpu0_L1D LOAD         ACCESS:   13325242 HIT:   10397806 MISS:    2927436
cpu0_L1D RFO          ACCESS:          0 HIT:          0 MISS:          0
cpu0_L1D PREFETCH     ACCESS:    3617776 HIT:    1192237 MISS:    2425539
cpu0_L1D WRITE        ACCESS:   17078115 HIT:    9004828 MISS:    8073287
cpu0_L1D TRANSLATION  ACCESS:      29183 HIT:      13060 MISS:      16123
cpu0_L1D PREFETCH REQUESTED:    9411149 ISSUED:    3617776 USEFUL:     355351 USELESS:      55052
cpu0_L1D AVERAGE MISS LATENCY: 39.73 cycles
cpu0_L1I TOTAL        ACCESS:   21315171 HIT:   14998804 MISS:    6316367
cpu0_L1I LOAD         ACCESS:   11167016 HIT:    6383090 MISS:    4783926
cpu0_L1I RFO          ACCESS:          0 HIT:          0 MISS:          0
cpu0_L1I PREFETCH     ACCESS:   10148155 HIT:    8615714 MISS:    1532441
cpu0_L1I WRITE        ACCESS:          0 HIT:          0 MISS:          0
cpu0_L1I TRANSLATION  ACCESS:          0 HIT:          0 MISS:          0
cpu0_L1I PREFETCH REQUESTED:   33004680 ISSUED:   10148153 USEFUL:    1223145 USELESS:     139948
cpu0_L1I AVERAGE MISS LATENCY: 9.323 cycles
cpu0_L2C TOTAL        ACCESS:   17293626 HIT:   12376733 MISS:    4916893
cpu0_L2C LOAD         ACCESS:    4489756 HIT:    3940888 MISS:     548868
cpu0_L2C RFO          ACCESS:    1843469 HIT:     259361 MISS:    1584108
cpu0_L2C PREFETCH     ACCESS:    8739577 HIT:    5964417 MISS:    2775160
cpu0_L2C WRITE        ACCESS:    2204757 HIT:    2204756 MISS:          1
cpu0_L2C TRANSLATION  ACCESS:      16067 HIT:       7311 MISS:       8756
cpu0_L2C PREFETCH REQUESTED:    7752011 ISSUED:    5480037 USEFUL:      98674 USELESS:     180950
cpu0_L2C AVERAGE MISS LATENCY: 123.1 cycles
cpu0_STLB TOTAL        ACCESS:     506165 HIT:     478388 MISS:      27777
cpu0_STLB LOAD         ACCESS:     506165 HIT:     478388 MISS:      27777
cpu0_STLB RFO          ACCESS:          0 HIT:          0 MISS:          0
cpu0_STLB PREFETCH     ACCESS:          0 HIT:          0 MISS:          0
cpu0_STLB WRITE        ACCESS:          0 HIT:          0 MISS:          0
cpu0_STLB TRANSLATION  ACCESS:          0 HIT:          0 MISS:          0
cpu0_STLB PREFETCH REQUESTED:          0 ISSUED:          0 USEFUL:          0 USELESS:          0
cpu0_STLB AVERAGE MISS LATENCY: 207.2 cycles

DRAM Statistics

Channel 0 RQ ROW_BUFFER_HIT:     404127
  ROW_BUFFER_MISS:     506203
 AVG DBUS CONGESTED CYCLE: 3.951
WQ ROW_BUFFER_HIT: Channel 0 
  ROW_BUFFER_MISS:      60118
  FULL:     543612

Channel 1 RQ ROW_BUFFER_HIT:     406914
  ROW_BUFFER_MISS:     484935
 AVG DBUS CONGESTED CYCLE: 3.945
WQ ROW_BUFFER_HIT: Channel 1 
  ROW_BUFFER_MISS:      63392
  FULL:     523897
BERTI TO_L1: 3564005 TO_L2: 8817081 TO_L2_BC_MSHR: 4210819
BERTI AVG_LAT: 77.0885 NUM_TRACK_LATENCY: 2139100 NUM_CANT_TRACK_LATENCY: 3
BERTI CROSS_PAGE 1601635 NO_CROSS_PAGE: 10779451
BERTI FOUND_BERTI: 3602009 NO_FOUND_BERTI: 15872380
BERTI AVERAGE_ISSUED: 4.90715
CPU 0 L1I Entangling prefetcher final stats
IP accesses: 5cd0 173400 137061 / 11268858
IP misses: 13dd 4f740 20174 / 4885768
IP hits: 0 0 0 / 0
IP late: 9d3d 274f40 8629 / 2085421
IP wrong: 55ff 157fc0 7399 / 134449
miss rate: 0.433564
coverage: 0
coverage_late: 0.426836
accuracy: 0
accuracy_late: 0.939434
discarded: 0
evicts entangled j table: 0
evicts entangled k table: 359799
max bb size: 13
formats: 64662 0 253924 90772 34051 52439 0 
hist_lookups: 42996 128531 228042 290056 281228 253330 181376 142814 137238 128667 102218 69045 43187 23313 6558 0 720 811009 
hist_lookups_evict: 0.0250843 %
hist_lookups_shortlat: 28.255 %
bb_found_hist: 0 2392469 1185097 434153 243046 111741 93895 24971 4721 459 0 605 0 4454 0 0 0 0 0 0 0 0 0 0 0 0 0 0 0 0 0 0 0 0 0 0 0 0 0 0 0 0 0 0 0 0 0 0 0 0 0 0 0 0 0 0 0 0 0 0 0 0 0 0 
bb_found_summary: 8440634 4495611 1.87753
entangled_found_hist: 0 1194882 737343 2290283 615139 66788 29692 0 
entangled_found_summary: 12513065 4934127 2.53603
bb_ent_found_hist: 0 3828835 2500108 1030640 557692 187315 245726 55193 17931 2408 0 3019 0 16324 0 0 0 0 0 0 0 0 0 0 0 0 0 0 0 0 0 0 0 0 0 0 0 0 0 0 0 0 0 0 0 0 0 0 0 0 0 0 0 0 0 0 0 0 0 0 0 0 0 0 
bb_ent_found_summary: 17359562 8445191 2.05556
