WARNING: physical memory size is smaller than virtual memory size.

*** ChampSim Multicore Out-of-Order Simulator ***
Warmup Instructions: 30000000
Simulation Instructions: 100000000
Number of CPUs: 1
Page size: 4096

BTB:
Basic BTB sets: 1024 ways: 8
Indirect:
history lengths: 0 0 10 16 27 44 60 96 109 219 449 487 714 1313 2146 3881 
ITTAGE tables: 64768 bytes;Region table: 240 bytes;IUM: 384 bytes;Total Storage= 65392 bytes;
RAS:
RAS size: 64
[LLC] INSTR Demand IPV: 1 2 2 1 4 Prefetch IPV: 1 2 1 1 4
[LLC] DATA  Demand IPV: 1 1 1 2 4 Prefetch IPV: 1 1 2 2 4
Berti Prefetcher
CPU 0 Entangling prefetcher
Off-chip DRAM Size: 8 GiB Channels: 2 Width: 64-bit Data Race: 6400 MT/s
[DUEL] Epoch ended. INSTR misses = 105, DATA misses = 102. Winner = DATA
[DUEL] Epoch ended. INSTR misses = 69, DATA misses = 65. Winner = DATA
[DUEL] Epoch ended. INSTR misses = 59, DATA misses = 54. Winner = DATA
[DUEL] Epoch ended. INSTR misses = 48, DATA misses = 51. Winner = INSTR
[DUEL] Epoch ended. INSTR misses = 59, DATA misses = 62. Winner = INSTR
[DUEL] Epoch ended. INSTR misses = 56, DATA misses = 40. Winner = DATA
[DUEL] Epoch ended. INSTR misses = 64, DATA misses = 64. Winner = INSTR
[DUEL] Epoch ended. INSTR misses = 65, DATA misses = 60. Winner = DATA
[DUEL] Epoch ended. INSTR misses = 67, DATA misses = 69. Winner = INSTR
[DUEL] Epoch ended. INSTR misses = 58, DATA misses = 53. Winner = DATA
[DUEL] Epoch ended. INSTR misses = 68, DATA misses = 67. Winner = DATA
[DUEL] Epoch ended. INSTR misses = 67, DATA misses = 57. Winner = DATA
[DUEL] Epoch ended. INSTR misses = 62, DATA misses = 74. Winner = INSTR
[DUEL] Epoch ended. INSTR misses = 71, DATA misses = 52. Winner = DATA
[DUEL] Epoch ended. INSTR misses = 74, DATA misses = 69. Winner = DATA
[DUEL] Epoch ended. INSTR misses = 57, DATA misses = 60. Winner = INSTR
[DUEL] Epoch ended. INSTR misses = 52, DATA misses = 49. Winner = DATA
[DUEL] Epoch ended. INSTR misses = 57, DATA misses = 39. Winner = DATA
[DUEL] Epoch ended. INSTR misses = 80, DATA misses = 80. Winner = INSTR
Heartbeat CPU 0 instructions: 10000002 cycles: 2108793 heartbeat IPC: 4.742 cumulative IPC: 4.742 (Simulation time: 00 hr 00 min 30 sec)
[DUEL] Epoch ended. INSTR misses = 70, DATA misses = 85. Winner = INSTR
[DUEL] Epoch ended. INSTR misses = 61, DATA misses = 56. Winner = DATA
[DUEL] Epoch ended. INSTR misses = 86, DATA misses = 86. Winner = INSTR
[DUEL] Epoch ended. INSTR misses = 86, DATA misses = 64. Winner = DATA
[DUEL] Epoch ended. INSTR misses = 94, DATA misses = 85. Winner = DATA
[DUEL] Epoch ended. INSTR misses = 60, DATA misses = 67. Winner = INSTR
[DUEL] Epoch ended. INSTR misses = 5, DATA misses = 0. Winner = DATA
[DUEL] Epoch ended. INSTR misses = 113, DATA misses = 86. Winner = DATA
[DUEL] Epoch ended. INSTR misses = 75, DATA misses = 84. Winner = INSTR
[DUEL] Epoch ended. INSTR misses = 52, DATA misses = 58. Winner = INSTR
[DUEL] Epoch ended. INSTR misses = 36, DATA misses = 23. Winner = DATA
[DUEL] Epoch ended. INSTR misses = 52, DATA misses = 53. Winner = INSTR
[DUEL] Epoch ended. INSTR misses = 71, DATA misses = 66. Winner = DATA
[DUEL] Epoch ended. INSTR misses = 48, DATA misses = 49. Winner = INSTR
[DUEL] Epoch ended. INSTR misses = 63, DATA misses = 68. Winner = INSTR
[DUEL] Epoch ended. INSTR misses = 137, DATA misses = 126. Winner = DATA
[DUEL] Epoch ended. INSTR misses = 68, DATA misses = 71. Winner = INSTR
[DUEL] Epoch ended. INSTR misses = 34, DATA misses = 17. Winner = DATA
[DUEL] Epoch ended. INSTR misses = 44, DATA misses = 46. Winner = INSTR
[DUEL] Epoch ended. INSTR misses = 77, DATA misses = 68. Winner = DATA
Heartbeat CPU 0 instructions: 20000007 cycles: 4211066 heartbeat IPC: 4.757 cumulative IPC: 4.749 (Simulation time: 00 hr 01 min 00 sec)
[DUEL] Epoch ended. INSTR misses = 68, DATA misses = 70. Winner = INSTR
[DUEL] Epoch ended. INSTR misses = 48, DATA misses = 53. Winner = INSTR
[DUEL] Epoch ended. INSTR misses = 10, DATA misses = 13. Winner = INSTR
[DUEL] Epoch ended. INSTR misses = 72, DATA misses = 54. Winner = DATA
[DUEL] Epoch ended. INSTR misses = 146, DATA misses = 159. Winner = INSTR
[DUEL] Epoch ended. INSTR misses = 43, DATA misses = 39. Winner = DATA
[DUEL] Epoch ended. INSTR misses = 49, DATA misses = 42. Winner = DATA
[DUEL] Epoch ended. INSTR misses = 109, DATA misses = 110. Winner = INSTR
[DUEL] Epoch ended. INSTR misses = 81, DATA misses = 81. Winner = INSTR
[DUEL] Epoch ended. INSTR misses = 22, DATA misses = 3. Winner = DATA
[DUEL] Epoch ended. INSTR misses = 62, DATA misses = 64. Winner = INSTR
[DUEL] Epoch ended. INSTR misses = 98, DATA misses = 97. Winner = DATA
[DUEL] Epoch ended. INSTR misses = 35, DATA misses = 36. Winner = INSTR
[DUEL] Epoch ended. INSTR misses = 50, DATA misses = 32. Winner = DATA
[DUEL] Epoch ended. INSTR misses = 103, DATA misses = 104. Winner = INSTR
[DUEL] Epoch ended. INSTR misses = 82, DATA misses = 89. Winner = INSTR
[DUEL] Epoch ended. INSTR misses = 101, DATA misses = 80. Winner = DATA
[DUEL] Epoch ended. INSTR misses = 41, DATA misses = 41. Winner = INSTR
[DUEL] Epoch ended. INSTR misses = 110, DATA misses = 107. Winner = DATA
Heartbeat CPU 0 instructions: 30000001 cycles: 6306096 heartbeat IPC: 4.773 cumulative IPC: 4.757 (Simulation time: 00 hr 01 min 29 sec)
Warmup finished CPU 0 instructions: 30000001 cycles: 6306097 cumulative IPC: 4.757 (Simulation time: 00 hr 01 min 29 sec)
Warmup complete CPU 0 instructions: 30000001 cycles: 6306097 cumulative IPC: 4.757 (Simulation time: 00 hr 01 min 29 sec)
[DUEL] Epoch ended. INSTR misses = 70, DATA misses = 55. Winner = DATA
[DUEL] Epoch ended. INSTR misses = 45, DATA misses = 50. Winner = INSTR
[DUEL] Epoch ended. INSTR misses = 109, DATA misses = 95. Winner = DATA
[DUEL] Epoch ended. INSTR misses = 85, DATA misses = 76. Winner = DATA
*** Reached end of trace: (0, "../traces/public_traces/srv/srv_36.champsimtrace.xz")
[DUEL] Epoch ended. INSTR misses = 100, DATA misses = 100. Winner = INSTR
[DUEL] Epoch ended. INSTR misses = 57, DATA misses = 50. Winner = DATA
[DUEL] Epoch ended. INSTR misses = 28, DATA misses = 20. Winner = DATA
[DUEL] Epoch ended. INSTR misses = 45, DATA misses = 40. Winner = DATA
[DUEL] Epoch ended. INSTR misses = 57, DATA misses = 58. Winner = INSTR
[DUEL] Epoch ended. INSTR misses = 50, DATA misses = 50. Winner = INSTR
[DUEL] Epoch ended. INSTR misses = 39, DATA misses = 26. Winner = DATA
[DUEL] Epoch ended. INSTR misses = 57, DATA misses = 59. Winner = INSTR
[DUEL] Epoch ended. INSTR misses = 69, DATA misses = 60. Winner = DATA
[DUEL] Epoch ended. INSTR misses = 89, DATA misses = 98. Winner = INSTR
[DUEL] Epoch ended. INSTR misses = 51, DATA misses = 49. Winner = DATA
[DUEL] Epoch ended. INSTR misses = 38, DATA misses = 45. Winner = INSTR
[DUEL] Epoch ended. INSTR misses = 62, DATA misses = 43. Winner = DATA
[DUEL] Epoch ended. INSTR misses = 87, DATA misses = 95. Winner = INSTR
[DUEL] Epoch ended. INSTR misses = 66, DATA misses = 33. Winner = DATA
[DUEL] Epoch ended. INSTR misses = 67, DATA misses = 77. Winner = INSTR
Heartbeat CPU 0 instructions: 40000000 cycles: 12337860 heartbeat IPC: 1.658 cumulative IPC: 1.658 (Simulation time: 00 hr 02 min 28 sec)
[DUEL] Epoch ended. INSTR misses = 53, DATA misses = 52. Winner = DATA
[DUEL] Epoch ended. INSTR misses = 67, DATA misses = 67. Winner = INSTR
[DUEL] Epoch ended. INSTR misses = 26, DATA misses = 27. Winner = INSTR
[DUEL] Epoch ended. INSTR misses = 80, DATA misses = 80. Winner = INSTR
[DUEL] Epoch ended. INSTR misses = 69, DATA misses = 81. Winner = INSTR
[DUEL] Epoch ended. INSTR misses = 84, DATA misses = 75. Winner = DATA
[DUEL] Epoch ended. INSTR misses = 71, DATA misses = 69. Winner = DATA
[DUEL] Epoch ended. INSTR misses = 88, DATA misses = 65. Winner = DATA
[DUEL] Epoch ended. INSTR misses = 99, DATA misses = 84. Winner = DATA
[DUEL] Epoch ended. INSTR misses = 65, DATA misses = 67. Winner = INSTR
[DUEL] Epoch ended. INSTR misses = 45, DATA misses = 34. Winner = DATA
[DUEL] Epoch ended. INSTR misses = 95, DATA misses = 63. Winner = DATA
[DUEL] Epoch ended. INSTR misses = 75, DATA misses = 78. Winner = INSTR
[DUEL] Epoch ended. INSTR misses = 66, DATA misses = 80. Winner = INSTR
[DUEL] Epoch ended. INSTR misses = 19, DATA misses = 2. Winner = DATA
[DUEL] Epoch ended. INSTR misses = 50, DATA misses = 52. Winner = INSTR
[DUEL] Epoch ended. INSTR misses = 76, DATA misses = 68. Winner = DATA
[DUEL] Epoch ended. INSTR misses = 72, DATA misses = 76. Winner = INSTR
[DUEL] Epoch ended. INSTR misses = 69, DATA misses = 66. Winner = DATA
Heartbeat CPU 0 instructions: 50000003 cycles: 18363726 heartbeat IPC: 1.66 cumulative IPC: 1.659 (Simulation time: 00 hr 03 min 25 sec)
[DUEL] Epoch ended. INSTR misses = 113, DATA misses = 100. Winner = DATA
[DUEL] Epoch ended. INSTR misses = 72, DATA misses = 73. Winner = INSTR
[DUEL] Epoch ended. INSTR misses = 65, DATA misses = 37. Winner = DATA
[DUEL] Epoch ended. INSTR misses = 27, DATA misses = 30. Winner = INSTR
[DUEL] Epoch ended. INSTR misses = 70, DATA misses = 68. Winner = DATA
[DUEL] Epoch ended. INSTR misses = 69, DATA misses = 69. Winner = INSTR
[DUEL] Epoch ended. INSTR misses = 49, DATA misses = 53. Winner = INSTR
[DUEL] Epoch ended. INSTR misses = 47, DATA misses = 38. Winner = DATA
[DUEL] Epoch ended. INSTR misses = 45, DATA misses = 29. Winner = DATA
[DUEL] Epoch ended. INSTR misses = 154, DATA misses = 159. Winner = INSTR
[DUEL] Epoch ended. INSTR misses = 61, DATA misses = 64. Winner = INSTR
[DUEL] Epoch ended. INSTR misses = 54, DATA misses = 57. Winner = INSTR
[DUEL] Epoch ended. INSTR misses = 80, DATA misses = 67. Winner = DATA
[DUEL] Epoch ended. INSTR misses = 82, DATA misses = 84. Winner = INSTR
[DUEL] Epoch ended. INSTR misses = 32, DATA misses = 4. Winner = DATA
[DUEL] Epoch ended. INSTR misses = 55, DATA misses = 63. Winner = INSTR
[DUEL] Epoch ended. INSTR misses = 108, DATA misses = 104. Winner = DATA
[DUEL] Epoch ended. INSTR misses = 61, DATA misses = 61. Winner = INSTR
[DUEL] Epoch ended. INSTR misses = 33, DATA misses = 19. Winner = DATA
[DUEL] Epoch ended. INSTR misses = 93, DATA misses = 91. Winner = DATA
Heartbeat CPU 0 instructions: 60000008 cycles: 24168965 heartbeat IPC: 1.723 cumulative IPC: 1.679 (Simulation time: 00 hr 04 min 22 sec)
[DUEL] Epoch ended. INSTR misses = 143, DATA misses = 133. Winner = DATA
[DUEL] Epoch ended. INSTR misses = 52, DATA misses = 36. Winner = DATA
[DUEL] Epoch ended. INSTR misses = 92, DATA misses = 90. Winner = DATA
[DUEL] Epoch ended. INSTR misses = 50, DATA misses = 51. Winner = INSTR
[DUEL] Epoch ended. INSTR misses = 90, DATA misses = 91. Winner = INSTR
[DUEL] Epoch ended. INSTR misses = 51, DATA misses = 49. Winner = DATA
[DUEL] Epoch ended. INSTR misses = 106, DATA misses = 93. Winner = DATA
[DUEL] Epoch ended. INSTR misses = 70, DATA misses = 50. Winner = DATA
*** Reached end of trace: (0, "../traces/public_traces/srv/srv_36.champsimtrace.xz")
[DUEL] Epoch ended. INSTR misses = 115, DATA misses = 107. Winner = DATA
[DUEL] Epoch ended. INSTR misses = 53, DATA misses = 42. Winner = DATA
[DUEL] Epoch ended. INSTR misses = 31, DATA misses = 20. Winner = DATA
[DUEL] Epoch ended. INSTR misses = 50, DATA misses = 37. Winner = DATA
[DUEL] Epoch ended. INSTR misses = 58, DATA misses = 61. Winner = INSTR
[DUEL] Epoch ended. INSTR misses = 51, DATA misses = 50. Winner = DATA
[DUEL] Epoch ended. INSTR misses = 69, DATA misses = 66. Winner = DATA
[DUEL] Epoch ended. INSTR misses = 25, DATA misses = 25. Winner = INSTR
[DUEL] Epoch ended. INSTR misses = 72, DATA misses = 57. Winner = DATA
[DUEL] Epoch ended. INSTR misses = 92, DATA misses = 99. Winner = INSTR
[DUEL] Epoch ended. INSTR misses = 54, DATA misses = 61. Winner = INSTR
Heartbeat CPU 0 instructions: 70000004 cycles: 30200697 heartbeat IPC: 1.658 cumulative IPC: 1.674 (Simulation time: 00 hr 05 min 20 sec)
[DUEL] Epoch ended. INSTR misses = 49, DATA misses = 33. Winner = DATA
[DUEL] Epoch ended. INSTR misses = 44, DATA misses = 43. Winner = DATA
[DUEL] Epoch ended. INSTR misses = 117, DATA misses = 99. Winner = DATA
[DUEL] Epoch ended. INSTR misses = 85, DATA misses = 75. Winner = DATA
[DUEL] Epoch ended. INSTR misses = 51, DATA misses = 46. Winner = DATA
[DUEL] Epoch ended. INSTR misses = 28, DATA misses = 33. Winner = INSTR
[DUEL] Epoch ended. INSTR misses = 68, DATA misses = 69. Winner = INSTR
[DUEL] Epoch ended. INSTR misses = 67, DATA misses = 58. Winner = DATA
[DUEL] Epoch ended. INSTR misses = 68, DATA misses = 73. Winner = INSTR
[DUEL] Epoch ended. INSTR misses = 50, DATA misses = 56. Winner = INSTR
[DUEL] Epoch ended. INSTR misses = 99, DATA misses = 94. Winner = DATA
[DUEL] Epoch ended. INSTR misses = 67, DATA misses = 74. Winner = INSTR
[DUEL] Epoch ended. INSTR misses = 81, DATA misses = 64. Winner = DATA
[DUEL] Epoch ended. INSTR misses = 68, DATA misses = 60. Winner = DATA
[DUEL] Epoch ended. INSTR misses = 69, DATA misses = 66. Winner = DATA
[DUEL] Epoch ended. INSTR misses = 81, DATA misses = 80. Winner = DATA
[DUEL] Epoch ended. INSTR misses = 63, DATA misses = 36. Winner = DATA
[DUEL] Epoch ended. INSTR misses = 56, DATA misses = 58. Winner = INSTR
[DUEL] Epoch ended. INSTR misses = 71, DATA misses = 79. Winner = INSTR
[DUEL] Epoch ended. INSTR misses = 29, DATA misses = 3. Winner = DATA
Heartbeat CPU 0 instructions: 80000000 cycles: 36080222 heartbeat IPC: 1.701 cumulative IPC: 1.679 (Simulation time: 00 hr 06 min 17 sec)
[DUEL] Epoch ended. INSTR misses = 48, DATA misses = 53. Winner = INSTR
[DUEL] Epoch ended. INSTR misses = 73, DATA misses = 64. Winner = DATA
[DUEL] Epoch ended. INSTR misses = 108, DATA misses = 118. Winner = INSTR
[DUEL] Epoch ended. INSTR misses = 84, DATA misses = 78. Winner = DATA
[DUEL] Epoch ended. INSTR misses = 70, DATA misses = 67. Winner = DATA
[DUEL] Epoch ended. INSTR misses = 72, DATA misses = 68. Winner = DATA
[DUEL] Epoch ended. INSTR misses = 63, DATA misses = 36. Winner = DATA
[DUEL] Epoch ended. INSTR misses = 32, DATA misses = 36. Winner = INSTR
[DUEL] Epoch ended. INSTR misses = 67, DATA misses = 67. Winner = INSTR
[DUEL] Epoch ended. INSTR misses = 67, DATA misses = 63. Winner = DATA
[DUEL] Epoch ended. INSTR misses = 60, DATA misses = 54. Winner = DATA
[DUEL] Epoch ended. INSTR misses = 76, DATA misses = 61. Winner = DATA
[DUEL] Epoch ended. INSTR misses = 14, DATA misses = 5. Winner = DATA
[DUEL] Epoch ended. INSTR misses = 166, DATA misses = 160. Winner = DATA
[DUEL] Epoch ended. INSTR misses = 73, DATA misses = 65. Winner = DATA
[DUEL] Epoch ended. INSTR misses = 51, DATA misses = 60. Winner = INSTR
[DUEL] Epoch ended. INSTR misses = 80, DATA misses = 63. Winner = DATA
[DUEL] Epoch ended. INSTR misses = 103, DATA misses = 82. Winner = DATA
[DUEL] Epoch ended. INSTR misses = 50, DATA misses = 49. Winner = DATA
Heartbeat CPU 0 instructions: 90000008 cycles: 41772880 heartbeat IPC: 1.757 cumulative IPC: 1.692 (Simulation time: 00 hr 07 min 13 sec)
[DUEL] Epoch ended. INSTR misses = 17, DATA misses = 17. Winner = INSTR
[DUEL] Epoch ended. INSTR misses = 108, DATA misses = 104. Winner = DATA
[DUEL] Epoch ended. INSTR misses = 67, DATA misses = 60. Winner = DATA
[DUEL] Epoch ended. INSTR misses = 37, DATA misses = 36. Winner = DATA
[DUEL] Epoch ended. INSTR misses = 77, DATA misses = 66. Winner = DATA
[DUEL] Epoch ended. INSTR misses = 142, DATA misses = 137. Winner = DATA
[DUEL] Epoch ended. INSTR misses = 79, DATA misses = 63. Winner = DATA
[DUEL] Epoch ended. INSTR misses = 69, DATA misses = 76. Winner = INSTR
[DUEL] Epoch ended. INSTR misses = 42, DATA misses = 41. Winner = DATA
[DUEL] Epoch ended. INSTR misses = 90, DATA misses = 91. Winner = INSTR
[DUEL] Epoch ended. INSTR misses = 85, DATA misses = 70. Winner = DATA
[DUEL] Epoch ended. INSTR misses = 79, DATA misses = 74. Winner = DATA
[DUEL] Epoch ended. INSTR misses = 67, DATA misses = 43. Winner = DATA
*** Reached end of trace: (0, "../traces/public_traces/srv/srv_36.champsimtrace.xz")
[DUEL] Epoch ended. INSTR misses = 137, DATA misses = 115. Winner = DATA
[DUEL] Epoch ended. INSTR misses = 41, DATA misses = 37. Winner = DATA
[DUEL] Epoch ended. INSTR misses = 29, DATA misses = 24. Winner = DATA
[DUEL] Epoch ended. INSTR misses = 48, DATA misses = 42. Winner = DATA
[DUEL] Epoch ended. INSTR misses = 59, DATA misses = 62. Winner = INSTR
[DUEL] Epoch ended. INSTR misses = 50, DATA misses = 49. Winner = DATA
[DUEL] Epoch ended. INSTR misses = 90, DATA misses = 81. Winner = DATA
Heartbeat CPU 0 instructions: 100000009 cycles: 47707252 heartbeat IPC: 1.685 cumulative IPC: 1.691 (Simulation time: 00 hr 08 min 11 sec)
[DUEL] Epoch ended. INSTR misses = 21, DATA misses = 28. Winner = INSTR
[DUEL] Epoch ended. INSTR misses = 49, DATA misses = 42. Winner = DATA
[DUEL] Epoch ended. INSTR misses = 94, DATA misses = 97. Winner = INSTR
[DUEL] Epoch ended. INSTR misses = 74, DATA misses = 79. Winner = INSTR
[DUEL] Epoch ended. INSTR misses = 50, DATA misses = 32. Winner = DATA
[DUEL] Epoch ended. INSTR misses = 31, DATA misses = 27. Winner = DATA
[DUEL] Epoch ended. INSTR misses = 107, DATA misses = 98. Winner = DATA
[DUEL] Epoch ended. INSTR misses = 101, DATA misses = 95. Winner = DATA
[DUEL] Epoch ended. INSTR misses = 36, DATA misses = 34. Winner = DATA
[DUEL] Epoch ended. INSTR misses = 28, DATA misses = 28. Winner = INSTR
[DUEL] Epoch ended. INSTR misses = 66, DATA misses = 68. Winner = INSTR
[DUEL] Epoch ended. INSTR misses = 92, DATA misses = 81. Winner = DATA
[DUEL] Epoch ended. INSTR misses = 69, DATA misses = 71. Winner = INSTR
[DUEL] Epoch ended. INSTR misses = 30, DATA misses = 34. Winner = INSTR
[DUEL] Epoch ended. INSTR misses = 101, DATA misses = 96. Winner = DATA
[DUEL] Epoch ended. INSTR misses = 81, DATA misses = 81. Winner = INSTR
[DUEL] Epoch ended. INSTR misses = 101, DATA misses = 82. Winner = DATA
[DUEL] Epoch ended. INSTR misses = 53, DATA misses = 33. Winner = DATA
[DUEL] Epoch ended. INSTR misses = 68, DATA misses = 66. Winner = DATA
Heartbeat CPU 0 instructions: 110000004 cycles: 53386025 heartbeat IPC: 1.761 cumulative IPC: 1.699 (Simulation time: 00 hr 09 min 07 sec)
[DUEL] Epoch ended. INSTR misses = 92, DATA misses = 77. Winner = DATA
[DUEL] Epoch ended. INSTR misses = 57, DATA misses = 36. Winner = DATA
[DUEL] Epoch ended. INSTR misses = 58, DATA misses = 61. Winner = INSTR
[DUEL] Epoch ended. INSTR misses = 66, DATA misses = 74. Winner = INSTR
[DUEL] Epoch ended. INSTR misses = 46, DATA misses = 29. Winner = DATA
[DUEL] Epoch ended. INSTR misses = 34, DATA misses = 41. Winner = INSTR
[DUEL] Epoch ended. INSTR misses = 57, DATA misses = 47. Winner = DATA
[DUEL] Epoch ended. INSTR misses = 107, DATA misses = 119. Winner = INSTR
[DUEL] Epoch ended. INSTR misses = 98, DATA misses = 96. Winner = DATA
[DUEL] Epoch ended. INSTR misses = 61, DATA misses = 54. Winner = DATA
[DUEL] Epoch ended. INSTR misses = 67, DATA misses = 63. Winner = DATA
[DUEL] Epoch ended. INSTR misses = 70, DATA misses = 37. Winner = DATA
[DUEL] Epoch ended. INSTR misses = 56, DATA misses = 58. Winner = INSTR
[DUEL] Epoch ended. INSTR misses = 41, DATA misses = 45. Winner = INSTR
[DUEL] Epoch ended. INSTR misses = 65, DATA misses = 63. Winner = DATA
[DUEL] Epoch ended. INSTR misses = 52, DATA misses = 56. Winner = INSTR
[DUEL] Epoch ended. INSTR misses = 71, DATA misses = 62. Winner = DATA
[DUEL] Epoch ended. INSTR misses = 45, DATA misses = 24. Winner = DATA
[DUEL] Epoch ended. INSTR misses = 134, DATA misses = 135. Winner = INSTR
[DUEL] Epoch ended. INSTR misses = 75, DATA misses = 66. Winner = DATA
Heartbeat CPU 0 instructions: 120000008 cycles: 59368052 heartbeat IPC: 1.672 cumulative IPC: 1.696 (Simulation time: 00 hr 10 min 04 sec)
[DUEL] Epoch ended. INSTR misses = 80, DATA misses = 84. Winner = INSTR
[DUEL] Epoch ended. INSTR misses = 57, DATA misses = 45. Winner = DATA
[DUEL] Epoch ended. INSTR misses = 104, DATA misses = 71. Winner = DATA
[DUEL] Epoch ended. INSTR misses = 48, DATA misses = 49. Winner = INSTR
[DUEL] Epoch ended. INSTR misses = 34, DATA misses = 33. Winner = DATA
[DUEL] Epoch ended. INSTR misses = 90, DATA misses = 85. Winner = DATA
[DUEL] Epoch ended. INSTR misses = 72, DATA misses = 58. Winner = DATA
[DUEL] Epoch ended. INSTR misses = 67, DATA misses = 62. Winner = DATA
[DUEL] Epoch ended. INSTR misses = 54, DATA misses = 50. Winner = DATA
[DUEL] Epoch ended. INSTR misses = 131, DATA misses = 126. Winner = DATA
[DUEL] Epoch ended. INSTR misses = 74, DATA misses = 68. Winner = DATA
[DUEL] Epoch ended. INSTR misses = 100, DATA misses = 90. Winner = DATA
[DUEL] Epoch ended. INSTR misses = 35, DATA misses = 30. Winner = DATA
[DUEL] Epoch ended. INSTR misses = 78, DATA misses = 79. Winner = INSTR
[DUEL] Epoch ended. INSTR misses = 114, DATA misses = 102. Winner = DATA
[DUEL] Epoch ended. INSTR misses = 55, DATA misses = 51. Winner = DATA
[DUEL] Epoch ended. INSTR misses = 60, DATA misses = 47. Winner = DATA
*** Reached end of trace: (0, "../traces/public_traces/srv/srv_36.champsimtrace.xz")
[DUEL] Epoch ended. INSTR misses = 124, DATA misses = 101. Winner = DATA
[DUEL] Epoch ended. INSTR misses = 44, DATA misses = 38. Winner = DATA
Heartbeat CPU 0 instructions: 130000007 cycles: 65138415 heartbeat IPC: 1.733 cumulative IPC: 1.7 (Simulation time: 00 hr 11 min 00 sec)
Simulation finished CPU 0 instructions: 100000006 cycles: 58832319 cumulative IPC: 1.7 (Simulation time: 00 hr 11 min 00 sec)
Simulation complete CPU 0 instructions: 100000006 cycles: 58832319 cumulative IPC: 1.7 (Simulation time: 00 hr 11 min 00 sec)

ChampSim completed all CPUs

=== Simulation ===
CPU 0 runs ../traces/public_traces/srv/srv_36.champsimtrace.xz
Region of Interest Statistics

CPU 0 cumulative IPC: 1.7 instructions: 100000006 cycles: 58832319
CPU 0 Branch Prediction Accuracy: 99.88% MPKI: 0.1817 Average ROB Occupancy at Mispredict: 203.2
Branch type MPKI
BRANCH_DIRECT_JUMP: 0.00021
BRANCH_INDIRECT: 0.135
BRANCH_CONDITIONAL: 0.0459
BRANCH_DIRECT_CALL: 3e-05
BRANCH_INDIRECT_CALL: 2e-05
BRANCH_RETURN: 0.00019

LLC TOTAL        ACCESS:    4720728 HIT:    1997527 MISS:    2723201
LLC LOAD         ACCESS:     480342 HIT:     364894 MISS:     115448
LLC RFO          ACCESS:    1599151 HIT:     443914 MISS:    1155237
LLC PREFETCH     ACCESS:     801155 HIT:     318048 MISS:     483107
LLC WRITE        ACCESS:    1827732 HIT:     869783 MISS:     957949
LLC TRANSLATION  ACCESS:      12348 HIT:        888 MISS:      11460
LLC PREFETCH REQUESTED:          0 ISSUED:          0 USEFUL:          0 USELESS:          0
LLC AVERAGE MISS LATENCY: 196.5 cycles
cpu0_DTLB TOTAL        ACCESS:   18590401 HIT:   17554270 MISS:    1036131
cpu0_DTLB LOAD         ACCESS:   18590401 HIT:   17554270 MISS:    1036131
cpu0_DTLB RFO          ACCESS:          0 HIT:          0 MISS:          0
cpu0_DTLB PREFETCH     ACCESS:          0 HIT:          0 MISS:          0
cpu0_DTLB WRITE        ACCESS:          0 HIT:          0 MISS:          0
cpu0_DTLB TRANSLATION  ACCESS:          0 HIT:          0 MISS:          0
cpu0_DTLB PREFETCH REQUESTED:          0 ISSUED:          0 USEFUL:          0 USELESS:          0
cpu0_DTLB AVERAGE MISS LATENCY: 8.032 cycles
cpu0_ITLB TOTAL        ACCESS:   14581413 HIT:   14562852 MISS:      18561
cpu0_ITLB LOAD         ACCESS:   14581413 HIT:   14562852 MISS:      18561
cpu0_ITLB RFO          ACCESS:          0 HIT:          0 MISS:          0
cpu0_ITLB PREFETCH     ACCESS:          0 HIT:          0 MISS:          0
cpu0_ITLB WRITE        ACCESS:          0 HIT:          0 MISS:          0
cpu0_ITLB TRANSLATION  ACCESS:          0 HIT:          0 MISS:          0
cpu0_ITLB PREFETCH REQUESTED:          0 ISSUED:          0 USEFUL:          0 USELESS:          0
cpu0_ITLB AVERAGE MISS LATENCY: 21.71 cycles
cpu0_L1D TOTAL        ACCESS:   34013522 HIT:   20658918 MISS:   13354604
cpu0_L1D LOAD         ACCESS:   13305650 HIT:   10410982 MISS:    2894668
cpu0_L1D RFO          ACCESS:          0 HIT:          0 MISS:          0
cpu0_L1D PREFETCH     ACCESS:    3628305 HIT:    1243177 MISS:    2385128
cpu0_L1D WRITE        ACCESS:   17045902 HIT:    8991524 MISS:    8054378
cpu0_L1D TRANSLATION  ACCESS:      33665 HIT:      13235 MISS:      20430
cpu0_L1D PREFETCH REQUESTED:    9180396 ISSUED:    3628274 USEFUL:     361634 USELESS:      54690
cpu0_L1D AVERAGE MISS LATENCY: 39.2 cycles
cpu0_L1I TOTAL        ACCESS:   21177022 HIT:   14859615 MISS:    6317407
cpu0_L1I LOAD         ACCESS:   11157781 HIT:    6287953 MISS:    4869828
cpu0_L1I RFO          ACCESS:          0 HIT:          0 MISS:          0
cpu0_L1I PREFETCH     ACCESS:   10019241 HIT:    8571662 MISS:    1447579
cpu0_L1I WRITE        ACCESS:          0 HIT:          0 MISS:          0
cpu0_L1I TRANSLATION  ACCESS:          0 HIT:          0 MISS:          0
cpu0_L1I PREFETCH REQUESTED:   33283635 ISSUED:   10019243 USEFUL:    1164516 USELESS:     134948
cpu0_L1I AVERAGE MISS LATENCY: 9.179 cycles
cpu0_L2C TOTAL        ACCESS:   17125644 HIT:   12284197 MISS:    4841447
cpu0_L2C LOAD         ACCESS:    4562390 HIT:    4021774 MISS:     540616
cpu0_L2C RFO          ACCESS:    1841503 HIT:     241977 MISS:    1599526
cpu0_L2C PREFETCH     ACCESS:    8498111 HIT:    5809177 MISS:    2688934
cpu0_L2C WRITE        ACCESS:    2203348 HIT:    2203325 MISS:         23
cpu0_L2C TRANSLATION  ACCESS:      20292 HIT:       7944 MISS:      12348
cpu0_L2C PREFETCH REQUESTED:    7729212 ISSUED:    5333602 USEFUL:      94988 USELESS:     176226
cpu0_L2C AVERAGE MISS LATENCY: 121 cycles
cpu0_STLB TOTAL        ACCESS:     502359 HIT:     472091 MISS:      30268
cpu0_STLB LOAD         ACCESS:     502359 HIT:     472091 MISS:      30268
cpu0_STLB RFO          ACCESS:          0 HIT:          0 MISS:          0
cpu0_STLB PREFETCH     ACCESS:          0 HIT:          0 MISS:          0
cpu0_STLB WRITE        ACCESS:          0 HIT:          0 MISS:          0
cpu0_STLB TRANSLATION  ACCESS:          0 HIT:          0 MISS:          0
cpu0_STLB PREFETCH REQUESTED:          0 ISSUED:          0 USEFUL:          0 USELESS:          0
cpu0_STLB AVERAGE MISS LATENCY: 222.1 cycles

DRAM Statistics

Channel 0 RQ ROW_BUFFER_HIT:     403668
  ROW_BUFFER_MISS:     488676
 AVG DBUS CONGESTED CYCLE: 3.948
WQ ROW_BUFFER_HIT: Channel 0 
  ROW_BUFFER_MISS:      61599
  FULL:     535284

Channel 1 RQ ROW_BUFFER_HIT:     404341
  ROW_BUFFER_MISS:     468495
 AVG DBUS CONGESTED CYCLE: 3.943
WQ ROW_BUFFER_HIT: Channel 1 
  ROW_BUFFER_MISS:      64922
  FULL:     518262
BERTI TO_L1: 3671335 TO_L2: 8566533 TO_L2_BC_MSHR: 4005581
BERTI AVG_LAT: 73.8951 NUM_TRACK_LATENCY: 2143488 NUM_CANT_TRACK_LATENCY: 1
BERTI CROSS_PAGE 1571800 NO_CROSS_PAGE: 10666068
BERTI FOUND_BERTI: 3557954 NO_FOUND_BERTI: 15846511
BERTI AVERAGE_ISSUED: 4.85199
CPU 0 L1I Entangling prefetcher final stats
IP accesses: 5cd0 173400 137107 / 11260765
IP misses: 13dd 4f740 20310 / 4972812
IP hits: 0 0 0 / 0
IP late: 9d3d 274f40 8651 / 2092808
IP wrong: 8c9d 232740 4482 / 129129
miss rate: 0.441606
coverage: 0
coverage_late: 0.420851
accuracy: 0
accuracy_late: 0.941885
discarded: 0
evicts entangled j table: 0
evicts entangled k table: 373581
max bb size: 13
formats: 64177 0 265280 93904 35683 52816 0 
hist_lookups: 47168 130306 233821 306064 304862 263120 180274 144523 135046 130272 104800 65968 43453 24188 6517 0 399 796668 
hist_lookups_evict: 0.0136764 %
hist_lookups_shortlat: 27.3071 %
bb_found_hist: 0 2424978 1138015 484465 219783 111102 61681 29315 9101 459 0 469 0 4465 0 0 0 0 0 0 0 0 0 0 0 0 0 0 0 0 0 0 0 0 0 0 0 0 0 0 0 0 0 0 0 0 0 0 0 0 0 0 0 0 0 0 0 0 0 0 0 0 0 0 
bb_found_summary: 8304479 4483833 1.8521
entangled_found_hist: 0 1280370 771289 2281868 593090 83825 27407 0 
entangled_found_summary: 12624479 5037849 2.50593
bb_ent_found_hist: 0 3874067 2495937 1052553 568264 193898 172442 87312 39791 3587 0 3023 0 26019 0 0 0 0 0 0 0 0 0 0 0 0 0 0 0 0 0 0 0 0 0 0 0 0 0 0 0 0 0 0 0 0 0 0 0 0 0 0 0 0 0 0 0 0 0 0 0 0 0 0 
bb_ent_found_summary: 17634093 8516893 2.07049
