WARNING: physical memory size is smaller than virtual memory size.

*** ChampSim Multicore Out-of-Order Simulator ***
Warmup Instructions: 30000000
Simulation Instructions: 100000000
Number of CPUs: 1
Page size: 4096

BTB:
Basic BTB sets: 1024 ways: 8
Indirect:
history lengths: 0 0 10 16 27 44 60 96 109 219 449 487 714 1313 2146 3881 
ITTAGE tables: 64768 bytes;Region table: 240 bytes;IUM: 384 bytes;Total Storage= 65392 bytes;
RAS:
RAS size: 64
[LLC] INSTR Demand IPV: 1 2 2 1 4 Prefetch IPV: 1 2 1 1 4
[LLC] DATA  Demand IPV: 1 1 1 2 4 Prefetch IPV: 1 1 2 2 4
Berti Prefetcher
CPU 0 Entangling prefetcher
Off-chip DRAM Size: 8 GiB Channels: 2 Width: 64-bit Data Race: 6400 MT/s
[DUEL] Epoch ended. INSTR misses = 49, DATA misses = 44. Winner = DATA
[DUEL] Epoch ended. INSTR misses = 7, DATA misses = 8. Winner = INSTR
[DUEL] Epoch ended. INSTR misses = 13, DATA misses = 4. Winner = DATA
[DUEL] Epoch ended. INSTR misses = 13, DATA misses = 5. Winner = DATA
[DUEL] Epoch ended. INSTR misses = 1, DATA misses = 0. Winner = DATA
[DUEL] Epoch ended. INSTR misses = 8, DATA misses = 7. Winner = DATA
[DUEL] Epoch ended. INSTR misses = 0, DATA misses = 2. Winner = INSTR
[DUEL] Epoch ended. INSTR misses = 1, DATA misses = 2. Winner = INSTR
[DUEL] Epoch ended. INSTR misses = 0, DATA misses = 0. Winner = INSTR
[DUEL] Epoch ended. INSTR misses = 13, DATA misses = 13. Winner = INSTR
[DUEL] Epoch ended. INSTR misses = 27, DATA misses = 21. Winner = DATA
[DUEL] Epoch ended. INSTR misses = 8, DATA misses = 14. Winner = INSTR
[DUEL] Epoch ended. INSTR misses = 10, DATA misses = 10. Winner = INSTR
[DUEL] Epoch ended. INSTR misses = 0, DATA misses = 0. Winner = INSTR
[DUEL] Epoch ended. INSTR misses = 12, DATA misses = 1. Winner = DATA
[DUEL] Epoch ended. INSTR misses = 0, DATA misses = 0. Winner = INSTR
[DUEL] Epoch ended. INSTR misses = 6, DATA misses = 3. Winner = DATA
[DUEL] Epoch ended. INSTR misses = 21, DATA misses = 12. Winner = DATA
Heartbeat CPU 0 instructions: 10000008 cycles: 1692925 heartbeat IPC: 5.907 cumulative IPC: 5.907 (Simulation time: 00 hr 00 min 24 sec)
[DUEL] Epoch ended. INSTR misses = 1, DATA misses = 1. Winner = INSTR
[DUEL] Epoch ended. INSTR misses = 34, DATA misses = 32. Winner = DATA
[DUEL] Epoch ended. INSTR misses = 18, DATA misses = 16. Winner = DATA
[DUEL] Epoch ended. INSTR misses = 32, DATA misses = 34. Winner = INSTR
[DUEL] Epoch ended. INSTR misses = 24, DATA misses = 24. Winner = INSTR
[DUEL] Epoch ended. INSTR misses = 26, DATA misses = 22. Winner = DATA
[DUEL] Epoch ended. INSTR misses = 44, DATA misses = 41. Winner = DATA
[DUEL] Epoch ended. INSTR misses = 50, DATA misses = 55. Winner = INSTR
[DUEL] Epoch ended. INSTR misses = 21, DATA misses = 23. Winner = INSTR
[DUEL] Epoch ended. INSTR misses = 43, DATA misses = 29. Winner = DATA
[DUEL] Epoch ended. INSTR misses = 37, DATA misses = 47. Winner = INSTR
[DUEL] Epoch ended. INSTR misses = 24, DATA misses = 19. Winner = DATA
[DUEL] Epoch ended. INSTR misses = 16, DATA misses = 23. Winner = INSTR
[DUEL] Epoch ended. INSTR misses = 43, DATA misses = 38. Winner = DATA
[DUEL] Epoch ended. INSTR misses = 27, DATA misses = 30. Winner = INSTR
[DUEL] Epoch ended. INSTR misses = 29, DATA misses = 37. Winner = INSTR
[DUEL] Epoch ended. INSTR misses = 59, DATA misses = 52. Winner = DATA
[DUEL] Epoch ended. INSTR misses = 30, DATA misses = 30. Winner = INSTR
Heartbeat CPU 0 instructions: 20000009 cycles: 3537206 heartbeat IPC: 5.422 cumulative IPC: 5.654 (Simulation time: 00 hr 00 min 47 sec)
[DUEL] Epoch ended. INSTR misses = 32, DATA misses = 34. Winner = INSTR
[DUEL] Epoch ended. INSTR misses = 31, DATA misses = 30. Winner = DATA
[DUEL] Epoch ended. INSTR misses = 16, DATA misses = 25. Winner = INSTR
[DUEL] Epoch ended. INSTR misses = 44, DATA misses = 24. Winner = DATA
[DUEL] Epoch ended. INSTR misses = 32, DATA misses = 52. Winner = INSTR
[DUEL] Epoch ended. INSTR misses = 47, DATA misses = 37. Winner = DATA
[DUEL] Epoch ended. INSTR misses = 48, DATA misses = 30. Winner = DATA
[DUEL] Epoch ended. INSTR misses = 16, DATA misses = 31. Winner = INSTR
[DUEL] Epoch ended. INSTR misses = 16, DATA misses = 26. Winner = INSTR
[DUEL] Epoch ended. INSTR misses = 62, DATA misses = 51. Winner = DATA
[DUEL] Epoch ended. INSTR misses = 16, DATA misses = 20. Winner = INSTR
[DUEL] Epoch ended. INSTR misses = 30, DATA misses = 39. Winner = INSTR
[DUEL] Epoch ended. INSTR misses = 48, DATA misses = 41. Winner = DATA
[DUEL] Epoch ended. INSTR misses = 30, DATA misses = 37. Winner = INSTR
[DUEL] Epoch ended. INSTR misses = 31, DATA misses = 20. Winner = DATA
[DUEL] Epoch ended. INSTR misses = 48, DATA misses = 52. Winner = INSTR
[DUEL] Epoch ended. INSTR misses = 35, DATA misses = 41. Winner = INSTR
[DUEL] Epoch ended. INSTR misses = 45, DATA misses = 38. Winner = DATA
[DUEL] Epoch ended. INSTR misses = 31, DATA misses = 29. Winner = DATA
Heartbeat CPU 0 instructions: 30000008 cycles: 5387396 heartbeat IPC: 5.405 cumulative IPC: 5.569 (Simulation time: 00 hr 01 min 09 sec)
Warmup finished CPU 0 instructions: 30000008 cycles: 5387397 cumulative IPC: 5.569 (Simulation time: 00 hr 01 min 09 sec)
Warmup complete CPU 0 instructions: 30000008 cycles: 5387397 cumulative IPC: 5.569 (Simulation time: 00 hr 01 min 09 sec)
[DUEL] Epoch ended. INSTR misses = 42, DATA misses = 41. Winner = DATA
*** Reached end of trace: (0, "../traces/public_traces/srv/srv_40.champsimtrace.xz")
[DUEL] Epoch ended. INSTR misses = 76, DATA misses = 82. Winner = INSTR
[DUEL] Epoch ended. INSTR misses = 22, DATA misses = 15. Winner = DATA
[DUEL] Epoch ended. INSTR misses = 6, DATA misses = 4. Winner = DATA
[DUEL] Epoch ended. INSTR misses = 21, DATA misses = 7. Winner = DATA
[DUEL] Epoch ended. INSTR misses = 9, DATA misses = 0. Winner = DATA
[DUEL] Epoch ended. INSTR misses = 6, DATA misses = 7. Winner = INSTR
[DUEL] Epoch ended. INSTR misses = 0, DATA misses = 0. Winner = INSTR
[DUEL] Epoch ended. INSTR misses = 0, DATA misses = 0. Winner = INSTR
[DUEL] Epoch ended. INSTR misses = 1, DATA misses = 4. Winner = INSTR
[DUEL] Epoch ended. INSTR misses = 1, DATA misses = 0. Winner = DATA
[DUEL] Epoch ended. INSTR misses = 12, DATA misses = 5. Winner = DATA
[DUEL] Epoch ended. INSTR misses = 9, DATA misses = 3. Winner = DATA
[DUEL] Epoch ended. INSTR misses = 8, DATA misses = 14. Winner = INSTR
[DUEL] Epoch ended. INSTR misses = 1, DATA misses = 1. Winner = INSTR
[DUEL] Epoch ended. INSTR misses = 0, DATA misses = 0. Winner = INSTR
[DUEL] Epoch ended. INSTR misses = 12, DATA misses = 1. Winner = DATA
[DUEL] Epoch ended. INSTR misses = 0, DATA misses = 0. Winner = INSTR
Heartbeat CPU 0 instructions: 40000004 cycles: 8857775 heartbeat IPC: 2.882 cumulative IPC: 2.882 (Simulation time: 00 hr 01 min 46 sec)
[DUEL] Epoch ended. INSTR misses = 7, DATA misses = 3. Winner = DATA
[DUEL] Epoch ended. INSTR misses = 16, DATA misses = 9. Winner = DATA
[DUEL] Epoch ended. INSTR misses = 0, DATA misses = 0. Winner = INSTR
[DUEL] Epoch ended. INSTR misses = 20, DATA misses = 16. Winner = DATA
[DUEL] Epoch ended. INSTR misses = 17, DATA misses = 16. Winner = DATA
[DUEL] Epoch ended. INSTR misses = 24, DATA misses = 19. Winner = DATA
[DUEL] Epoch ended. INSTR misses = 19, DATA misses = 17. Winner = DATA
[DUEL] Epoch ended. INSTR misses = 26, DATA misses = 25. Winner = DATA
[DUEL] Epoch ended. INSTR misses = 37, DATA misses = 32. Winner = DATA
[DUEL] Epoch ended. INSTR misses = 45, DATA misses = 49. Winner = INSTR
[DUEL] Epoch ended. INSTR misses = 22, DATA misses = 24. Winner = INSTR
[DUEL] Epoch ended. INSTR misses = 46, DATA misses = 22. Winner = DATA
[DUEL] Epoch ended. INSTR misses = 24, DATA misses = 44. Winner = INSTR
[DUEL] Epoch ended. INSTR misses = 20, DATA misses = 16. Winner = DATA
[DUEL] Epoch ended. INSTR misses = 13, DATA misses = 21. Winner = INSTR
[DUEL] Epoch ended. INSTR misses = 38, DATA misses = 34. Winner = DATA
[DUEL] Epoch ended. INSTR misses = 27, DATA misses = 29. Winner = INSTR
[DUEL] Epoch ended. INSTR misses = 28, DATA misses = 37. Winner = INSTR
[DUEL] Epoch ended. INSTR misses = 57, DATA misses = 52. Winner = DATA
Heartbeat CPU 0 instructions: 50000007 cycles: 13428765 heartbeat IPC: 2.188 cumulative IPC: 2.487 (Simulation time: 00 hr 02 min 32 sec)
[DUEL] Epoch ended. INSTR misses = 26, DATA misses = 27. Winner = INSTR
[DUEL] Epoch ended. INSTR misses = 31, DATA misses = 30. Winner = DATA
[DUEL] Epoch ended. INSTR misses = 31, DATA misses = 29. Winner = DATA
[DUEL] Epoch ended. INSTR misses = 16, DATA misses = 24. Winner = INSTR
[DUEL] Epoch ended. INSTR misses = 32, DATA misses = 40. Winner = INSTR
[DUEL] Epoch ended. INSTR misses = 43, DATA misses = 36. Winner = DATA
[DUEL] Epoch ended. INSTR misses = 46, DATA misses = 35. Winner = DATA
[DUEL] Epoch ended. INSTR misses = 47, DATA misses = 28. Winner = DATA
[DUEL] Epoch ended. INSTR misses = 14, DATA misses = 31. Winner = INSTR
[DUEL] Epoch ended. INSTR misses = 16, DATA misses = 26. Winner = INSTR
[DUEL] Epoch ended. INSTR misses = 59, DATA misses = 49. Winner = DATA
[DUEL] Epoch ended. INSTR misses = 15, DATA misses = 20. Winner = INSTR
[DUEL] Epoch ended. INSTR misses = 30, DATA misses = 40. Winner = INSTR
[DUEL] Epoch ended. INSTR misses = 48, DATA misses = 39. Winner = DATA
[DUEL] Epoch ended. INSTR misses = 30, DATA misses = 36. Winner = INSTR
[DUEL] Epoch ended. INSTR misses = 31, DATA misses = 20. Winner = DATA
[DUEL] Epoch ended. INSTR misses = 46, DATA misses = 52. Winner = INSTR
[DUEL] Epoch ended. INSTR misses = 35, DATA misses = 41. Winner = INSTR
[DUEL] Epoch ended. INSTR misses = 43, DATA misses = 38. Winner = DATA
Heartbeat CPU 0 instructions: 60000001 cycles: 18011270 heartbeat IPC: 2.182 cumulative IPC: 2.376 (Simulation time: 00 hr 03 min 19 sec)
[DUEL] Epoch ended. INSTR misses = 31, DATA misses = 28. Winner = DATA
[DUEL] Epoch ended. INSTR misses = 43, DATA misses = 41. Winner = DATA
*** Reached end of trace: (0, "../traces/public_traces/srv/srv_40.champsimtrace.xz")
[DUEL] Epoch ended. INSTR misses = 76, DATA misses = 75. Winner = DATA
[DUEL] Epoch ended. INSTR misses = 23, DATA misses = 21. Winner = DATA
[DUEL] Epoch ended. INSTR misses = 7, DATA misses = 3. Winner = DATA
[DUEL] Epoch ended. INSTR misses = 22, DATA misses = 6. Winner = DATA
[DUEL] Epoch ended. INSTR misses = 7, DATA misses = 0. Winner = DATA
[DUEL] Epoch ended. INSTR misses = 6, DATA misses = 7. Winner = INSTR
[DUEL] Epoch ended. INSTR misses = 0, DATA misses = 0. Winner = INSTR
[DUEL] Epoch ended. INSTR misses = 0, DATA misses = 0. Winner = INSTR
[DUEL] Epoch ended. INSTR misses = 1, DATA misses = 4. Winner = INSTR
[DUEL] Epoch ended. INSTR misses = 1, DATA misses = 0. Winner = DATA
[DUEL] Epoch ended. INSTR misses = 15, DATA misses = 5. Winner = DATA
[DUEL] Epoch ended. INSTR misses = 8, DATA misses = 4. Winner = DATA
[DUEL] Epoch ended. INSTR misses = 8, DATA misses = 14. Winner = INSTR
[DUEL] Epoch ended. INSTR misses = 1, DATA misses = 1. Winner = INSTR
[DUEL] Epoch ended. INSTR misses = 0, DATA misses = 0. Winner = INSTR
[DUEL] Epoch ended. INSTR misses = 13, DATA misses = 1. Winner = DATA
Heartbeat CPU 0 instructions: 70000008 cycles: 21311049 heartbeat IPC: 3.031 cumulative IPC: 2.512 (Simulation time: 00 hr 03 min 55 sec)
[DUEL] Epoch ended. INSTR misses = 0, DATA misses = 0. Winner = INSTR
[DUEL] Epoch ended. INSTR misses = 7, DATA misses = 3. Winner = DATA
[DUEL] Epoch ended. INSTR misses = 14, DATA misses = 9. Winner = DATA
[DUEL] Epoch ended. INSTR misses = 0, DATA misses = 1. Winner = INSTR
[DUEL] Epoch ended. INSTR misses = 20, DATA misses = 15. Winner = DATA
[DUEL] Epoch ended. INSTR misses = 17, DATA misses = 16. Winner = DATA
[DUEL] Epoch ended. INSTR misses = 22, DATA misses = 18. Winner = DATA
[DUEL] Epoch ended. INSTR misses = 18, DATA misses = 16. Winner = DATA
[DUEL] Epoch ended. INSTR misses = 26, DATA misses = 24. Winner = DATA
[DUEL] Epoch ended. INSTR misses = 37, DATA misses = 31. Winner = DATA
[DUEL] Epoch ended. INSTR misses = 46, DATA misses = 47. Winner = INSTR
[DUEL] Epoch ended. INSTR misses = 20, DATA misses = 24. Winner = INSTR
[DUEL] Epoch ended. INSTR misses = 32, DATA misses = 22. Winner = DATA
[DUEL] Epoch ended. INSTR misses = 37, DATA misses = 42. Winner = INSTR
[DUEL] Epoch ended. INSTR misses = 19, DATA misses = 16. Winner = DATA
[DUEL] Epoch ended. INSTR misses = 12, DATA misses = 21. Winner = INSTR
[DUEL] Epoch ended. INSTR misses = 38, DATA misses = 34. Winner = DATA
[DUEL] Epoch ended. INSTR misses = 26, DATA misses = 29. Winner = INSTR
[DUEL] Epoch ended. INSTR misses = 28, DATA misses = 37. Winner = INSTR
Heartbeat CPU 0 instructions: 80000000 cycles: 25758454 heartbeat IPC: 2.249 cumulative IPC: 2.454 (Simulation time: 00 hr 04 min 40 sec)
[DUEL] Epoch ended. INSTR misses = 56, DATA misses = 52. Winner = DATA
[DUEL] Epoch ended. INSTR misses = 25, DATA misses = 27. Winner = INSTR
[DUEL] Epoch ended. INSTR misses = 31, DATA misses = 30. Winner = DATA
[DUEL] Epoch ended. INSTR misses = 31, DATA misses = 29. Winner = DATA
[DUEL] Epoch ended. INSTR misses = 16, DATA misses = 24. Winner = INSTR
[DUEL] Epoch ended. INSTR misses = 37, DATA misses = 22. Winner = DATA
[DUEL] Epoch ended. INSTR misses = 38, DATA misses = 54. Winner = INSTR
[DUEL] Epoch ended. INSTR misses = 46, DATA misses = 35. Winner = DATA
[DUEL] Epoch ended. INSTR misses = 40, DATA misses = 28. Winner = DATA
[DUEL] Epoch ended. INSTR misses = 20, DATA misses = 31. Winner = INSTR
[DUEL] Epoch ended. INSTR misses = 16, DATA misses = 26. Winner = INSTR
[DUEL] Epoch ended. INSTR misses = 59, DATA misses = 49. Winner = DATA
[DUEL] Epoch ended. INSTR misses = 15, DATA misses = 20. Winner = INSTR
[DUEL] Epoch ended. INSTR misses = 30, DATA misses = 39. Winner = INSTR
[DUEL] Epoch ended. INSTR misses = 48, DATA misses = 39. Winner = DATA
[DUEL] Epoch ended. INSTR misses = 30, DATA misses = 37. Winner = INSTR
[DUEL] Epoch ended. INSTR misses = 31, DATA misses = 20. Winner = DATA
[DUEL] Epoch ended. INSTR misses = 46, DATA misses = 52. Winner = INSTR
[DUEL] Epoch ended. INSTR misses = 35, DATA misses = 41. Winner = INSTR
Heartbeat CPU 0 instructions: 90000008 cycles: 30170441 heartbeat IPC: 2.267 cumulative IPC: 2.421 (Simulation time: 00 hr 05 min 26 sec)
[DUEL] Epoch ended. INSTR misses = 43, DATA misses = 38. Winner = DATA
[DUEL] Epoch ended. INSTR misses = 31, DATA misses = 28. Winner = DATA
[DUEL] Epoch ended. INSTR misses = 43, DATA misses = 41. Winner = DATA
*** Reached end of trace: (0, "../traces/public_traces/srv/srv_40.champsimtrace.xz")
[DUEL] Epoch ended. INSTR misses = 74, DATA misses = 74. Winner = INSTR
[DUEL] Epoch ended. INSTR misses = 24, DATA misses = 18. Winner = DATA
[DUEL] Epoch ended. INSTR misses = 7, DATA misses = 3. Winner = DATA
[DUEL] Epoch ended. INSTR misses = 21, DATA misses = 6. Winner = DATA
[DUEL] Epoch ended. INSTR misses = 9, DATA misses = 0. Winner = DATA
[DUEL] Epoch ended. INSTR misses = 10, DATA misses = 7. Winner = DATA
[DUEL] Epoch ended. INSTR misses = 0, DATA misses = 0. Winner = INSTR
[DUEL] Epoch ended. INSTR misses = 0, DATA misses = 0. Winner = INSTR
[DUEL] Epoch ended. INSTR misses = 0, DATA misses = 3. Winner = INSTR
[DUEL] Epoch ended. INSTR misses = 0, DATA misses = 0. Winner = INSTR
[DUEL] Epoch ended. INSTR misses = 11, DATA misses = 5. Winner = DATA
[DUEL] Epoch ended. INSTR misses = 8, DATA misses = 3. Winner = DATA
[DUEL] Epoch ended. INSTR misses = 8, DATA misses = 14. Winner = INSTR
[DUEL] Epoch ended. INSTR misses = 2, DATA misses = 1. Winner = DATA
[DUEL] Epoch ended. INSTR misses = 0, DATA misses = 0. Winner = INSTR
Heartbeat CPU 0 instructions: 100000007 cycles: 33595258 heartbeat IPC: 2.92 cumulative IPC: 2.482 (Simulation time: 00 hr 06 min 03 sec)
[DUEL] Epoch ended. INSTR misses = 8, DATA misses = 1. Winner = DATA
[DUEL] Epoch ended. INSTR misses = 0, DATA misses = 0. Winner = INSTR
[DUEL] Epoch ended. INSTR misses = 15, DATA misses = 11. Winner = DATA
[DUEL] Epoch ended. INSTR misses = 15, DATA misses = 9. Winner = DATA
[DUEL] Epoch ended. INSTR misses = 1, DATA misses = 0. Winner = DATA
[DUEL] Epoch ended. INSTR misses = 20, DATA misses = 14. Winner = DATA
[DUEL] Epoch ended. INSTR misses = 17, DATA misses = 16. Winner = DATA
[DUEL] Epoch ended. INSTR misses = 23, DATA misses = 17. Winner = DATA
[DUEL] Epoch ended. INSTR misses = 17, DATA misses = 16. Winner = DATA
[DUEL] Epoch ended. INSTR misses = 26, DATA misses = 24. Winner = DATA
[DUEL] Epoch ended. INSTR misses = 38, DATA misses = 31. Winner = DATA
[DUEL] Epoch ended. INSTR misses = 47, DATA misses = 47. Winner = INSTR
[DUEL] Epoch ended. INSTR misses = 21, DATA misses = 24. Winner = INSTR
[DUEL] Epoch ended. INSTR misses = 32, DATA misses = 21. Winner = DATA
[DUEL] Epoch ended. INSTR misses = 35, DATA misses = 41. Winner = INSTR
[DUEL] Epoch ended. INSTR misses = 18, DATA misses = 16. Winner = DATA
[DUEL] Epoch ended. INSTR misses = 14, DATA misses = 22. Winner = INSTR
[DUEL] Epoch ended. INSTR misses = 36, DATA misses = 32. Winner = DATA
[DUEL] Epoch ended. INSTR misses = 26, DATA misses = 29. Winner = INSTR
Heartbeat CPU 0 instructions: 110000003 cycles: 37781935 heartbeat IPC: 2.389 cumulative IPC: 2.47 (Simulation time: 00 hr 06 min 47 sec)
[DUEL] Epoch ended. INSTR misses = 28, DATA misses = 38. Winner = INSTR
[DUEL] Epoch ended. INSTR misses = 55, DATA misses = 51. Winner = DATA
[DUEL] Epoch ended. INSTR misses = 25, DATA misses = 27. Winner = INSTR
[DUEL] Epoch ended. INSTR misses = 31, DATA misses = 30. Winner = DATA
[DUEL] Epoch ended. INSTR misses = 31, DATA misses = 29. Winner = DATA
[DUEL] Epoch ended. INSTR misses = 16, DATA misses = 24. Winner = INSTR
[DUEL] Epoch ended. INSTR misses = 34, DATA misses = 22. Winner = DATA
[DUEL] Epoch ended. INSTR misses = 41, DATA misses = 54. Winner = INSTR
[DUEL] Epoch ended. INSTR misses = 46, DATA misses = 35. Winner = DATA
[DUEL] Epoch ended. INSTR misses = 36, DATA misses = 28. Winner = DATA
[DUEL] Epoch ended. INSTR misses = 24, DATA misses = 31. Winner = INSTR
[DUEL] Epoch ended. INSTR misses = 16, DATA misses = 27. Winner = INSTR
[DUEL] Epoch ended. INSTR misses = 59, DATA misses = 48. Winner = DATA
[DUEL] Epoch ended. INSTR misses = 15, DATA misses = 20. Winner = INSTR
[DUEL] Epoch ended. INSTR misses = 30, DATA misses = 40. Winner = INSTR
[DUEL] Epoch ended. INSTR misses = 48, DATA misses = 39. Winner = DATA
[DUEL] Epoch ended. INSTR misses = 30, DATA misses = 36. Winner = INSTR
[DUEL] Epoch ended. INSTR misses = 31, DATA misses = 20. Winner = DATA
[DUEL] Epoch ended. INSTR misses = 46, DATA misses = 52. Winner = INSTR
Heartbeat CPU 0 instructions: 120000001 cycles: 42144293 heartbeat IPC: 2.292 cumulative IPC: 2.449 (Simulation time: 00 hr 07 min 32 sec)
[DUEL] Epoch ended. INSTR misses = 35, DATA misses = 41. Winner = INSTR
[DUEL] Epoch ended. INSTR misses = 43, DATA misses = 38. Winner = DATA
[DUEL] Epoch ended. INSTR misses = 30, DATA misses = 28. Winner = DATA
[DUEL] Epoch ended. INSTR misses = 43, DATA misses = 41. Winner = DATA
*** Reached end of trace: (0, "../traces/public_traces/srv/srv_40.champsimtrace.xz")
[DUEL] Epoch ended. INSTR misses = 72, DATA misses = 74. Winner = INSTR
[DUEL] Epoch ended. INSTR misses = 28, DATA misses = 18. Winner = DATA
[DUEL] Epoch ended. INSTR misses = 7, DATA misses = 3. Winner = DATA
[DUEL] Epoch ended. INSTR misses = 25, DATA misses = 6. Winner = DATA
[DUEL] Epoch ended. INSTR misses = 10, DATA misses = 0. Winner = DATA
[DUEL] Epoch ended. INSTR misses = 5, DATA misses = 7. Winner = INSTR
[DUEL] Epoch ended. INSTR misses = 0, DATA misses = 0. Winner = INSTR
[DUEL] Epoch ended. INSTR misses = 0, DATA misses = 0. Winner = INSTR
[DUEL] Epoch ended. INSTR misses = 0, DATA misses = 3. Winner = INSTR
[DUEL] Epoch ended. INSTR misses = 0, DATA misses = 0. Winner = INSTR
[DUEL] Epoch ended. INSTR misses = 11, DATA misses = 5. Winner = DATA
[DUEL] Epoch ended. INSTR misses = 8, DATA misses = 3. Winner = DATA
[DUEL] Epoch ended. INSTR misses = 8, DATA misses = 14. Winner = INSTR
[DUEL] Epoch ended. INSTR misses = 1, DATA misses = 1. Winner = INSTR
Heartbeat CPU 0 instructions: 130000000 cycles: 45698920 heartbeat IPC: 2.813 cumulative IPC: 2.481 (Simulation time: 00 hr 08 min 10 sec)
Simulation finished CPU 0 instructions: 100000002 cycles: 40311526 cumulative IPC: 2.481 (Simulation time: 00 hr 08 min 10 sec)
Simulation complete CPU 0 instructions: 100000002 cycles: 40311526 cumulative IPC: 2.481 (Simulation time: 00 hr 08 min 10 sec)

ChampSim completed all CPUs

=== Simulation ===
CPU 0 runs ../traces/public_traces/srv/srv_40.champsimtrace.xz
Region of Interest Statistics

CPU 0 cumulative IPC: 2.481 instructions: 100000002 cycles: 40311526
CPU 0 Branch Prediction Accuracy: 98.44% MPKI: 1.295 Average ROB Occupancy at Mispredict: 48.29
Branch type MPKI
BRANCH_DIRECT_JUMP: 0.114
BRANCH_INDIRECT: 0.538
BRANCH_CONDITIONAL: 0.248
BRANCH_DIRECT_CALL: 0.212
BRANCH_INDIRECT_CALL: 0.047
BRANCH_RETURN: 0.135

LLC TOTAL        ACCESS:    1304611 HIT:     288587 MISS:    1016024
LLC LOAD         ACCESS:     112284 HIT:      12544 MISS:      99740
LLC RFO          ACCESS:     446383 HIT:      85103 MISS:     361280
LLC PREFETCH     ACCESS:     246317 HIT:      20212 MISS:     226105
LLC WRITE        ACCESS:     484993 HIT:     170259 MISS:     314734
LLC TRANSLATION  ACCESS:      14634 HIT:        469 MISS:      14165
LLC PREFETCH REQUESTED:          0 ISSUED:          0 USEFUL:          0 USELESS:          0
LLC AVERAGE MISS LATENCY: 239.9 cycles
cpu0_DTLB TOTAL        ACCESS:   19113159 HIT:   18878946 MISS:     234213
cpu0_DTLB LOAD         ACCESS:   19113159 HIT:   18878946 MISS:     234213
cpu0_DTLB RFO          ACCESS:          0 HIT:          0 MISS:          0
cpu0_DTLB PREFETCH     ACCESS:          0 HIT:          0 MISS:          0
cpu0_DTLB WRITE        ACCESS:          0 HIT:          0 MISS:          0
cpu0_DTLB TRANSLATION  ACCESS:          0 HIT:          0 MISS:          0
cpu0_DTLB PREFETCH REQUESTED:          0 ISSUED:          0 USEFUL:          0 USELESS:          0
cpu0_DTLB AVERAGE MISS LATENCY: 17.67 cycles
cpu0_ITLB TOTAL        ACCESS:    5104399 HIT:    5043830 MISS:      60569
cpu0_ITLB LOAD         ACCESS:    5104399 HIT:    5043830 MISS:      60569
cpu0_ITLB RFO          ACCESS:          0 HIT:          0 MISS:          0
cpu0_ITLB PREFETCH     ACCESS:          0 HIT:          0 MISS:          0
cpu0_ITLB WRITE        ACCESS:          0 HIT:          0 MISS:          0
cpu0_ITLB TRANSLATION  ACCESS:          0 HIT:          0 MISS:          0
cpu0_ITLB PREFETCH REQUESTED:          0 ISSUED:          0 USEFUL:          0 USELESS:          0
cpu0_ITLB AVERAGE MISS LATENCY: 18.62 cycles
cpu0_L1D TOTAL        ACCESS:   28537978 HIT:   24955888 MISS:    3582090
cpu0_L1D LOAD         ACCESS:   21260273 HIT:   20330470 MISS:     929803
cpu0_L1D RFO          ACCESS:          0 HIT:          0 MISS:          0
cpu0_L1D PREFETCH     ACCESS:     975243 HIT:     492251 MISS:     482992
cpu0_L1D WRITE        ACCESS:    6274243 HIT:    4124040 MISS:    2150203
cpu0_L1D TRANSLATION  ACCESS:      28219 HIT:       9127 MISS:      19092
cpu0_L1D PREFETCH REQUESTED:   17500088 ISSUED:     975273 USEFUL:      39059 USELESS:       1799
cpu0_L1D AVERAGE MISS LATENCY: 55.88 cycles
cpu0_L1I TOTAL        ACCESS:    7573531 HIT:    6543281 MISS:    1030250
cpu0_L1I LOAD         ACCESS:    2668590 HIT:    2225075 MISS:     443515
cpu0_L1I RFO          ACCESS:          0 HIT:          0 MISS:          0
cpu0_L1I PREFETCH     ACCESS:    4904941 HIT:    4318206 MISS:     586735
cpu0_L1I WRITE        ACCESS:          0 HIT:          0 MISS:          0
cpu0_L1I TRANSLATION  ACCESS:          0 HIT:          0 MISS:          0
cpu0_L1I PREFETCH REQUESTED:   10231680 ISSUED:    4904952 USEFUL:     406626 USELESS:     148395
cpu0_L1I AVERAGE MISS LATENCY: 19.58 cycles
cpu0_L2C TOTAL        ACCESS:    4623509 HIT:    3301145 MISS:    1322364
cpu0_L2C LOAD         ACCESS:     885127 HIT:     699866 MISS:     185261
cpu0_L2C RFO          ACCESS:     521407 HIT:      74217 MISS:     447190
cpu0_L2C PREFETCH     ACCESS:    2560025 HIT:    1884746 MISS:     675279
cpu0_L2C WRITE        ACCESS:     638498 HIT:     638498 MISS:          0
cpu0_L2C TRANSLATION  ACCESS:      18452 HIT:       3818 MISS:      14634
cpu0_L2C PREFETCH REQUESTED:    1800431 ISSUED:    1645311 USEFUL:      87533 USELESS:      38173
cpu0_L2C AVERAGE MISS LATENCY: 188.2 cycles
cpu0_STLB TOTAL        ACCESS:     135331 HIT:     113142 MISS:      22189
cpu0_STLB LOAD         ACCESS:     135331 HIT:     113142 MISS:      22189
cpu0_STLB RFO          ACCESS:          0 HIT:          0 MISS:          0
cpu0_STLB PREFETCH     ACCESS:          0 HIT:          0 MISS:          0
cpu0_STLB WRITE        ACCESS:          0 HIT:          0 MISS:          0
cpu0_STLB TRANSLATION  ACCESS:          0 HIT:          0 MISS:          0
cpu0_STLB PREFETCH REQUESTED:          0 ISSUED:          0 USEFUL:          0 USELESS:          0
cpu0_STLB AVERAGE MISS LATENCY: 233.3 cycles

DRAM Statistics

Channel 0 RQ ROW_BUFFER_HIT:     196761
  ROW_BUFFER_MISS:     154315
 AVG DBUS CONGESTED CYCLE: 3.954
WQ ROW_BUFFER_HIT: Channel 0 
  ROW_BUFFER_MISS:      19364
  FULL:     173200

Channel 1 RQ ROW_BUFFER_HIT:     196965
  ROW_BUFFER_MISS:     153236
 AVG DBUS CONGESTED CYCLE: 3.955
WQ ROW_BUFFER_HIT: Channel 1 
  ROW_BUFFER_MISS:      18786
  FULL:     172522
BERTI TO_L1: 974375 TO_L2: 17409184 TO_L2_BC_MSHR: 10309141
BERTI AVG_LAT: 89.6128 NUM_TRACK_LATENCY: 848088 NUM_CANT_TRACK_LATENCY: 0
BERTI CROSS_PAGE 2688161 NO_CROSS_PAGE: 15695398
BERTI FOUND_BERTI: 5557382 NO_FOUND_BERTI: 25148685
BERTI AVERAGE_ISSUED: 5.97841
CPU 0 L1I Entangling prefetcher final stats
IP accesses: f81d 3e0740 82886 / 2693598
IP misses: 15b2 56c80 2661 / 468523
IP hits: 0 0 0 / 0
IP late: a6c6 29b180 986 / 195162
IP wrong: 42ee 10bb80 1155 / 147267
miss rate: 0.17394
coverage: 0
coverage_late: 0.416548
accuracy: 0
accuracy_late: 0.569935
discarded: 0
evicts entangled j table: 0
evicts entangled k table: 44811
max bb size: 38
formats: 12397 0 31175 6397 4984 7999 0 
hist_lookups: 11462 20919 27093 32275 27362 22641 17133 12576 10360 8122 7646 5513 3280 1618 692 0 51 58092 
hist_lookups_evict: 0.019113 %
hist_lookups_shortlat: 21.7708 %
bb_found_hist: 0 641824 321094 144940 76266 26841 8808 19411 1975 2067 6038 209 51 0 0 0 0 400 0 0 0 0 0 0 0 0 0 557 0 0 862 0 0 0 0 0 2476 0 1664 0 0 0 0 0 0 0 0 0 0 0 0 0 0 0 0 0 0 0 0 0 0 0 0 0 
bb_found_summary: 2644587 1255483 2.10643
entangled_found_hist: 0 378814 235113 501657 129979 48894 12312 0 
entangled_found_summary: 3192269 1306769 2.44288
bb_ent_found_hist: 0 940564 432294 371549 160238 113983 18867 46738 5646 1250 19472 812 306 0 0 0 0 1301 0 0 0 0 0 0 0 0 0 24 0 0 0 0 0 0 0 0 204 0 7614 0 0 0 0 0 0 0 0 0 0 0 0 0 0 0 0 0 0 0 0 0 0 0 0 0 
bb_ent_found_summary: 5154217 2120862 2.43025
