WARNING: physical memory size is smaller than virtual memory size.

*** ChampSim Multicore Out-of-Order Simulator ***
Warmup Instructions: 30000000
Simulation Instructions: 100000000
Number of CPUs: 1
Page size: 4096

BTB:
Basic BTB sets: 1024 ways: 8
Indirect:
history lengths: 0 0 10 16 27 44 60 96 109 219 449 487 714 1313 2146 3881 
ITTAGE tables: 64768 bytes;Region table: 240 bytes;IUM: 384 bytes;Total Storage= 65392 bytes;
RAS:
RAS size: 64
[LLC] INSTR Demand IPV: 1 2 2 1 4 Prefetch IPV: 1 2 1 1 4
[LLC] DATA  Demand IPV: 1 1 1 2 4 Prefetch IPV: 1 1 2 2 4
Berti Prefetcher
CPU 0 Entangling prefetcher
Off-chip DRAM Size: 8 GiB Channels: 2 Width: 64-bit Data Race: 6400 MT/s
[DUEL] Epoch ended. INSTR misses = 27, DATA misses = 21. Winner = DATA
[DUEL] Epoch ended. INSTR misses = 24, DATA misses = 8. Winner = DATA
[DUEL] Epoch ended. INSTR misses = 22, DATA misses = 22. Winner = INSTR
[DUEL] Epoch ended. INSTR misses = 8, DATA misses = 0. Winner = DATA
[DUEL] Epoch ended. INSTR misses = 2, DATA misses = 1. Winner = DATA
[DUEL] Epoch ended. INSTR misses = 4, DATA misses = 0. Winner = DATA
[DUEL] Epoch ended. INSTR misses = 0, DATA misses = 0. Winner = INSTR
[DUEL] Epoch ended. INSTR misses = 0, DATA misses = 0. Winner = INSTR
[DUEL] Epoch ended. INSTR misses = 6, DATA misses = 11. Winner = INSTR
[DUEL] Epoch ended. INSTR misses = 5, DATA misses = 2. Winner = DATA
[DUEL] Epoch ended. INSTR misses = 1, DATA misses = 0. Winner = DATA
[DUEL] Epoch ended. INSTR misses = 0, DATA misses = 0. Winner = INSTR
[DUEL] Epoch ended. INSTR misses = 1, DATA misses = 0. Winner = DATA
[DUEL] Epoch ended. INSTR misses = 5, DATA misses = 13. Winner = INSTR
[DUEL] Epoch ended. INSTR misses = 4, DATA misses = 1. Winner = DATA
[DUEL] Epoch ended. INSTR misses = 3, DATA misses = 1. Winner = DATA
[DUEL] Epoch ended. INSTR misses = 15, DATA misses = 13. Winner = DATA
[DUEL] Epoch ended. INSTR misses = 21, DATA misses = 12. Winner = DATA
[DUEL] Epoch ended. INSTR misses = 1, DATA misses = 4. Winner = INSTR
Heartbeat CPU 0 instructions: 10000002 cycles: 1732151 heartbeat IPC: 5.773 cumulative IPC: 5.773 (Simulation time: 00 hr 00 min 26 sec)
[DUEL] Epoch ended. INSTR misses = 5, DATA misses = 3. Winner = DATA
[DUEL] Epoch ended. INSTR misses = 9, DATA misses = 9. Winner = INSTR
[DUEL] Epoch ended. INSTR misses = 1, DATA misses = 0. Winner = DATA
[DUEL] Epoch ended. INSTR misses = 2, DATA misses = 0. Winner = DATA
[DUEL] Epoch ended. INSTR misses = 20, DATA misses = 18. Winner = DATA
[DUEL] Epoch ended. INSTR misses = 2, DATA misses = 0. Winner = DATA
[DUEL] Epoch ended. INSTR misses = 5, DATA misses = 0. Winner = DATA
[DUEL] Epoch ended. INSTR misses = 12, DATA misses = 14. Winner = INSTR
[DUEL] Epoch ended. INSTR misses = 11, DATA misses = 7. Winner = DATA
[DUEL] Epoch ended. INSTR misses = 8, DATA misses = 5. Winner = DATA
[DUEL] Epoch ended. INSTR misses = 1, DATA misses = 3. Winner = INSTR
[DUEL] Epoch ended. INSTR misses = 0, DATA misses = 0. Winner = INSTR
[DUEL] Epoch ended. INSTR misses = 0, DATA misses = 0. Winner = INSTR
[DUEL] Epoch ended. INSTR misses = 3, DATA misses = 3. Winner = INSTR
[DUEL] Epoch ended. INSTR misses = 3, DATA misses = 0. Winner = DATA
[DUEL] Epoch ended. INSTR misses = 5, DATA misses = 0. Winner = DATA
[DUEL] Epoch ended. INSTR misses = 0, DATA misses = 0. Winner = INSTR
[DUEL] Epoch ended. INSTR misses = 5, DATA misses = 0. Winner = DATA
[DUEL] Epoch ended. INSTR misses = 2, DATA misses = 2. Winner = INSTR
Heartbeat CPU 0 instructions: 20000003 cycles: 3467582 heartbeat IPC: 5.762 cumulative IPC: 5.768 (Simulation time: 00 hr 00 min 52 sec)
[DUEL] Epoch ended. INSTR misses = 13, DATA misses = 18. Winner = INSTR
[DUEL] Epoch ended. INSTR misses = 1, DATA misses = 5. Winner = INSTR
[DUEL] Epoch ended. INSTR misses = 6, DATA misses = 7. Winner = INSTR
[DUEL] Epoch ended. INSTR misses = 0, DATA misses = 0. Winner = INSTR
[DUEL] Epoch ended. INSTR misses = 0, DATA misses = 0. Winner = INSTR
[DUEL] Epoch ended. INSTR misses = 3, DATA misses = 1. Winner = DATA
[DUEL] Epoch ended. INSTR misses = 2, DATA misses = 1. Winner = DATA
[DUEL] Epoch ended. INSTR misses = 1, DATA misses = 2. Winner = INSTR
[DUEL] Epoch ended. INSTR misses = 1, DATA misses = 0. Winner = DATA
[DUEL] Epoch ended. INSTR misses = 3, DATA misses = 0. Winner = DATA
[DUEL] Epoch ended. INSTR misses = 17, DATA misses = 17. Winner = INSTR
[DUEL] Epoch ended. INSTR misses = 10, DATA misses = 2. Winner = DATA
[DUEL] Epoch ended. INSTR misses = 9, DATA misses = 1. Winner = DATA
[DUEL] Epoch ended. INSTR misses = 32, DATA misses = 27. Winner = DATA
[DUEL] Epoch ended. INSTR misses = 9, DATA misses = 4. Winner = DATA
[DUEL] Epoch ended. INSTR misses = 0, DATA misses = 0. Winner = INSTR
[DUEL] Epoch ended. INSTR misses = 2, DATA misses = 0. Winner = DATA
[DUEL] Epoch ended. INSTR misses = 1, DATA misses = 3. Winner = INSTR
[DUEL] Epoch ended. INSTR misses = 0, DATA misses = 1. Winner = INSTR
Heartbeat CPU 0 instructions: 30000004 cycles: 5193122 heartbeat IPC: 5.795 cumulative IPC: 5.777 (Simulation time: 00 hr 01 min 18 sec)
Warmup finished CPU 0 instructions: 30000004 cycles: 5193123 cumulative IPC: 5.777 (Simulation time: 00 hr 01 min 18 sec)
Warmup complete CPU 0 instructions: 30000004 cycles: 5193123 cumulative IPC: 5.777 (Simulation time: 00 hr 01 min 18 sec)
[DUEL] Epoch ended. INSTR misses = 0, DATA misses = 0. Winner = INSTR
[DUEL] Epoch ended. INSTR misses = 11, DATA misses = 15. Winner = INSTR
*** Reached end of trace: (0, "../traces/public_traces/srv/srv_55.champsimtrace.xz")
[DUEL] Epoch ended. INSTR misses = 3, DATA misses = 0. Winner = DATA
[DUEL] Epoch ended. INSTR misses = 3, DATA misses = 1. Winner = DATA
[DUEL] Epoch ended. INSTR misses = 2, DATA misses = 2. Winner = INSTR
[DUEL] Epoch ended. INSTR misses = 1, DATA misses = 2. Winner = INSTR
[DUEL] Epoch ended. INSTR misses = 3, DATA misses = 0. Winner = DATA
[DUEL] Epoch ended. INSTR misses = 2, DATA misses = 2. Winner = INSTR
[DUEL] Epoch ended. INSTR misses = 0, DATA misses = 0. Winner = INSTR
[DUEL] Epoch ended. INSTR misses = 0, DATA misses = 0. Winner = INSTR
[DUEL] Epoch ended. INSTR misses = 3, DATA misses = 2. Winner = DATA
[DUEL] Epoch ended. INSTR misses = 5, DATA misses = 2. Winner = DATA
[DUEL] Epoch ended. INSTR misses = 2, DATA misses = 1. Winner = DATA
[DUEL] Epoch ended. INSTR misses = 0, DATA misses = 0. Winner = INSTR
[DUEL] Epoch ended. INSTR misses = 0, DATA misses = 0. Winner = INSTR
[DUEL] Epoch ended. INSTR misses = 0, DATA misses = 0. Winner = INSTR
[DUEL] Epoch ended. INSTR misses = 1, DATA misses = 2. Winner = INSTR
[DUEL] Epoch ended. INSTR misses = 0, DATA misses = 0. Winner = INSTR
[DUEL] Epoch ended. INSTR misses = 0, DATA misses = 1. Winner = INSTR
[DUEL] Epoch ended. INSTR misses = 15, DATA misses = 2. Winner = DATA
Heartbeat CPU 0 instructions: 40000006 cycles: 9243919 heartbeat IPC: 2.469 cumulative IPC: 2.469 (Simulation time: 00 hr 01 min 58 sec)
[DUEL] Epoch ended. INSTR misses = 6, DATA misses = 0. Winner = DATA
[DUEL] Epoch ended. INSTR misses = 1, DATA misses = 0. Winner = DATA
[DUEL] Epoch ended. INSTR misses = 0, DATA misses = 2. Winner = INSTR
[DUEL] Epoch ended. INSTR misses = 3, DATA misses = 0. Winner = DATA
[DUEL] Epoch ended. INSTR misses = 2, DATA misses = 0. Winner = DATA
[DUEL] Epoch ended. INSTR misses = 1, DATA misses = 1. Winner = INSTR
[DUEL] Epoch ended. INSTR misses = 5, DATA misses = 2. Winner = DATA
[DUEL] Epoch ended. INSTR misses = 1, DATA misses = 1. Winner = INSTR
[DUEL] Epoch ended. INSTR misses = 3, DATA misses = 1. Winner = DATA
[DUEL] Epoch ended. INSTR misses = 9, DATA misses = 4. Winner = DATA
[DUEL] Epoch ended. INSTR misses = 7, DATA misses = 2. Winner = DATA
[DUEL] Epoch ended. INSTR misses = 2, DATA misses = 0. Winner = DATA
[DUEL] Epoch ended. INSTR misses = 1, DATA misses = 0. Winner = DATA
[DUEL] Epoch ended. INSTR misses = 0, DATA misses = 0. Winner = INSTR
[DUEL] Epoch ended. INSTR misses = 0, DATA misses = 1. Winner = INSTR
[DUEL] Epoch ended. INSTR misses = 3, DATA misses = 0. Winner = DATA
[DUEL] Epoch ended. INSTR misses = 5, DATA misses = 0. Winner = DATA
[DUEL] Epoch ended. INSTR misses = 0, DATA misses = 0. Winner = INSTR
Heartbeat CPU 0 instructions: 50000000 cycles: 13244612 heartbeat IPC: 2.5 cumulative IPC: 2.484 (Simulation time: 00 hr 02 min 37 sec)
[DUEL] Epoch ended. INSTR misses = 5, DATA misses = 0. Winner = DATA
[DUEL] Epoch ended. INSTR misses = 2, DATA misses = 1. Winner = DATA
[DUEL] Epoch ended. INSTR misses = 4, DATA misses = 10. Winner = INSTR
[DUEL] Epoch ended. INSTR misses = 0, DATA misses = 3. Winner = INSTR
[DUEL] Epoch ended. INSTR misses = 6, DATA misses = 7. Winner = INSTR
[DUEL] Epoch ended. INSTR misses = 0, DATA misses = 0. Winner = INSTR
[DUEL] Epoch ended. INSTR misses = 1, DATA misses = 0. Winner = DATA
[DUEL] Epoch ended. INSTR misses = 4, DATA misses = 1. Winner = DATA
[DUEL] Epoch ended. INSTR misses = 3, DATA misses = 1. Winner = DATA
[DUEL] Epoch ended. INSTR misses = 1, DATA misses = 0. Winner = DATA
[DUEL] Epoch ended. INSTR misses = 1, DATA misses = 0. Winner = DATA
[DUEL] Epoch ended. INSTR misses = 5, DATA misses = 1. Winner = DATA
[DUEL] Epoch ended. INSTR misses = 6, DATA misses = 6. Winner = INSTR
[DUEL] Epoch ended. INSTR misses = 5, DATA misses = 3. Winner = DATA
[DUEL] Epoch ended. INSTR misses = 2, DATA misses = 2. Winner = INSTR
[DUEL] Epoch ended. INSTR misses = 26, DATA misses = 20. Winner = DATA
[DUEL] Epoch ended. INSTR misses = 7, DATA misses = 4. Winner = DATA
[DUEL] Epoch ended. INSTR misses = 0, DATA misses = 0. Winner = INSTR
[DUEL] Epoch ended. INSTR misses = 0, DATA misses = 0. Winner = INSTR
[DUEL] Epoch ended. INSTR misses = 1, DATA misses = 2. Winner = INSTR
Heartbeat CPU 0 instructions: 60000000 cycles: 17274452 heartbeat IPC: 2.481 cumulative IPC: 2.483 (Simulation time: 00 hr 03 min 17 sec)
[DUEL] Epoch ended. INSTR misses = 0, DATA misses = 0. Winner = INSTR
[DUEL] Epoch ended. INSTR misses = 0, DATA misses = 0. Winner = INSTR
[DUEL] Epoch ended. INSTR misses = 5, DATA misses = 12. Winner = INSTR
*** Reached end of trace: (0, "../traces/public_traces/srv/srv_55.champsimtrace.xz")
[DUEL] Epoch ended. INSTR misses = 3, DATA misses = 0. Winner = DATA
[DUEL] Epoch ended. INSTR misses = 0, DATA misses = 1. Winner = INSTR
[DUEL] Epoch ended. INSTR misses = 3, DATA misses = 1. Winner = DATA
[DUEL] Epoch ended. INSTR misses = 1, DATA misses = 2. Winner = INSTR
[DUEL] Epoch ended. INSTR misses = 1, DATA misses = 0. Winner = DATA
[DUEL] Epoch ended. INSTR misses = 6, DATA misses = 2. Winner = DATA
[DUEL] Epoch ended. INSTR misses = 0, DATA misses = 0. Winner = INSTR
[DUEL] Epoch ended. INSTR misses = 0, DATA misses = 0. Winner = INSTR
[DUEL] Epoch ended. INSTR misses = 3, DATA misses = 1. Winner = DATA
[DUEL] Epoch ended. INSTR misses = 3, DATA misses = 0. Winner = DATA
[DUEL] Epoch ended. INSTR misses = 5, DATA misses = 1. Winner = DATA
[DUEL] Epoch ended. INSTR misses = 0, DATA misses = 0. Winner = INSTR
[DUEL] Epoch ended. INSTR misses = 0, DATA misses = 0. Winner = INSTR
[DUEL] Epoch ended. INSTR misses = 0, DATA misses = 0. Winner = INSTR
[DUEL] Epoch ended. INSTR misses = 1, DATA misses = 2. Winner = INSTR
[DUEL] Epoch ended. INSTR misses = 2, DATA misses = 0. Winner = DATA
Heartbeat CPU 0 instructions: 70000007 cycles: 20947521 heartbeat IPC: 2.723 cumulative IPC: 2.539 (Simulation time: 00 hr 03 min 55 sec)
[DUEL] Epoch ended. INSTR misses = 0, DATA misses = 2. Winner = INSTR
[DUEL] Epoch ended. INSTR misses = 18, DATA misses = 2. Winner = DATA
[DUEL] Epoch ended. INSTR misses = 5, DATA misses = 0. Winner = DATA
[DUEL] Epoch ended. INSTR misses = 3, DATA misses = 0. Winner = DATA
[DUEL] Epoch ended. INSTR misses = 2, DATA misses = 0. Winner = DATA
[DUEL] Epoch ended. INSTR misses = 6, DATA misses = 0. Winner = DATA
[DUEL] Epoch ended. INSTR misses = 3, DATA misses = 0. Winner = DATA
[DUEL] Epoch ended. INSTR misses = 0, DATA misses = 1. Winner = INSTR
[DUEL] Epoch ended. INSTR misses = 7, DATA misses = 2. Winner = DATA
[DUEL] Epoch ended. INSTR misses = 3, DATA misses = 1. Winner = DATA
[DUEL] Epoch ended. INSTR misses = 1, DATA misses = 1. Winner = INSTR
[DUEL] Epoch ended. INSTR misses = 9, DATA misses = 4. Winner = DATA
[DUEL] Epoch ended. INSTR misses = 9, DATA misses = 2. Winner = DATA
[DUEL] Epoch ended. INSTR misses = 3, DATA misses = 0. Winner = DATA
[DUEL] Epoch ended. INSTR misses = 0, DATA misses = 0. Winner = INSTR
[DUEL] Epoch ended. INSTR misses = 0, DATA misses = 0. Winner = INSTR
[DUEL] Epoch ended. INSTR misses = 2, DATA misses = 1. Winner = DATA
[DUEL] Epoch ended. INSTR misses = 1, DATA misses = 0. Winner = DATA
[DUEL] Epoch ended. INSTR misses = 5, DATA misses = 0. Winner = DATA
Heartbeat CPU 0 instructions: 80000003 cycles: 25033896 heartbeat IPC: 2.447 cumulative IPC: 2.52 (Simulation time: 00 hr 04 min 35 sec)
[DUEL] Epoch ended. INSTR misses = 0, DATA misses = 0. Winner = INSTR
[DUEL] Epoch ended. INSTR misses = 2, DATA misses = 0. Winner = DATA
[DUEL] Epoch ended. INSTR misses = 2, DATA misses = 1. Winner = DATA
[DUEL] Epoch ended. INSTR misses = 3, DATA misses = 9. Winner = INSTR
[DUEL] Epoch ended. INSTR misses = 0, DATA misses = 3. Winner = INSTR
[DUEL] Epoch ended. INSTR misses = 6, DATA misses = 6. Winner = INSTR
[DUEL] Epoch ended. INSTR misses = 0, DATA misses = 0. Winner = INSTR
[DUEL] Epoch ended. INSTR misses = 0, DATA misses = 0. Winner = INSTR
[DUEL] Epoch ended. INSTR misses = 1, DATA misses = 0. Winner = DATA
[DUEL] Epoch ended. INSTR misses = 2, DATA misses = 1. Winner = DATA
[DUEL] Epoch ended. INSTR misses = 1, DATA misses = 0. Winner = DATA
[DUEL] Epoch ended. INSTR misses = 0, DATA misses = 0. Winner = INSTR
[DUEL] Epoch ended. INSTR misses = 3, DATA misses = 0. Winner = DATA
[DUEL] Epoch ended. INSTR misses = 3, DATA misses = 4. Winner = INSTR
[DUEL] Epoch ended. INSTR misses = 2, DATA misses = 2. Winner = INSTR
[DUEL] Epoch ended. INSTR misses = 0, DATA misses = 0. Winner = INSTR
[DUEL] Epoch ended. INSTR misses = 15, DATA misses = 16. Winner = INSTR
[DUEL] Epoch ended. INSTR misses = 6, DATA misses = 4. Winner = DATA
[DUEL] Epoch ended. INSTR misses = 0, DATA misses = 0. Winner = INSTR
Heartbeat CPU 0 instructions: 90000000 cycles: 28779630 heartbeat IPC: 2.67 cumulative IPC: 2.544 (Simulation time: 00 hr 05 min 13 sec)
[DUEL] Epoch ended. INSTR misses = 0, DATA misses = 1. Winner = INSTR
[DUEL] Epoch ended. INSTR misses = 1, DATA misses = 2. Winner = INSTR
[DUEL] Epoch ended. INSTR misses = 0, DATA misses = 0. Winner = INSTR
[DUEL] Epoch ended. INSTR misses = 0, DATA misses = 0. Winner = INSTR
[DUEL] Epoch ended. INSTR misses = 6, DATA misses = 11. Winner = INSTR
*** Reached end of trace: (0, "../traces/public_traces/srv/srv_55.champsimtrace.xz")
[DUEL] Epoch ended. INSTR misses = 2, DATA misses = 0. Winner = DATA
[DUEL] Epoch ended. INSTR misses = 0, DATA misses = 0. Winner = INSTR
[DUEL] Epoch ended. INSTR misses = 3, DATA misses = 1. Winner = DATA
[DUEL] Epoch ended. INSTR misses = 0, DATA misses = 2. Winner = INSTR
[DUEL] Epoch ended. INSTR misses = 1, DATA misses = 0. Winner = DATA
[DUEL] Epoch ended. INSTR misses = 6, DATA misses = 2. Winner = DATA
[DUEL] Epoch ended. INSTR misses = 0, DATA misses = 0. Winner = INSTR
[DUEL] Epoch ended. INSTR misses = 0, DATA misses = 0. Winner = INSTR
[DUEL] Epoch ended. INSTR misses = 3, DATA misses = 1. Winner = DATA
[DUEL] Epoch ended. INSTR misses = 3, DATA misses = 3. Winner = INSTR
[DUEL] Epoch ended. INSTR misses = 5, DATA misses = 1. Winner = DATA
[DUEL] Epoch ended. INSTR misses = 0, DATA misses = 0. Winner = INSTR
[DUEL] Epoch ended. INSTR misses = 0, DATA misses = 0. Winner = INSTR
[DUEL] Epoch ended. INSTR misses = 0, DATA misses = 0. Winner = INSTR
Heartbeat CPU 0 instructions: 100000001 cycles: 32710556 heartbeat IPC: 2.544 cumulative IPC: 2.544 (Simulation time: 00 hr 05 min 52 sec)
[DUEL] Epoch ended. INSTR misses = 1, DATA misses = 2. Winner = INSTR
[DUEL] Epoch ended. INSTR misses = 2, DATA misses = 0. Winner = DATA
[DUEL] Epoch ended. INSTR misses = 0, DATA misses = 2. Winner = INSTR
[DUEL] Epoch ended. INSTR misses = 17, DATA misses = 2. Winner = DATA
[DUEL] Epoch ended. INSTR misses = 6, DATA misses = 1. Winner = DATA
[DUEL] Epoch ended. INSTR misses = 3, DATA misses = 0. Winner = DATA
[DUEL] Epoch ended. INSTR misses = 1, DATA misses = 0. Winner = DATA
[DUEL] Epoch ended. INSTR misses = 5, DATA misses = 0. Winner = DATA
[DUEL] Epoch ended. INSTR misses = 3, DATA misses = 0. Winner = DATA
[DUEL] Epoch ended. INSTR misses = 2, DATA misses = 1. Winner = DATA
[DUEL] Epoch ended. INSTR misses = 6, DATA misses = 2. Winner = DATA
[DUEL] Epoch ended. INSTR misses = 1, DATA misses = 1. Winner = INSTR
[DUEL] Epoch ended. INSTR misses = 3, DATA misses = 2. Winner = DATA
[DUEL] Epoch ended. INSTR misses = 8, DATA misses = 4. Winner = DATA
[DUEL] Epoch ended. INSTR misses = 8, DATA misses = 3. Winner = DATA
[DUEL] Epoch ended. INSTR misses = 4, DATA misses = 0. Winner = DATA
[DUEL] Epoch ended. INSTR misses = 0, DATA misses = 1. Winner = INSTR
[DUEL] Epoch ended. INSTR misses = 0, DATA misses = 0. Winner = INSTR
[DUEL] Epoch ended. INSTR misses = 1, DATA misses = 1. Winner = INSTR
Heartbeat CPU 0 instructions: 110000000 cycles: 36645885 heartbeat IPC: 2.541 cumulative IPC: 2.543 (Simulation time: 00 hr 06 min 32 sec)
[DUEL] Epoch ended. INSTR misses = 0, DATA misses = 0. Winner = INSTR
[DUEL] Epoch ended. INSTR misses = 5, DATA misses = 0. Winner = DATA
[DUEL] Epoch ended. INSTR misses = 0, DATA misses = 0. Winner = INSTR
[DUEL] Epoch ended. INSTR misses = 3, DATA misses = 0. Winner = DATA
[DUEL] Epoch ended. INSTR misses = 2, DATA misses = 1. Winner = DATA
[DUEL] Epoch ended. INSTR misses = 3, DATA misses = 8. Winner = INSTR
[DUEL] Epoch ended. INSTR misses = 0, DATA misses = 3. Winner = INSTR
[DUEL] Epoch ended. INSTR misses = 7, DATA misses = 6. Winner = DATA
[DUEL] Epoch ended. INSTR misses = 0, DATA misses = 0. Winner = INSTR
[DUEL] Epoch ended. INSTR misses = 0, DATA misses = 0. Winner = INSTR
[DUEL] Epoch ended. INSTR misses = 1, DATA misses = 0. Winner = DATA
[DUEL] Epoch ended. INSTR misses = 1, DATA misses = 1. Winner = INSTR
[DUEL] Epoch ended. INSTR misses = 0, DATA misses = 0. Winner = INSTR
[DUEL] Epoch ended. INSTR misses = 0, DATA misses = 0. Winner = INSTR
[DUEL] Epoch ended. INSTR misses = 5, DATA misses = 2. Winner = DATA
[DUEL] Epoch ended. INSTR misses = 3, DATA misses = 3. Winner = INSTR
[DUEL] Epoch ended. INSTR misses = 2, DATA misses = 5. Winner = INSTR
[DUEL] Epoch ended. INSTR misses = 2, DATA misses = 1. Winner = DATA
[DUEL] Epoch ended. INSTR misses = 15, DATA misses = 15. Winner = INSTR
Heartbeat CPU 0 instructions: 120000000 cycles: 40492502 heartbeat IPC: 2.6 cumulative IPC: 2.55 (Simulation time: 00 hr 07 min 10 sec)
[DUEL] Epoch ended. INSTR misses = 6, DATA misses = 4. Winner = DATA
[DUEL] Epoch ended. INSTR misses = 0, DATA misses = 0. Winner = INSTR
[DUEL] Epoch ended. INSTR misses = 0, DATA misses = 1. Winner = INSTR
[DUEL] Epoch ended. INSTR misses = 2, DATA misses = 2. Winner = INSTR
[DUEL] Epoch ended. INSTR misses = 0, DATA misses = 0. Winner = INSTR
[DUEL] Epoch ended. INSTR misses = 0, DATA misses = 0. Winner = INSTR
[DUEL] Epoch ended. INSTR misses = 2, DATA misses = 10. Winner = INSTR
*** Reached end of trace: (0, "../traces/public_traces/srv/srv_55.champsimtrace.xz")
[DUEL] Epoch ended. INSTR misses = 2, DATA misses = 0. Winner = DATA
[DUEL] Epoch ended. INSTR misses = 0, DATA misses = 0. Winner = INSTR
[DUEL] Epoch ended. INSTR misses = 3, DATA misses = 1. Winner = DATA
[DUEL] Epoch ended. INSTR misses = 0, DATA misses = 2. Winner = INSTR
[DUEL] Epoch ended. INSTR misses = 1, DATA misses = 0. Winner = DATA
[DUEL] Epoch ended. INSTR misses = 6, DATA misses = 2. Winner = DATA
[DUEL] Epoch ended. INSTR misses = 0, DATA misses = 0. Winner = INSTR
[DUEL] Epoch ended. INSTR misses = 0, DATA misses = 0. Winner = INSTR
[DUEL] Epoch ended. INSTR misses = 3, DATA misses = 1. Winner = DATA
[DUEL] Epoch ended. INSTR misses = 2, DATA misses = 2. Winner = INSTR
[DUEL] Epoch ended. INSTR misses = 6, DATA misses = 1. Winner = DATA
[DUEL] Epoch ended. INSTR misses = 1, DATA misses = 0. Winner = DATA
[DUEL] Epoch ended. INSTR misses = 0, DATA misses = 0. Winner = INSTR
Heartbeat CPU 0 instructions: 130000003 cycles: 44136268 heartbeat IPC: 2.744 cumulative IPC: 2.568 (Simulation time: 00 hr 07 min 48 sec)
Simulation finished CPU 0 instructions: 100000001 cycles: 38943147 cumulative IPC: 2.568 (Simulation time: 00 hr 07 min 48 sec)
Simulation complete CPU 0 instructions: 100000001 cycles: 38943147 cumulative IPC: 2.568 (Simulation time: 00 hr 07 min 48 sec)

ChampSim completed all CPUs

=== Simulation ===
CPU 0 runs ../traces/public_traces/srv/srv_55.champsimtrace.xz
Region of Interest Statistics

CPU 0 cumulative IPC: 2.568 instructions: 100000001 cycles: 38943147
CPU 0 Branch Prediction Accuracy: 95.35% MPKI: 8.446 Average ROB Occupancy at Mispredict: 32.63
Branch type MPKI
BRANCH_DIRECT_JUMP: 0.773
BRANCH_INDIRECT: 3.64
BRANCH_CONDITIONAL: 1.21
BRANCH_DIRECT_CALL: 1.48
BRANCH_INDIRECT_CALL: 0.378
BRANCH_RETURN: 0.96

LLC TOTAL        ACCESS:     828476 HIT:     657741 MISS:     170735
LLC LOAD         ACCESS:     153954 HIT:     111573 MISS:      42381
LLC RFO          ACCESS:     124326 HIT:     100508 MISS:      23818
LLC PREFETCH     ACCESS:     290102 HIT:     222796 MISS:      67306
LLC WRITE        ACCESS:     220688 HIT:     206740 MISS:      13948
LLC TRANSLATION  ACCESS:      39406 HIT:      16124 MISS:      23282
LLC PREFETCH REQUESTED:          0 ISSUED:          0 USEFUL:          0 USELESS:          0
LLC AVERAGE MISS LATENCY: 134.4 cycles
cpu0_DTLB TOTAL        ACCESS:   17674400 HIT:   17213657 MISS:     460743
cpu0_DTLB LOAD         ACCESS:   17674400 HIT:   17213657 MISS:     460743
cpu0_DTLB RFO          ACCESS:          0 HIT:          0 MISS:          0
cpu0_DTLB PREFETCH     ACCESS:          0 HIT:          0 MISS:          0
cpu0_DTLB WRITE        ACCESS:          0 HIT:          0 MISS:          0
cpu0_DTLB TRANSLATION  ACCESS:          0 HIT:          0 MISS:          0
cpu0_DTLB PREFETCH REQUESTED:          0 ISSUED:          0 USEFUL:          0 USELESS:          0
cpu0_DTLB AVERAGE MISS LATENCY: 14.66 cycles
cpu0_ITLB TOTAL        ACCESS:   13871019 HIT:   13500998 MISS:     370021
cpu0_ITLB LOAD         ACCESS:   13871019 HIT:   13500998 MISS:     370021
cpu0_ITLB RFO          ACCESS:          0 HIT:          0 MISS:          0
cpu0_ITLB PREFETCH     ACCESS:          0 HIT:          0 MISS:          0
cpu0_ITLB WRITE        ACCESS:          0 HIT:          0 MISS:          0
cpu0_ITLB TRANSLATION  ACCESS:          0 HIT:          0 MISS:          0
cpu0_ITLB PREFETCH REQUESTED:          0 ISSUED:          0 USEFUL:          0 USELESS:          0
cpu0_ITLB AVERAGE MISS LATENCY: 5.031 cycles
cpu0_L1D TOTAL        ACCESS:   27557158 HIT:   25038044 MISS:    2519114
cpu0_L1D LOAD         ACCESS:   16537021 HIT:   15350142 MISS:    1186879
cpu0_L1D RFO          ACCESS:          0 HIT:          0 MISS:          0
cpu0_L1D PREFETCH     ACCESS:    1021664 HIT:     769838 MISS:     251826
cpu0_L1D WRITE        ACCESS:    9948254 HIT:    8916749 MISS:    1031505
cpu0_L1D TRANSLATION  ACCESS:      50219 HIT:       1315 MISS:      48904
cpu0_L1D PREFETCH REQUESTED:    1388354 ISSUED:    1021664 USEFUL:      14711 USELESS:       4504
cpu0_L1D AVERAGE MISS LATENCY: 11.97 cycles
cpu0_L1I TOTAL        ACCESS:   20507625 HIT:   16872444 MISS:    3635181
cpu0_L1I LOAD         ACCESS:    6541714 HIT:    5592299 MISS:     949415
cpu0_L1I RFO          ACCESS:          0 HIT:          0 MISS:          0
cpu0_L1I PREFETCH     ACCESS:   13965911 HIT:   11280145 MISS:    2685766
cpu0_L1I WRITE        ACCESS:          0 HIT:          0 MISS:          0
cpu0_L1I TRANSLATION  ACCESS:          0 HIT:          0 MISS:          0
cpu0_L1I PREFETCH REQUESTED:   25936484 ISSUED:   13965911 USEFUL:    1793339 USELESS:     790239
cpu0_L1I AVERAGE MISS LATENCY: 11.27 cycles
cpu0_L2C TOTAL        ACCESS:    9315699 HIT:    8596624 MISS:     719075
cpu0_L2C LOAD         ACCESS:    1445742 HIT:    1283967 MISS:     161775
cpu0_L2C RFO          ACCESS:     349835 HIT:     224327 MISS:     125508
cpu0_L2C PREFETCH     ACCESS:    6861145 HIT:    6468798 MISS:     392347
cpu0_L2C WRITE        ACCESS:     611912 HIT:     611873 MISS:         39
cpu0_L2C TRANSLATION  ACCESS:      47065 HIT:       7659 MISS:      39406
cpu0_L2C PREFETCH REQUESTED:    4270600 ISSUED:    4036287 USEFUL:      72425 USELESS:     110009
cpu0_L2C AVERAGE MISS LATENCY: 48.61 cycles
cpu0_STLB TOTAL        ACCESS:     508346 HIT:     478672 MISS:      29674
cpu0_STLB LOAD         ACCESS:     508346 HIT:     478672 MISS:      29674
cpu0_STLB RFO          ACCESS:          0 HIT:          0 MISS:          0
cpu0_STLB PREFETCH     ACCESS:          0 HIT:          0 MISS:          0
cpu0_STLB WRITE        ACCESS:          0 HIT:          0 MISS:          0
cpu0_STLB TRANSLATION  ACCESS:          0 HIT:          0 MISS:          0
cpu0_STLB PREFETCH REQUESTED:          0 ISSUED:          0 USEFUL:          0 USELESS:          0
cpu0_STLB AVERAGE MISS LATENCY: 195.9 cycles

DRAM Statistics

Channel 0 RQ ROW_BUFFER_HIT:      24183
  ROW_BUFFER_MISS:      57440
 AVG DBUS CONGESTED CYCLE: 3.792
WQ ROW_BUFFER_HIT: Channel 0 
  ROW_BUFFER_MISS:       4568
  FULL:      18839

Channel 1 RQ ROW_BUFFER_HIT:      22855
  ROW_BUFFER_MISS:      52307
 AVG DBUS CONGESTED CYCLE: 3.791
WQ ROW_BUFFER_HIT: Channel 1 
  ROW_BUFFER_MISS:       4088
  FULL:      17355
BERTI TO_L1: 579485 TO_L2: 1214274 TO_L2_BC_MSHR: 112743
BERTI AVG_LAT: 19.9809 NUM_TRACK_LATENCY: 1072919 NUM_CANT_TRACK_LATENCY: 0
BERTI CROSS_PAGE 377572 NO_CROSS_PAGE: 1416187
BERTI FOUND_BERTI: 1774362 NO_FOUND_BERTI: 20008822
BERTI AVERAGE_ISSUED: 5.65624
CPU 0 L1I Entangling prefetcher final stats
IP accesses: f81d 3e0740 125743 / 6579243
IP misses: 3f25 fc940 3915 / 986944
IP hits: 0 0 0 / 0
IP late: 4074 101d00 1071 / 439068
IP wrong: c733 31ccc0 2782 / 785403
miss rate: 0.150009
coverage: 0
coverage_late: 0.444877
accuracy: 0
accuracy_late: 0.358578
discarded: 0
evicts entangled j table: 0
evicts entangled k table: 172683
max bb size: 40
formats: 57212 0 118133 18866 13841 32249 0 
hist_lookups: 55794 81153 90276 95109 86561 72994 58189 42962 32057 24573 17967 12409 7353 3876 1774 0 18 159663 
hist_lookups_evict: 0.00213593 %
hist_lookups_shortlat: 18.946 %
bb_found_hist: 0 1704027 811109 370292 193242 88345 39263 43597 12363 6003 13214 3206 1976 1783 97 0 0 1270 0 0 0 0 0 0 0 0 0 0 0 0 0 0 0 0 0 97 117 174 97 0 160 0 0 0 0 0 0 0 0 0 0 0 0 0 0 0 0 0 0 0 0 0 0 0 
bb_found_summary: 6606878 3290432 2.00791
entangled_found_hist: 0 1154893 673600 1580519 187443 83001 19380 0 
entangled_found_summary: 8524707 3698836 2.3047
bb_ent_found_hist: 0 2545046 1458023 743897 389708 238754 109917 120237 10314 11300 58435 9573 3741 10377 97 0 0 4297 0 0 0 0 0 0 0 0 0 0 0 0 0 0 0 0 0 77 65 45 440 0 0 0 0 0 0 0 0 0 0 0 0 0 0 0 0 0 0 0 0 0 0 0 0 0 
bb_ent_found_summary: 13098031 5714343 2.29214
