WARNING: physical memory size is smaller than virtual memory size.

*** ChampSim Multicore Out-of-Order Simulator ***
Warmup Instructions: 30000000
Simulation Instructions: 100000000
Number of CPUs: 1
Page size: 4096

BTB:
Basic BTB sets: 1024 ways: 8
Indirect:
history lengths: 0 0 10 16 27 44 60 96 109 219 449 487 714 1313 2146 3881 
ITTAGE tables: 64768 bytes;Region table: 240 bytes;IUM: 384 bytes;Total Storage= 65392 bytes;
RAS:
RAS size: 64
[LLC] INSTR Demand IPV: 1 2 2 1 4 Prefetch IPV: 1 2 1 1 4
[LLC] DATA  Demand IPV: 1 1 1 2 4 Prefetch IPV: 1 1 2 2 4
Berti Prefetcher
CPU 0 Entangling prefetcher
Off-chip DRAM Size: 8 GiB Channels: 2 Width: 64-bit Data Race: 6400 MT/s
[DUEL] Epoch ended. INSTR misses = 51, DATA misses = 62. Winner = INSTR
[DUEL] Epoch ended. INSTR misses = 17, DATA misses = 19. Winner = INSTR
[DUEL] Epoch ended. INSTR misses = 2, DATA misses = 8. Winner = INSTR
[DUEL] Epoch ended. INSTR misses = 13, DATA misses = 12. Winner = DATA
[DUEL] Epoch ended. INSTR misses = 25, DATA misses = 21. Winner = DATA
[DUEL] Epoch ended. INSTR misses = 19, DATA misses = 17. Winner = DATA
[DUEL] Epoch ended. INSTR misses = 10, DATA misses = 0. Winner = DATA
[DUEL] Epoch ended. INSTR misses = 2, DATA misses = 0. Winner = DATA
[DUEL] Epoch ended. INSTR misses = 0, DATA misses = 0. Winner = INSTR
[DUEL] Epoch ended. INSTR misses = 19, DATA misses = 22. Winner = INSTR
[DUEL] Epoch ended. INSTR misses = 22, DATA misses = 17. Winner = DATA
[DUEL] Epoch ended. INSTR misses = 6, DATA misses = 1. Winner = DATA
[DUEL] Epoch ended. INSTR misses = 1, DATA misses = 1. Winner = INSTR
[DUEL] Epoch ended. INSTR misses = 10, DATA misses = 16. Winner = INSTR
[DUEL] Epoch ended. INSTR misses = 1, DATA misses = 0. Winner = DATA
[DUEL] Epoch ended. INSTR misses = 1, DATA misses = 1. Winner = INSTR
[DUEL] Epoch ended. INSTR misses = 7, DATA misses = 16. Winner = INSTR
[DUEL] Epoch ended. INSTR misses = 0, DATA misses = 1. Winner = INSTR
[DUEL] Epoch ended. INSTR misses = 6, DATA misses = 4. Winner = DATA
Heartbeat CPU 0 instructions: 10000002 cycles: 1813104 heartbeat IPC: 5.515 cumulative IPC: 5.515 (Simulation time: 00 hr 00 min 29 sec)
[DUEL] Epoch ended. INSTR misses = 1, DATA misses = 2. Winner = INSTR
[DUEL] Epoch ended. INSTR misses = 8, DATA misses = 1. Winner = DATA
[DUEL] Epoch ended. INSTR misses = 4, DATA misses = 0. Winner = DATA
[DUEL] Epoch ended. INSTR misses = 0, DATA misses = 0. Winner = INSTR
[DUEL] Epoch ended. INSTR misses = 8, DATA misses = 8. Winner = INSTR
[DUEL] Epoch ended. INSTR misses = 7, DATA misses = 1. Winner = DATA
[DUEL] Epoch ended. INSTR misses = 0, DATA misses = 0. Winner = INSTR
[DUEL] Epoch ended. INSTR misses = 15, DATA misses = 0. Winner = DATA
[DUEL] Epoch ended. INSTR misses = 3, DATA misses = 0. Winner = DATA
[DUEL] Epoch ended. INSTR misses = 6, DATA misses = 6. Winner = INSTR
[DUEL] Epoch ended. INSTR misses = 13, DATA misses = 0. Winner = DATA
[DUEL] Epoch ended. INSTR misses = 4, DATA misses = 2. Winner = DATA
[DUEL] Epoch ended. INSTR misses = 5, DATA misses = 9. Winner = INSTR
[DUEL] Epoch ended. INSTR misses = 3, DATA misses = 2. Winner = DATA
[DUEL] Epoch ended. INSTR misses = 0, DATA misses = 6. Winner = INSTR
[DUEL] Epoch ended. INSTR misses = 1, DATA misses = 7. Winner = INSTR
[DUEL] Epoch ended. INSTR misses = 1, DATA misses = 3. Winner = INSTR
[DUEL] Epoch ended. INSTR misses = 1, DATA misses = 1. Winner = INSTR
[DUEL] Epoch ended. INSTR misses = 16, DATA misses = 19. Winner = INSTR
Heartbeat CPU 0 instructions: 20000006 cycles: 3629602 heartbeat IPC: 5.505 cumulative IPC: 5.51 (Simulation time: 00 hr 00 min 58 sec)
[DUEL] Epoch ended. INSTR misses = 0, DATA misses = 0. Winner = INSTR
[DUEL] Epoch ended. INSTR misses = 12, DATA misses = 14. Winner = INSTR
[DUEL] Epoch ended. INSTR misses = 4, DATA misses = 1. Winner = DATA
[DUEL] Epoch ended. INSTR misses = 1, DATA misses = 0. Winner = DATA
[DUEL] Epoch ended. INSTR misses = 5, DATA misses = 4. Winner = DATA
[DUEL] Epoch ended. INSTR misses = 2, DATA misses = 2. Winner = INSTR
[DUEL] Epoch ended. INSTR misses = 34, DATA misses = 20. Winner = DATA
[DUEL] Epoch ended. INSTR misses = 4, DATA misses = 1. Winner = DATA
[DUEL] Epoch ended. INSTR misses = 2, DATA misses = 7. Winner = INSTR
[DUEL] Epoch ended. INSTR misses = 2, DATA misses = 1. Winner = DATA
[DUEL] Epoch ended. INSTR misses = 22, DATA misses = 23. Winner = INSTR
[DUEL] Epoch ended. INSTR misses = 2, DATA misses = 5. Winner = INSTR
[DUEL] Epoch ended. INSTR misses = 2, DATA misses = 4. Winner = INSTR
[DUEL] Epoch ended. INSTR misses = 3, DATA misses = 3. Winner = INSTR
[DUEL] Epoch ended. INSTR misses = 7, DATA misses = 1. Winner = DATA
[DUEL] Epoch ended. INSTR misses = 21, DATA misses = 20. Winner = DATA
[DUEL] Epoch ended. INSTR misses = 17, DATA misses = 18. Winner = INSTR
[DUEL] Epoch ended. INSTR misses = 0, DATA misses = 0. Winner = INSTR
[DUEL] Epoch ended. INSTR misses = 14, DATA misses = 9. Winner = DATA
[DUEL] Epoch ended. INSTR misses = 33, DATA misses = 28. Winner = DATA
Heartbeat CPU 0 instructions: 30000005 cycles: 5441361 heartbeat IPC: 5.519 cumulative IPC: 5.513 (Simulation time: 00 hr 01 min 28 sec)
Warmup finished CPU 0 instructions: 30000005 cycles: 5441362 cumulative IPC: 5.513 (Simulation time: 00 hr 01 min 28 sec)
Warmup complete CPU 0 instructions: 30000005 cycles: 5441362 cumulative IPC: 5.513 (Simulation time: 00 hr 01 min 28 sec)
[DUEL] Epoch ended. INSTR misses = 10, DATA misses = 6. Winner = DATA
[DUEL] Epoch ended. INSTR misses = 18, DATA misses = 11. Winner = DATA
*** Reached end of trace: (0, "../traces/public_traces/srv/srv_44.champsimtrace.xz")
[DUEL] Epoch ended. INSTR misses = 3, DATA misses = 2. Winner = DATA
[DUEL] Epoch ended. INSTR misses = 2, DATA misses = 2. Winner = INSTR
[DUEL] Epoch ended. INSTR misses = 0, DATA misses = 8. Winner = INSTR
[DUEL] Epoch ended. INSTR misses = 2, DATA misses = 2. Winner = INSTR
[DUEL] Epoch ended. INSTR misses = 6, DATA misses = 7. Winner = INSTR
[DUEL] Epoch ended. INSTR misses = 11, DATA misses = 10. Winner = DATA
[DUEL] Epoch ended. INSTR misses = 3, DATA misses = 3. Winner = INSTR
[DUEL] Epoch ended. INSTR misses = 10, DATA misses = 2. Winner = DATA
[DUEL] Epoch ended. INSTR misses = 2, DATA misses = 0. Winner = DATA
[DUEL] Epoch ended. INSTR misses = 8, DATA misses = 7. Winner = DATA
[DUEL] Epoch ended. INSTR misses = 23, DATA misses = 18. Winner = DATA
[DUEL] Epoch ended. INSTR misses = 5, DATA misses = 4. Winner = DATA
[DUEL] Epoch ended. INSTR misses = 0, DATA misses = 1. Winner = INSTR
[DUEL] Epoch ended. INSTR misses = 6, DATA misses = 3. Winner = DATA
[DUEL] Epoch ended. INSTR misses = 1, DATA misses = 0. Winner = DATA
[DUEL] Epoch ended. INSTR misses = 0, DATA misses = 0. Winner = INSTR
[DUEL] Epoch ended. INSTR misses = 1, DATA misses = 6. Winner = INSTR
Heartbeat CPU 0 instructions: 40000010 cycles: 10017209 heartbeat IPC: 2.185 cumulative IPC: 2.185 (Simulation time: 00 hr 02 min 14 sec)
[DUEL] Epoch ended. INSTR misses = 1, DATA misses = 1. Winner = INSTR
[DUEL] Epoch ended. INSTR misses = 1, DATA misses = 2. Winner = INSTR
[DUEL] Epoch ended. INSTR misses = 4, DATA misses = 3. Winner = DATA
[DUEL] Epoch ended. INSTR misses = 8, DATA misses = 2. Winner = DATA
[DUEL] Epoch ended. INSTR misses = 1, DATA misses = 1. Winner = INSTR
[DUEL] Epoch ended. INSTR misses = 3, DATA misses = 0. Winner = DATA
[DUEL] Epoch ended. INSTR misses = 8, DATA misses = 3. Winner = DATA
[DUEL] Epoch ended. INSTR misses = 7, DATA misses = 2. Winner = DATA
[DUEL] Epoch ended. INSTR misses = 0, DATA misses = 0. Winner = INSTR
[DUEL] Epoch ended. INSTR misses = 13, DATA misses = 1. Winner = DATA
[DUEL] Epoch ended. INSTR misses = 12, DATA misses = 1. Winner = DATA
[DUEL] Epoch ended. INSTR misses = 5, DATA misses = 1. Winner = DATA
[DUEL] Epoch ended. INSTR misses = 6, DATA misses = 1. Winner = DATA
[DUEL] Epoch ended. INSTR misses = 2, DATA misses = 1. Winner = DATA
[DUEL] Epoch ended. INSTR misses = 6, DATA misses = 8. Winner = INSTR
[DUEL] Epoch ended. INSTR misses = 1, DATA misses = 0. Winner = DATA
[DUEL] Epoch ended. INSTR misses = 2, DATA misses = 6. Winner = INSTR
[DUEL] Epoch ended. INSTR misses = 0, DATA misses = 5. Winner = INSTR
[DUEL] Epoch ended. INSTR misses = 0, DATA misses = 3. Winner = INSTR
Heartbeat CPU 0 instructions: 50000007 cycles: 14452702 heartbeat IPC: 2.255 cumulative IPC: 2.219 (Simulation time: 00 hr 02 min 59 sec)
[DUEL] Epoch ended. INSTR misses = 1, DATA misses = 0. Winner = DATA
[DUEL] Epoch ended. INSTR misses = 14, DATA misses = 12. Winner = DATA
[DUEL] Epoch ended. INSTR misses = 0, DATA misses = 0. Winner = INSTR
[DUEL] Epoch ended. INSTR misses = 10, DATA misses = 6. Winner = DATA
[DUEL] Epoch ended. INSTR misses = 1, DATA misses = 8. Winner = INSTR
[DUEL] Epoch ended. INSTR misses = 3, DATA misses = 0. Winner = DATA
[DUEL] Epoch ended. INSTR misses = 4, DATA misses = 3. Winner = DATA
[DUEL] Epoch ended. INSTR misses = 3, DATA misses = 4. Winner = INSTR
[DUEL] Epoch ended. INSTR misses = 12, DATA misses = 16. Winner = INSTR
[DUEL] Epoch ended. INSTR misses = 20, DATA misses = 0. Winner = DATA
[DUEL] Epoch ended. INSTR misses = 0, DATA misses = 6. Winner = INSTR
[DUEL] Epoch ended. INSTR misses = 5, DATA misses = 6. Winner = INSTR
[DUEL] Epoch ended. INSTR misses = 11, DATA misses = 19. Winner = INSTR
[DUEL] Epoch ended. INSTR misses = 3, DATA misses = 5. Winner = INSTR
[DUEL] Epoch ended. INSTR misses = 0, DATA misses = 0. Winner = INSTR
[DUEL] Epoch ended. INSTR misses = 2, DATA misses = 2. Winner = INSTR
[DUEL] Epoch ended. INSTR misses = 9, DATA misses = 3. Winner = DATA
[DUEL] Epoch ended. INSTR misses = 1, DATA misses = 1. Winner = INSTR
[DUEL] Epoch ended. INSTR misses = 28, DATA misses = 33. Winner = INSTR
[DUEL] Epoch ended. INSTR misses = 2, DATA misses = 0. Winner = DATA
Heartbeat CPU 0 instructions: 60000000 cycles: 18870848 heartbeat IPC: 2.263 cumulative IPC: 2.234 (Simulation time: 00 hr 03 min 44 sec)
[DUEL] Epoch ended. INSTR misses = 3, DATA misses = 8. Winner = INSTR
[DUEL] Epoch ended. INSTR misses = 19, DATA misses = 7. Winner = DATA
[DUEL] Epoch ended. INSTR misses = 31, DATA misses = 29. Winner = DATA
[DUEL] Epoch ended. INSTR misses = 9, DATA misses = 3. Winner = DATA
*** Reached end of trace: (0, "../traces/public_traces/srv/srv_44.champsimtrace.xz")
[DUEL] Epoch ended. INSTR misses = 8, DATA misses = 7. Winner = DATA
[DUEL] Epoch ended. INSTR misses = 2, DATA misses = 2. Winner = INSTR
[DUEL] Epoch ended. INSTR misses = 2, DATA misses = 1. Winner = DATA
[DUEL] Epoch ended. INSTR misses = 1, DATA misses = 7. Winner = INSTR
[DUEL] Epoch ended. INSTR misses = 3, DATA misses = 5. Winner = INSTR
[DUEL] Epoch ended. INSTR misses = 15, DATA misses = 8. Winner = DATA
[DUEL] Epoch ended. INSTR misses = 12, DATA misses = 9. Winner = DATA
[DUEL] Epoch ended. INSTR misses = 13, DATA misses = 1. Winner = DATA
[DUEL] Epoch ended. INSTR misses = 1, DATA misses = 1. Winner = INSTR
[DUEL] Epoch ended. INSTR misses = 10, DATA misses = 13. Winner = INSTR
[DUEL] Epoch ended. INSTR misses = 21, DATA misses = 19. Winner = DATA
[DUEL] Epoch ended. INSTR misses = 5, DATA misses = 4. Winner = DATA
[DUEL] Epoch ended. INSTR misses = 3, DATA misses = 2. Winner = DATA
[DUEL] Epoch ended. INSTR misses = 3, DATA misses = 1. Winner = DATA
[DUEL] Epoch ended. INSTR misses = 3, DATA misses = 2. Winner = DATA
Heartbeat CPU 0 instructions: 70000010 cycles: 23312654 heartbeat IPC: 2.251 cumulative IPC: 2.238 (Simulation time: 00 hr 04 min 29 sec)
[DUEL] Epoch ended. INSTR misses = 2, DATA misses = 0. Winner = DATA
[DUEL] Epoch ended. INSTR misses = 0, DATA misses = 4. Winner = INSTR
[DUEL] Epoch ended. INSTR misses = 1, DATA misses = 1. Winner = INSTR
[DUEL] Epoch ended. INSTR misses = 1, DATA misses = 1. Winner = INSTR
[DUEL] Epoch ended. INSTR misses = 5, DATA misses = 1. Winner = DATA
[DUEL] Epoch ended. INSTR misses = 6, DATA misses = 4. Winner = DATA
[DUEL] Epoch ended. INSTR misses = 2, DATA misses = 0. Winner = DATA
[DUEL] Epoch ended. INSTR misses = 4, DATA misses = 0. Winner = DATA
[DUEL] Epoch ended. INSTR misses = 8, DATA misses = 0. Winner = DATA
[DUEL] Epoch ended. INSTR misses = 9, DATA misses = 4. Winner = DATA
[DUEL] Epoch ended. INSTR misses = 0, DATA misses = 1. Winner = INSTR
[DUEL] Epoch ended. INSTR misses = 1, DATA misses = 0. Winner = DATA
[DUEL] Epoch ended. INSTR misses = 15, DATA misses = 1. Winner = DATA
[DUEL] Epoch ended. INSTR misses = 5, DATA misses = 0. Winner = DATA
[DUEL] Epoch ended. INSTR misses = 4, DATA misses = 2. Winner = DATA
[DUEL] Epoch ended. INSTR misses = 3, DATA misses = 0. Winner = DATA
[DUEL] Epoch ended. INSTR misses = 8, DATA misses = 8. Winner = INSTR
[DUEL] Epoch ended. INSTR misses = 0, DATA misses = 0. Winner = INSTR
[DUEL] Epoch ended. INSTR misses = 3, DATA misses = 5. Winner = INSTR
Heartbeat CPU 0 instructions: 80000000 cycles: 27675519 heartbeat IPC: 2.292 cumulative IPC: 2.249 (Simulation time: 00 hr 05 min 14 sec)
[DUEL] Epoch ended. INSTR misses = 0, DATA misses = 3. Winner = INSTR
[DUEL] Epoch ended. INSTR misses = 0, DATA misses = 5. Winner = INSTR
[DUEL] Epoch ended. INSTR misses = 2, DATA misses = 0. Winner = DATA
[DUEL] Epoch ended. INSTR misses = 9, DATA misses = 10. Winner = INSTR
[DUEL] Epoch ended. INSTR misses = 0, DATA misses = 2. Winner = INSTR
[DUEL] Epoch ended. INSTR misses = 9, DATA misses = 4. Winner = DATA
[DUEL] Epoch ended. INSTR misses = 0, DATA misses = 8. Winner = INSTR
[DUEL] Epoch ended. INSTR misses = 2, DATA misses = 0. Winner = DATA
[DUEL] Epoch ended. INSTR misses = 3, DATA misses = 1. Winner = DATA
[DUEL] Epoch ended. INSTR misses = 3, DATA misses = 4. Winner = INSTR
[DUEL] Epoch ended. INSTR misses = 9, DATA misses = 13. Winner = INSTR
[DUEL] Epoch ended. INSTR misses = 19, DATA misses = 8. Winner = DATA
[DUEL] Epoch ended. INSTR misses = 0, DATA misses = 5. Winner = INSTR
[DUEL] Epoch ended. INSTR misses = 5, DATA misses = 6. Winner = INSTR
[DUEL] Epoch ended. INSTR misses = 0, DATA misses = 6. Winner = INSTR
[DUEL] Epoch ended. INSTR misses = 11, DATA misses = 14. Winner = INSTR
[DUEL] Epoch ended. INSTR misses = 0, DATA misses = 2. Winner = INSTR
[DUEL] Epoch ended. INSTR misses = 2, DATA misses = 2. Winner = INSTR
[DUEL] Epoch ended. INSTR misses = 2, DATA misses = 3. Winner = INSTR
[DUEL] Epoch ended. INSTR misses = 8, DATA misses = 1. Winner = DATA
Heartbeat CPU 0 instructions: 90000009 cycles: 31986473 heartbeat IPC: 2.32 cumulative IPC: 2.26 (Simulation time: 00 hr 05 min 58 sec)
[DUEL] Epoch ended. INSTR misses = 16, DATA misses = 18. Winner = INSTR
[DUEL] Epoch ended. INSTR misses = 12, DATA misses = 14. Winner = INSTR
[DUEL] Epoch ended. INSTR misses = 2, DATA misses = 8. Winner = INSTR
[DUEL] Epoch ended. INSTR misses = 11, DATA misses = 8. Winner = DATA
[DUEL] Epoch ended. INSTR misses = 33, DATA misses = 28. Winner = DATA
[DUEL] Epoch ended. INSTR misses = 5, DATA misses = 3. Winner = DATA
*** Reached end of trace: (0, "../traces/public_traces/srv/srv_44.champsimtrace.xz")
[DUEL] Epoch ended. INSTR misses = 14, DATA misses = 7. Winner = DATA
[DUEL] Epoch ended. INSTR misses = 2, DATA misses = 1. Winner = DATA
[DUEL] Epoch ended. INSTR misses = 0, DATA misses = 2. Winner = INSTR
[DUEL] Epoch ended. INSTR misses = 1, DATA misses = 10. Winner = INSTR
[DUEL] Epoch ended. INSTR misses = 1, DATA misses = 2. Winner = INSTR
[DUEL] Epoch ended. INSTR misses = 10, DATA misses = 11. Winner = INSTR
[DUEL] Epoch ended. INSTR misses = 7, DATA misses = 10. Winner = INSTR
[DUEL] Epoch ended. INSTR misses = 11, DATA misses = 1. Winner = DATA
[DUEL] Epoch ended. INSTR misses = 3, DATA misses = 3. Winner = INSTR
[DUEL] Epoch ended. INSTR misses = 0, DATA misses = 3. Winner = INSTR
[DUEL] Epoch ended. INSTR misses = 10, DATA misses = 12. Winner = INSTR
[DUEL] Epoch ended. INSTR misses = 21, DATA misses = 18. Winner = DATA
[DUEL] Epoch ended. INSTR misses = 5, DATA misses = 4. Winner = DATA
Heartbeat CPU 0 instructions: 100000006 cycles: 36440744 heartbeat IPC: 2.245 cumulative IPC: 2.258 (Simulation time: 00 hr 06 min 43 sec)
[DUEL] Epoch ended. INSTR misses = 1, DATA misses = 0. Winner = DATA
[DUEL] Epoch ended. INSTR misses = 3, DATA misses = 4. Winner = INSTR
[DUEL] Epoch ended. INSTR misses = 1, DATA misses = 0. Winner = DATA
[DUEL] Epoch ended. INSTR misses = 0, DATA misses = 1. Winner = INSTR
[DUEL] Epoch ended. INSTR misses = 2, DATA misses = 2. Winner = INSTR
[DUEL] Epoch ended. INSTR misses = 0, DATA misses = 2. Winner = INSTR
[DUEL] Epoch ended. INSTR misses = 6, DATA misses = 1. Winner = DATA
[DUEL] Epoch ended. INSTR misses = 2, DATA misses = 3. Winner = INSTR
[DUEL] Epoch ended. INSTR misses = 3, DATA misses = 3. Winner = INSTR
[DUEL] Epoch ended. INSTR misses = 4, DATA misses = 0. Winner = DATA
[DUEL] Epoch ended. INSTR misses = 0, DATA misses = 0. Winner = INSTR
[DUEL] Epoch ended. INSTR misses = 10, DATA misses = 4. Winner = DATA
[DUEL] Epoch ended. INSTR misses = 6, DATA misses = 1. Winner = DATA
[DUEL] Epoch ended. INSTR misses = 0, DATA misses = 0. Winner = INSTR
[DUEL] Epoch ended. INSTR misses = 11, DATA misses = 0. Winner = DATA
[DUEL] Epoch ended. INSTR misses = 5, DATA misses = 1. Winner = DATA
[DUEL] Epoch ended. INSTR misses = 3, DATA misses = 2. Winner = DATA
[DUEL] Epoch ended. INSTR misses = 7, DATA misses = 0. Winner = DATA
[DUEL] Epoch ended. INSTR misses = 8, DATA misses = 5. Winner = DATA
[DUEL] Epoch ended. INSTR misses = 0, DATA misses = 3. Winner = INSTR
Heartbeat CPU 0 instructions: 110000001 cycles: 40782937 heartbeat IPC: 2.303 cumulative IPC: 2.264 (Simulation time: 00 hr 07 min 27 sec)
[DUEL] Epoch ended. INSTR misses = 2, DATA misses = 0. Winner = DATA
[DUEL] Epoch ended. INSTR misses = 0, DATA misses = 5. Winner = INSTR
[DUEL] Epoch ended. INSTR misses = 0, DATA misses = 6. Winner = INSTR
[DUEL] Epoch ended. INSTR misses = 3, DATA misses = 2. Winner = DATA
[DUEL] Epoch ended. INSTR misses = 1, DATA misses = 0. Winner = DATA
[DUEL] Epoch ended. INSTR misses = 7, DATA misses = 10. Winner = INSTR
[DUEL] Epoch ended. INSTR misses = 0, DATA misses = 0. Winner = INSTR
[DUEL] Epoch ended. INSTR misses = 9, DATA misses = 11. Winner = INSTR
[DUEL] Epoch ended. INSTR misses = 1, DATA misses = 1. Winner = INSTR
[DUEL] Epoch ended. INSTR misses = 2, DATA misses = 1. Winner = DATA
[DUEL] Epoch ended. INSTR misses = 6, DATA misses = 5. Winner = DATA
[DUEL] Epoch ended. INSTR misses = 0, DATA misses = 0. Winner = INSTR
[DUEL] Epoch ended. INSTR misses = 29, DATA misses = 14. Winner = DATA
[DUEL] Epoch ended. INSTR misses = 3, DATA misses = 1. Winner = DATA
[DUEL] Epoch ended. INSTR misses = 3, DATA misses = 7. Winner = INSTR
[DUEL] Epoch ended. INSTR misses = 0, DATA misses = 3. Winner = INSTR
[DUEL] Epoch ended. INSTR misses = 11, DATA misses = 17. Winner = INSTR
[DUEL] Epoch ended. INSTR misses = 4, DATA misses = 2. Winner = DATA
[DUEL] Epoch ended. INSTR misses = 2, DATA misses = 2. Winner = INSTR
Heartbeat CPU 0 instructions: 120000009 cycles: 45077788 heartbeat IPC: 2.328 cumulative IPC: 2.271 (Simulation time: 00 hr 08 min 11 sec)
[DUEL] Epoch ended. INSTR misses = 2, DATA misses = 1. Winner = DATA
[DUEL] Epoch ended. INSTR misses = 7, DATA misses = 2. Winner = DATA
[DUEL] Epoch ended. INSTR misses = 15, DATA misses = 18. Winner = INSTR
[DUEL] Epoch ended. INSTR misses = 13, DATA misses = 14. Winner = INSTR
[DUEL] Epoch ended. INSTR misses = 1, DATA misses = 1. Winner = INSTR
[DUEL] Epoch ended. INSTR misses = 14, DATA misses = 15. Winner = INSTR
[DUEL] Epoch ended. INSTR misses = 30, DATA misses = 26. Winner = DATA
[DUEL] Epoch ended. INSTR misses = 8, DATA misses = 3. Winner = DATA
[DUEL] Epoch ended. INSTR misses = 13, DATA misses = 8. Winner = DATA
*** Reached end of trace: (0, "../traces/public_traces/srv/srv_44.champsimtrace.xz")
[DUEL] Epoch ended. INSTR misses = 3, DATA misses = 1. Winner = DATA
[DUEL] Epoch ended. INSTR misses = 1, DATA misses = 2. Winner = INSTR
[DUEL] Epoch ended. INSTR misses = 0, DATA misses = 8. Winner = INSTR
[DUEL] Epoch ended. INSTR misses = 2, DATA misses = 2. Winner = INSTR
[DUEL] Epoch ended. INSTR misses = 4, DATA misses = 5. Winner = INSTR
[DUEL] Epoch ended. INSTR misses = 13, DATA misses = 13. Winner = INSTR
[DUEL] Epoch ended. INSTR misses = 4, DATA misses = 3. Winner = DATA
[DUEL] Epoch ended. INSTR misses = 13, DATA misses = 2. Winner = DATA
[DUEL] Epoch ended. INSTR misses = 0, DATA misses = 4. Winner = INSTR
[DUEL] Epoch ended. INSTR misses = 8, DATA misses = 11. Winner = INSTR
Heartbeat CPU 0 instructions: 130000000 cycles: 49491437 heartbeat IPC: 2.266 cumulative IPC: 2.27 (Simulation time: 00 hr 08 min 56 sec)
Simulation finished CPU 0 instructions: 100000002 cycles: 44050080 cumulative IPC: 2.27 (Simulation time: 00 hr 08 min 56 sec)
Simulation complete CPU 0 instructions: 100000002 cycles: 44050080 cumulative IPC: 2.27 (Simulation time: 00 hr 08 min 56 sec)

ChampSim completed all CPUs

=== Simulation ===
CPU 0 runs ../traces/public_traces/srv/srv_44.champsimtrace.xz
Region of Interest Statistics

CPU 0 cumulative IPC: 2.27 instructions: 100000002 cycles: 44050080
CPU 0 Branch Prediction Accuracy: 94.86% MPKI: 8.813 Average ROB Occupancy at Mispredict: 47.44
Branch type MPKI
BRANCH_DIRECT_JUMP: 0.684
BRANCH_INDIRECT: 4.1
BRANCH_CONDITIONAL: 1.08
BRANCH_DIRECT_CALL: 1.53
BRANCH_INDIRECT_CALL: 0.43
BRANCH_RETURN: 0.988

LLC TOTAL        ACCESS:     789245 HIT:     587436 MISS:     201809
LLC LOAD         ACCESS:     178007 HIT:     133015 MISS:      44992
LLC RFO          ACCESS:     153459 HIT:      98636 MISS:      54823
LLC PREFETCH     ACCESS:     171048 HIT:     110229 MISS:      60819
LLC WRITE        ACCESS:     254197 HIT:     233514 MISS:      20683
LLC TRANSLATION  ACCESS:      32534 HIT:      12042 MISS:      20492
LLC PREFETCH REQUESTED:          0 ISSUED:          0 USEFUL:          0 USELESS:          0
LLC AVERAGE MISS LATENCY: 162.8 cycles
cpu0_DTLB TOTAL        ACCESS:   21672879 HIT:   20535859 MISS:    1137020
cpu0_DTLB LOAD         ACCESS:   21672879 HIT:   20535859 MISS:    1137020
cpu0_DTLB RFO          ACCESS:          0 HIT:          0 MISS:          0
cpu0_DTLB PREFETCH     ACCESS:          0 HIT:          0 MISS:          0
cpu0_DTLB WRITE        ACCESS:          0 HIT:          0 MISS:          0
cpu0_DTLB TRANSLATION  ACCESS:          0 HIT:          0 MISS:          0
cpu0_DTLB PREFETCH REQUESTED:          0 ISSUED:          0 USEFUL:          0 USELESS:          0
cpu0_DTLB AVERAGE MISS LATENCY: 9.086 cycles
cpu0_ITLB TOTAL        ACCESS:   23989783 HIT:   23012087 MISS:     977696
cpu0_ITLB LOAD         ACCESS:   23989783 HIT:   23012087 MISS:     977696
cpu0_ITLB RFO          ACCESS:          0 HIT:          0 MISS:          0
cpu0_ITLB PREFETCH     ACCESS:          0 HIT:          0 MISS:          0
cpu0_ITLB WRITE        ACCESS:          0 HIT:          0 MISS:          0
cpu0_ITLB TRANSLATION  ACCESS:          0 HIT:          0 MISS:          0
cpu0_ITLB PREFETCH REQUESTED:          0 ISSUED:          0 USEFUL:          0 USELESS:          0
cpu0_ITLB AVERAGE MISS LATENCY: 3.828 cycles
cpu0_L1D TOTAL        ACCESS:   32617831 HIT:   27087976 MISS:    5529855
cpu0_L1D LOAD         ACCESS:   19898535 HIT:   17090729 MISS:    2807806
cpu0_L1D RFO          ACCESS:          0 HIT:          0 MISS:          0
cpu0_L1D PREFETCH     ACCESS:     118074 HIT:      21978 MISS:      96096
cpu0_L1D WRITE        ACCESS:   12557916 HIT:    9973578 MISS:    2584338
cpu0_L1D TRANSLATION  ACCESS:      43306 HIT:       1691 MISS:      41615
cpu0_L1D PREFETCH REQUESTED:    1255433 ISSUED:     118074 USEFUL:       8094 USELESS:        580
cpu0_L1D AVERAGE MISS LATENCY: 10.29 cycles
cpu0_L1I TOTAL        ACCESS:   34813987 HIT:   26490968 MISS:    8323019
cpu0_L1I LOAD         ACCESS:   11528923 HIT:    9790210 MISS:    1738713
cpu0_L1I RFO          ACCESS:          0 HIT:          0 MISS:          0
cpu0_L1I PREFETCH     ACCESS:   23285064 HIT:   16700758 MISS:    6584306
cpu0_L1I WRITE        ACCESS:          0 HIT:          0 MISS:          0
cpu0_L1I TRANSLATION  ACCESS:          0 HIT:          0 MISS:          0
cpu0_L1I PREFETCH REQUESTED:   35988427 ISSUED:   23285030 USEFUL:    5127993 USELESS:    1219406
cpu0_L1I AVERAGE MISS LATENCY: 10.83 cycles
cpu0_L2C TOTAL        ACCESS:   20708526 HIT:   20037131 MISS:     671395
cpu0_L2C LOAD         ACCESS:    3131655 HIT:    2934630 MISS:     197025
cpu0_L2C RFO          ACCESS:     838292 HIT:     683437 MISS:     154855
cpu0_L2C PREFETCH     ACCESS:   15318842 HIT:   15031879 MISS:     286963
cpu0_L2C WRITE        ACCESS:    1380872 HIT:    1380854 MISS:         18
cpu0_L2C TRANSLATION  ACCESS:      38865 HIT:       6331 MISS:      32534
cpu0_L2C PREFETCH REQUESTED:    9546912 ISSUED:    8903553 USEFUL:      61351 USELESS:      76781
cpu0_L2C AVERAGE MISS LATENCY: 63.19 cycles
cpu0_STLB TOTAL        ACCESS:    1330604 HIT:    1307911 MISS:      22693
cpu0_STLB LOAD         ACCESS:    1330604 HIT:    1307911 MISS:      22693
cpu0_STLB RFO          ACCESS:          0 HIT:          0 MISS:          0
cpu0_STLB PREFETCH     ACCESS:          0 HIT:          0 MISS:          0
cpu0_STLB WRITE        ACCESS:          0 HIT:          0 MISS:          0
cpu0_STLB TRANSLATION  ACCESS:          0 HIT:          0 MISS:          0
cpu0_STLB PREFETCH REQUESTED:          0 ISSUED:          0 USEFUL:          0 USELESS:          0
cpu0_STLB AVERAGE MISS LATENCY: 244.5 cycles

DRAM Statistics

Channel 0 RQ ROW_BUFFER_HIT:      45463
  ROW_BUFFER_MISS:      46759
 AVG DBUS CONGESTED CYCLE: 3.905
WQ ROW_BUFFER_HIT: Channel 0 
  ROW_BUFFER_MISS:       4713
  FULL:      25664

Channel 1 RQ ROW_BUFFER_HIT:      43388
  ROW_BUFFER_MISS:      45514
 AVG DBUS CONGESTED CYCLE: 3.906
WQ ROW_BUFFER_HIT: Channel 1 
  ROW_BUFFER_MISS:       4644
  FULL:      25742
BERTI TO_L1: 140024 TO_L2: 1253308 TO_L2_BC_MSHR: 693255
BERTI AVG_LAT: 15.8793 NUM_TRACK_LATENCY: 2607593 NUM_CANT_TRACK_LATENCY: 0
BERTI CROSS_PAGE 223175 NO_CROSS_PAGE: 1170157
BERTI FOUND_BERTI: 996647 NO_FOUND_BERTI: 24848950
BERTI AVERAGE_ISSUED: 5.89486
CPU 0 L1I Entangling prefetcher final stats
IP accesses: 9a90 26a400 57025 / 11539274
IP misses: dabf 36afc0 6913 / 1749064
IP hits: 0 0 0 / 0
IP late: 18cb 632c0 3482 / 860980
IP wrong: 9a9c 26a700 6273 / 1211790
miss rate: 0.151575
coverage: 0
coverage_late: 0.492252
accuracy: 0
accuracy_late: 0.415377
discarded: 0
evicts entangled j table: 0
evicts entangled k table: 317906
max bb size: 37
formats: 154812 0 189202 32884 17849 35923 0 
hist_lookups: 88358 149756 183147 187974 174142 139279 105243 73502 57466 43304 32571 23550 14179 8503 4494 0 99 429323 
hist_lookups_evict: 0.00577297 %
hist_lookups_shortlat: 25.0351 %
bb_found_hist: 0 3065224 1261128 512881 186152 74560 39568 15505 9464 1547 6340 3170 0 9505 0 0 0 0 0 0 0 0 0 0 0 0 0 0 0 0 171 0 184 0 0 0 0 176 0 0 0 0 0 0 0 0 0 0 0 0 0 0 0 0 0 0 0 0 0 0 0 0 0 0 
bb_found_summary: 8918474 5185575 1.71987
entangled_found_hist: 0 2010132 1308998 2945515 273689 54738 23348 0 
entangled_found_summary: 14973207 6616420 2.26304
bb_ent_found_hist: 0 4977982 2621813 1188512 350932 219682 119693 51966 18853 6347 24075 16386 0 25161 0 0 0 0 0 0 0 0 0 0 0 0 0 0 0 0 171 0 0 0 0 0 0 1385 0 0 0 0 0 0 0 0 0 0 0 0 0 0 0 0 0 0 0 0 0 0 0 0 0 0 
bb_ent_found_summary: 18383613 9622958 1.9104
