WARNING: physical memory size is smaller than virtual memory size.

*** ChampSim Multicore Out-of-Order Simulator ***
Warmup Instructions: 30000000
Simulation Instructions: 100000000
Number of CPUs: 1
Page size: 4096

BTB:
Basic BTB sets: 1024 ways: 8
Indirect:
history lengths: 0 0 10 16 27 44 60 96 109 219 449 487 714 1313 2146 3881 
ITTAGE tables: 64768 bytes;Region table: 240 bytes;IUM: 384 bytes;Total Storage= 65392 bytes;
RAS:
RAS size: 64
[LLC] INSTR Demand IPV: 1 2 2 1 4 Prefetch IPV: 1 2 1 1 4
[LLC] DATA  Demand IPV: 1 1 1 2 4 Prefetch IPV: 1 1 2 2 4
Berti Prefetcher
CPU 0 Entangling prefetcher
Off-chip DRAM Size: 8 GiB Channels: 2 Width: 64-bit Data Race: 6400 MT/s
[DUEL] Epoch ended. INSTR misses = 76, DATA misses = 59. Winner = DATA
[DUEL] Epoch ended. INSTR misses = 35, DATA misses = 34. Winner = DATA
[DUEL] Epoch ended. INSTR misses = 32, DATA misses = 33. Winner = INSTR
[DUEL] Epoch ended. INSTR misses = 82, DATA misses = 80. Winner = DATA
[DUEL] Epoch ended. INSTR misses = 30, DATA misses = 28. Winner = DATA
[DUEL] Epoch ended. INSTR misses = 29, DATA misses = 34. Winner = INSTR
[DUEL] Epoch ended. INSTR misses = 49, DATA misses = 48. Winner = DATA
[DUEL] Epoch ended. INSTR misses = 116, DATA misses = 101. Winner = DATA
[DUEL] Epoch ended. INSTR misses = 57, DATA misses = 55. Winner = DATA
[DUEL] Epoch ended. INSTR misses = 85, DATA misses = 90. Winner = INSTR
[DUEL] Epoch ended. INSTR misses = 51, DATA misses = 46. Winner = DATA
[DUEL] Epoch ended. INSTR misses = 109, DATA misses = 114. Winner = INSTR
[DUEL] Epoch ended. INSTR misses = 56, DATA misses = 62. Winner = INSTR
[DUEL] Epoch ended. INSTR misses = 44, DATA misses = 39. Winner = DATA
[DUEL] Epoch ended. INSTR misses = 49, DATA misses = 51. Winner = INSTR
[DUEL] Epoch ended. INSTR misses = 74, DATA misses = 65. Winner = DATA
[DUEL] Epoch ended. INSTR misses = 106, DATA misses = 108. Winner = INSTR
[DUEL] Epoch ended. INSTR misses = 38, DATA misses = 42. Winner = INSTR
[DUEL] Epoch ended. INSTR misses = 83, DATA misses = 81. Winner = DATA
Heartbeat CPU 0 instructions: 10000004 cycles: 2100444 heartbeat IPC: 4.761 cumulative IPC: 4.761 (Simulation time: 00 hr 00 min 29 sec)
[DUEL] Epoch ended. INSTR misses = 88, DATA misses = 79. Winner = DATA
[DUEL] Epoch ended. INSTR misses = 86, DATA misses = 81. Winner = DATA
[DUEL] Epoch ended. INSTR misses = 32, DATA misses = 37. Winner = INSTR
[DUEL] Epoch ended. INSTR misses = 95, DATA misses = 100. Winner = INSTR
[DUEL] Epoch ended. INSTR misses = 93, DATA misses = 95. Winner = INSTR
[DUEL] Epoch ended. INSTR misses = 65, DATA misses = 64. Winner = DATA
[DUEL] Epoch ended. INSTR misses = 47, DATA misses = 42. Winner = DATA
[DUEL] Epoch ended. INSTR misses = 59, DATA misses = 69. Winner = INSTR
[DUEL] Epoch ended. INSTR misses = 65, DATA misses = 64. Winner = DATA
[DUEL] Epoch ended. INSTR misses = 40, DATA misses = 32. Winner = DATA
[DUEL] Epoch ended. INSTR misses = 49, DATA misses = 48. Winner = DATA
[DUEL] Epoch ended. INSTR misses = 132, DATA misses = 137. Winner = INSTR
[DUEL] Epoch ended. INSTR misses = 51, DATA misses = 49. Winner = DATA
[DUEL] Epoch ended. INSTR misses = 58, DATA misses = 49. Winner = DATA
[DUEL] Epoch ended. INSTR misses = 86, DATA misses = 88. Winner = INSTR
[DUEL] Epoch ended. INSTR misses = 67, DATA misses = 71. Winner = INSTR
[DUEL] Epoch ended. INSTR misses = 30, DATA misses = 34. Winner = INSTR
[DUEL] Epoch ended. INSTR misses = 103, DATA misses = 83. Winner = DATA
[DUEL] Epoch ended. INSTR misses = 62, DATA misses = 68. Winner = INSTR
[DUEL] Epoch ended. INSTR misses = 107, DATA misses = 110. Winner = INSTR
Heartbeat CPU 0 instructions: 20000010 cycles: 4205496 heartbeat IPC: 4.75 cumulative IPC: 4.756 (Simulation time: 00 hr 00 min 59 sec)
[DUEL] Epoch ended. INSTR misses = 50, DATA misses = 42. Winner = DATA
[DUEL] Epoch ended. INSTR misses = 32, DATA misses = 35. Winner = INSTR
[DUEL] Epoch ended. INSTR misses = 48, DATA misses = 51. Winner = INSTR
[DUEL] Epoch ended. INSTR misses = 123, DATA misses = 119. Winner = DATA
[DUEL] Epoch ended. INSTR misses = 59, DATA misses = 67. Winner = INSTR
[DUEL] Epoch ended. INSTR misses = 11, DATA misses = 5. Winner = DATA
[DUEL] Epoch ended. INSTR misses = 46, DATA misses = 42. Winner = DATA
[DUEL] Epoch ended. INSTR misses = 81, DATA misses = 80. Winner = DATA
[DUEL] Epoch ended. INSTR misses = 59, DATA misses = 64. Winner = INSTR
[DUEL] Epoch ended. INSTR misses = 77, DATA misses = 73. Winner = DATA
[DUEL] Epoch ended. INSTR misses = 102, DATA misses = 96. Winner = DATA
[DUEL] Epoch ended. INSTR misses = 52, DATA misses = 51. Winner = DATA
[DUEL] Epoch ended. INSTR misses = 17, DATA misses = 17. Winner = INSTR
[DUEL] Epoch ended. INSTR misses = 48, DATA misses = 48. Winner = INSTR
[DUEL] Epoch ended. INSTR misses = 99, DATA misses = 94. Winner = DATA
[DUEL] Epoch ended. INSTR misses = 107, DATA misses = 108. Winner = INSTR
[DUEL] Epoch ended. INSTR misses = 51, DATA misses = 48. Winner = DATA
[DUEL] Epoch ended. INSTR misses = 24, DATA misses = 23. Winner = DATA
[DUEL] Epoch ended. INSTR misses = 128, DATA misses = 133. Winner = INSTR
Heartbeat CPU 0 instructions: 30000001 cycles: 6302307 heartbeat IPC: 4.769 cumulative IPC: 4.76 (Simulation time: 00 hr 01 min 29 sec)
Warmup finished CPU 0 instructions: 30000001 cycles: 6302308 cumulative IPC: 4.76 (Simulation time: 00 hr 01 min 29 sec)
Warmup complete CPU 0 instructions: 30000001 cycles: 6302308 cumulative IPC: 4.76 (Simulation time: 00 hr 01 min 29 sec)
[DUEL] Epoch ended. INSTR misses = 111, DATA misses = 113. Winner = INSTR
[DUEL] Epoch ended. INSTR misses = 31, DATA misses = 31. Winner = INSTR
[DUEL] Epoch ended. INSTR misses = 81, DATA misses = 79. Winner = DATA
[DUEL] Epoch ended. INSTR misses = 111, DATA misses = 111. Winner = INSTR
*** Reached end of trace: (0, "../traces/public_traces/srv/srv_33.champsimtrace.xz")
[DUEL] Epoch ended. INSTR misses = 16, DATA misses = 17. Winner = INSTR
[DUEL] Epoch ended. INSTR misses = 67, DATA misses = 72. Winner = INSTR
[DUEL] Epoch ended. INSTR misses = 17, DATA misses = 16. Winner = DATA
[DUEL] Epoch ended. INSTR misses = 17, DATA misses = 15. Winner = DATA
[DUEL] Epoch ended. INSTR misses = 31, DATA misses = 28. Winner = DATA
[DUEL] Epoch ended. INSTR misses = 17, DATA misses = 18. Winner = INSTR
[DUEL] Epoch ended. INSTR misses = 37, DATA misses = 42. Winner = INSTR
[DUEL] Epoch ended. INSTR misses = 30, DATA misses = 27. Winner = DATA
[DUEL] Epoch ended. INSTR misses = 102, DATA misses = 103. Winner = INSTR
[DUEL] Epoch ended. INSTR misses = 85, DATA misses = 90. Winner = INSTR
[DUEL] Epoch ended. INSTR misses = 52, DATA misses = 46. Winner = DATA
[DUEL] Epoch ended. INSTR misses = 42, DATA misses = 44. Winner = INSTR
[DUEL] Epoch ended. INSTR misses = 97, DATA misses = 112. Winner = INSTR
[DUEL] Epoch ended. INSTR misses = 75, DATA misses = 78. Winner = INSTR
[DUEL] Epoch ended. INSTR misses = 27, DATA misses = 28. Winner = INSTR
[DUEL] Epoch ended. INSTR misses = 39, DATA misses = 41. Winner = INSTR
Heartbeat CPU 0 instructions: 40000008 cycles: 12190869 heartbeat IPC: 1.698 cumulative IPC: 1.698 (Simulation time: 00 hr 02 min 26 sec)
[DUEL] Epoch ended. INSTR misses = 71, DATA misses = 62. Winner = DATA
[DUEL] Epoch ended. INSTR misses = 114, DATA misses = 123. Winner = INSTR
[DUEL] Epoch ended. INSTR misses = 50, DATA misses = 47. Winner = DATA
[DUEL] Epoch ended. INSTR misses = 54, DATA misses = 59. Winner = INSTR
[DUEL] Epoch ended. INSTR misses = 80, DATA misses = 80. Winner = INSTR
[DUEL] Epoch ended. INSTR misses = 96, DATA misses = 93. Winner = DATA
[DUEL] Epoch ended. INSTR misses = 55, DATA misses = 62. Winner = INSTR
[DUEL] Epoch ended. INSTR misses = 66, DATA misses = 62. Winner = DATA
[DUEL] Epoch ended. INSTR misses = 90, DATA misses = 91. Winner = INSTR
[DUEL] Epoch ended. INSTR misses = 67, DATA misses = 64. Winner = DATA
[DUEL] Epoch ended. INSTR misses = 48, DATA misses = 45. Winner = DATA
[DUEL] Epoch ended. INSTR misses = 55, DATA misses = 65. Winner = INSTR
[DUEL] Epoch ended. INSTR misses = 71, DATA misses = 69. Winner = DATA
[DUEL] Epoch ended. INSTR misses = 44, DATA misses = 43. Winner = DATA
[DUEL] Epoch ended. INSTR misses = 38, DATA misses = 31. Winner = DATA
[DUEL] Epoch ended. INSTR misses = 121, DATA misses = 137. Winner = INSTR
[DUEL] Epoch ended. INSTR misses = 79, DATA misses = 77. Winner = DATA
[DUEL] Epoch ended. INSTR misses = 50, DATA misses = 46. Winner = DATA
[DUEL] Epoch ended. INSTR misses = 64, DATA misses = 65. Winner = INSTR
Heartbeat CPU 0 instructions: 50000009 cycles: 18224102 heartbeat IPC: 1.657 cumulative IPC: 1.678 (Simulation time: 00 hr 03 min 25 sec)
[DUEL] Epoch ended. INSTR misses = 62, DATA misses = 69. Winner = INSTR
[DUEL] Epoch ended. INSTR misses = 71, DATA misses = 78. Winner = INSTR
[DUEL] Epoch ended. INSTR misses = 45, DATA misses = 44. Winner = DATA
[DUEL] Epoch ended. INSTR misses = 69, DATA misses = 61. Winner = DATA
[DUEL] Epoch ended. INSTR misses = 100, DATA misses = 109. Winner = INSTR
[DUEL] Epoch ended. INSTR misses = 59, DATA misses = 53. Winner = DATA
[DUEL] Epoch ended. INSTR misses = 44, DATA misses = 40. Winner = DATA
[DUEL] Epoch ended. INSTR misses = 32, DATA misses = 35. Winner = INSTR
[DUEL] Epoch ended. INSTR misses = 120, DATA misses = 122. Winner = INSTR
[DUEL] Epoch ended. INSTR misses = 57, DATA misses = 64. Winner = INSTR
[DUEL] Epoch ended. INSTR misses = 33, DATA misses = 26. Winner = DATA
[DUEL] Epoch ended. INSTR misses = 27, DATA misses = 22. Winner = DATA
[DUEL] Epoch ended. INSTR misses = 79, DATA misses = 79. Winner = INSTR
[DUEL] Epoch ended. INSTR misses = 105, DATA misses = 112. Winner = INSTR
[DUEL] Epoch ended. INSTR misses = 53, DATA misses = 45. Winner = DATA
[DUEL] Epoch ended. INSTR misses = 75, DATA misses = 76. Winner = INSTR
[DUEL] Epoch ended. INSTR misses = 50, DATA misses = 52. Winner = INSTR
[DUEL] Epoch ended. INSTR misses = 53, DATA misses = 53. Winner = INSTR
[DUEL] Epoch ended. INSTR misses = 14, DATA misses = 11. Winner = DATA
[DUEL] Epoch ended. INSTR misses = 94, DATA misses = 95. Winner = INSTR
Heartbeat CPU 0 instructions: 60000006 cycles: 24079414 heartbeat IPC: 1.708 cumulative IPC: 1.688 (Simulation time: 00 hr 04 min 21 sec)
[DUEL] Epoch ended. INSTR misses = 106, DATA misses = 110. Winner = INSTR
[DUEL] Epoch ended. INSTR misses = 64, DATA misses = 65. Winner = INSTR
[DUEL] Epoch ended. INSTR misses = 33, DATA misses = 25. Winner = DATA
[DUEL] Epoch ended. INSTR misses = 113, DATA misses = 121. Winner = INSTR
[DUEL] Epoch ended. INSTR misses = 100, DATA misses = 103. Winner = INSTR
[DUEL] Epoch ended. INSTR misses = 31, DATA misses = 32. Winner = INSTR
[DUEL] Epoch ended. INSTR misses = 84, DATA misses = 80. Winner = DATA
[DUEL] Epoch ended. INSTR misses = 105, DATA misses = 109. Winner = INSTR
*** Reached end of trace: (0, "../traces/public_traces/srv/srv_33.champsimtrace.xz")
[DUEL] Epoch ended. INSTR misses = 16, DATA misses = 17. Winner = INSTR
[DUEL] Epoch ended. INSTR misses = 82, DATA misses = 72. Winner = DATA
[DUEL] Epoch ended. INSTR misses = 32, DATA misses = 17. Winner = DATA
[DUEL] Epoch ended. INSTR misses = 40, DATA misses = 31. Winner = DATA
[DUEL] Epoch ended. INSTR misses = 52, DATA misses = 13. Winner = DATA
[DUEL] Epoch ended. INSTR misses = 34, DATA misses = 17. Winner = DATA
[DUEL] Epoch ended. INSTR misses = 30, DATA misses = 41. Winner = INSTR
[DUEL] Epoch ended. INSTR misses = 45, DATA misses = 46. Winner = INSTR
[DUEL] Epoch ended. INSTR misses = 71, DATA misses = 74. Winner = INSTR
[DUEL] Epoch ended. INSTR misses = 75, DATA misses = 91. Winner = INSTR
[DUEL] Epoch ended. INSTR misses = 68, DATA misses = 70. Winner = INSTR
Heartbeat CPU 0 instructions: 70000000 cycles: 30105378 heartbeat IPC: 1.659 cumulative IPC: 1.68 (Simulation time: 00 hr 05 min 19 sec)
[DUEL] Epoch ended. INSTR misses = 27, DATA misses = 30. Winner = INSTR
[DUEL] Epoch ended. INSTR misses = 87, DATA misses = 102. Winner = INSTR
[DUEL] Epoch ended. INSTR misses = 72, DATA misses = 78. Winner = INSTR
[DUEL] Epoch ended. INSTR misses = 43, DATA misses = 45. Winner = INSTR
[DUEL] Epoch ended. INSTR misses = 24, DATA misses = 25. Winner = INSTR
[DUEL] Epoch ended. INSTR misses = 69, DATA misses = 63. Winner = DATA
[DUEL] Epoch ended. INSTR misses = 125, DATA misses = 139. Winner = INSTR
[DUEL] Epoch ended. INSTR misses = 35, DATA misses = 40. Winner = INSTR
[DUEL] Epoch ended. INSTR misses = 69, DATA misses = 72. Winner = INSTR
[DUEL] Epoch ended. INSTR misses = 62, DATA misses = 59. Winner = DATA
[DUEL] Epoch ended. INSTR misses = 112, DATA misses = 110. Winner = DATA
[DUEL] Epoch ended. INSTR misses = 40, DATA misses = 47. Winner = INSTR
[DUEL] Epoch ended. INSTR misses = 64, DATA misses = 62. Winner = DATA
[DUEL] Epoch ended. INSTR misses = 88, DATA misses = 89. Winner = INSTR
[DUEL] Epoch ended. INSTR misses = 99, DATA misses = 94. Winner = DATA
[DUEL] Epoch ended. INSTR misses = 29, DATA misses = 39. Winner = INSTR
[DUEL] Epoch ended. INSTR misses = 39, DATA misses = 41. Winner = INSTR
[DUEL] Epoch ended. INSTR misses = 71, DATA misses = 65. Winner = DATA
[DUEL] Epoch ended. INSTR misses = 48, DATA misses = 47. Winner = DATA
[DUEL] Epoch ended. INSTR misses = 74, DATA misses = 78. Winner = INSTR
Heartbeat CPU 0 instructions: 80000002 cycles: 35948367 heartbeat IPC: 1.711 cumulative IPC: 1.687 (Simulation time: 00 hr 06 min 17 sec)
[DUEL] Epoch ended. INSTR misses = 82, DATA misses = 90. Winner = INSTR
[DUEL] Epoch ended. INSTR misses = 79, DATA misses = 77. Winner = DATA
[DUEL] Epoch ended. INSTR misses = 49, DATA misses = 49. Winner = INSTR
[DUEL] Epoch ended. INSTR misses = 65, DATA misses = 64. Winner = DATA
[DUEL] Epoch ended. INSTR misses = 62, DATA misses = 67. Winner = INSTR
[DUEL] Epoch ended. INSTR misses = 83, DATA misses = 79. Winner = DATA
[DUEL] Epoch ended. INSTR misses = 62, DATA misses = 66. Winner = INSTR
[DUEL] Epoch ended. INSTR misses = 51, DATA misses = 50. Winner = DATA
[DUEL] Epoch ended. INSTR misses = 91, DATA misses = 100. Winner = INSTR
[DUEL] Epoch ended. INSTR misses = 82, DATA misses = 78. Winner = DATA
[DUEL] Epoch ended. INSTR misses = 36, DATA misses = 33. Winner = DATA
[DUEL] Epoch ended. INSTR misses = 17, DATA misses = 18. Winner = INSTR
[DUEL] Epoch ended. INSTR misses = 119, DATA misses = 122. Winner = INSTR
[DUEL] Epoch ended. INSTR misses = 60, DATA misses = 65. Winner = INSTR
[DUEL] Epoch ended. INSTR misses = 31, DATA misses = 28. Winner = DATA
[DUEL] Epoch ended. INSTR misses = 28, DATA misses = 27. Winner = DATA
[DUEL] Epoch ended. INSTR misses = 77, DATA misses = 70. Winner = DATA
[DUEL] Epoch ended. INSTR misses = 108, DATA misses = 112. Winner = INSTR
[DUEL] Epoch ended. INSTR misses = 56, DATA misses = 55. Winner = DATA
Heartbeat CPU 0 instructions: 90000007 cycles: 42017227 heartbeat IPC: 1.648 cumulative IPC: 1.68 (Simulation time: 00 hr 07 min 15 sec)
[DUEL] Epoch ended. INSTR misses = 71, DATA misses = 72. Winner = INSTR
[DUEL] Epoch ended. INSTR misses = 50, DATA misses = 46. Winner = DATA
[DUEL] Epoch ended. INSTR misses = 60, DATA misses = 59. Winner = DATA
[DUEL] Epoch ended. INSTR misses = 35, DATA misses = 31. Winner = DATA
[DUEL] Epoch ended. INSTR misses = 73, DATA misses = 75. Winner = INSTR
[DUEL] Epoch ended. INSTR misses = 98, DATA misses = 104. Winner = INSTR
[DUEL] Epoch ended. INSTR misses = 68, DATA misses = 65. Winner = DATA
[DUEL] Epoch ended. INSTR misses = 30, DATA misses = 25. Winner = DATA
[DUEL] Epoch ended. INSTR misses = 114, DATA misses = 121. Winner = INSTR
[DUEL] Epoch ended. INSTR misses = 100, DATA misses = 103. Winner = INSTR
[DUEL] Epoch ended. INSTR misses = 77, DATA misses = 77. Winner = INSTR
[DUEL] Epoch ended. INSTR misses = 75, DATA misses = 80. Winner = INSTR
[DUEL] Epoch ended. INSTR misses = 69, DATA misses = 64. Winner = DATA
*** Reached end of trace: (0, "../traces/public_traces/srv/srv_33.champsimtrace.xz")
[DUEL] Epoch ended. INSTR misses = 27, DATA misses = 37. Winner = INSTR
[DUEL] Epoch ended. INSTR misses = 72, DATA misses = 52. Winner = DATA
[DUEL] Epoch ended. INSTR misses = 52, DATA misses = 32. Winner = DATA
[DUEL] Epoch ended. INSTR misses = 27, DATA misses = 18. Winner = DATA
[DUEL] Epoch ended. INSTR misses = 46, DATA misses = 11. Winner = DATA
[DUEL] Epoch ended. INSTR misses = 32, DATA misses = 17. Winner = DATA
[DUEL] Epoch ended. INSTR misses = 39, DATA misses = 54. Winner = INSTR
Heartbeat CPU 0 instructions: 100000000 cycles: 48043773 heartbeat IPC: 1.659 cumulative IPC: 1.677 (Simulation time: 00 hr 08 min 13 sec)
[DUEL] Epoch ended. INSTR misses = 37, DATA misses = 35. Winner = DATA
[DUEL] Epoch ended. INSTR misses = 75, DATA misses = 87. Winner = INSTR
[DUEL] Epoch ended. INSTR misses = 74, DATA misses = 90. Winner = INSTR
[DUEL] Epoch ended. INSTR misses = 62, DATA misses = 70. Winner = INSTR
[DUEL] Epoch ended. INSTR misses = 44, DATA misses = 56. Winner = INSTR
[DUEL] Epoch ended. INSTR misses = 70, DATA misses = 76. Winner = INSTR
[DUEL] Epoch ended. INSTR misses = 73, DATA misses = 79. Winner = INSTR
[DUEL] Epoch ended. INSTR misses = 51, DATA misses = 57. Winner = INSTR
[DUEL] Epoch ended. INSTR misses = 32, DATA misses = 27. Winner = DATA
[DUEL] Epoch ended. INSTR misses = 54, DATA misses = 48. Winner = DATA
[DUEL] Epoch ended. INSTR misses = 125, DATA misses = 139. Winner = INSTR
[DUEL] Epoch ended. INSTR misses = 68, DATA misses = 75. Winner = INSTR
[DUEL] Epoch ended. INSTR misses = 37, DATA misses = 37. Winner = INSTR
[DUEL] Epoch ended. INSTR misses = 61, DATA misses = 59. Winner = DATA
[DUEL] Epoch ended. INSTR misses = 111, DATA misses = 110. Winner = DATA
[DUEL] Epoch ended. INSTR misses = 69, DATA misses = 71. Winner = INSTR
[DUEL] Epoch ended. INSTR misses = 57, DATA misses = 70. Winner = INSTR
[DUEL] Epoch ended. INSTR misses = 69, DATA misses = 61. Winner = DATA
[DUEL] Epoch ended. INSTR misses = 101, DATA misses = 94. Winner = DATA
Heartbeat CPU 0 instructions: 110000001 cycles: 53870784 heartbeat IPC: 1.716 cumulative IPC: 1.682 (Simulation time: 00 hr 09 min 11 sec)
[DUEL] Epoch ended. INSTR misses = 47, DATA misses = 62. Winner = INSTR
[DUEL] Epoch ended. INSTR misses = 22, DATA misses = 18. Winner = DATA
[DUEL] Epoch ended. INSTR misses = 73, DATA misses = 68. Winner = DATA
[DUEL] Epoch ended. INSTR misses = 52, DATA misses = 54. Winner = INSTR
[DUEL] Epoch ended. INSTR misses = 66, DATA misses = 67. Winner = INSTR
[DUEL] Epoch ended. INSTR misses = 81, DATA misses = 91. Winner = INSTR
[DUEL] Epoch ended. INSTR misses = 81, DATA misses = 77. Winner = DATA
[DUEL] Epoch ended. INSTR misses = 76, DATA misses = 77. Winner = INSTR
[DUEL] Epoch ended. INSTR misses = 40, DATA misses = 40. Winner = INSTR
[DUEL] Epoch ended. INSTR misses = 59, DATA misses = 64. Winner = INSTR
[DUEL] Epoch ended. INSTR misses = 85, DATA misses = 79. Winner = DATA
[DUEL] Epoch ended. INSTR misses = 77, DATA misses = 81. Winner = INSTR
[DUEL] Epoch ended. INSTR misses = 37, DATA misses = 35. Winner = DATA
[DUEL] Epoch ended. INSTR misses = 88, DATA misses = 99. Winner = INSTR
[DUEL] Epoch ended. INSTR misses = 83, DATA misses = 78. Winner = DATA
[DUEL] Epoch ended. INSTR misses = 39, DATA misses = 36. Winner = DATA
[DUEL] Epoch ended. INSTR misses = 43, DATA misses = 48. Winner = INSTR
[DUEL] Epoch ended. INSTR misses = 88, DATA misses = 81. Winner = DATA
[DUEL] Epoch ended. INSTR misses = 58, DATA misses = 71. Winner = INSTR
[DUEL] Epoch ended. INSTR misses = 49, DATA misses = 42. Winner = DATA
Heartbeat CPU 0 instructions: 120000009 cycles: 59851603 heartbeat IPC: 1.672 cumulative IPC: 1.681 (Simulation time: 00 hr 10 min 09 sec)
[DUEL] Epoch ended. INSTR misses = 41, DATA misses = 42. Winner = INSTR
[DUEL] Epoch ended. INSTR misses = 46, DATA misses = 40. Winner = DATA
[DUEL] Epoch ended. INSTR misses = 109, DATA misses = 112. Winner = INSTR
[DUEL] Epoch ended. INSTR misses = 62, DATA misses = 61. Winner = DATA
[DUEL] Epoch ended. INSTR misses = 78, DATA misses = 80. Winner = INSTR
[DUEL] Epoch ended. INSTR misses = 33, DATA misses = 31. Winner = DATA
[DUEL] Epoch ended. INSTR misses = 64, DATA misses = 63. Winner = DATA
[DUEL] Epoch ended. INSTR misses = 50, DATA misses = 53. Winner = INSTR
[DUEL] Epoch ended. INSTR misses = 68, DATA misses = 71. Winner = INSTR
[DUEL] Epoch ended. INSTR misses = 82, DATA misses = 82. Winner = INSTR
[DUEL] Epoch ended. INSTR misses = 72, DATA misses = 69. Winner = DATA
[DUEL] Epoch ended. INSTR misses = 74, DATA misses = 79. Winner = INSTR
[DUEL] Epoch ended. INSTR misses = 81, DATA misses = 85. Winner = INSTR
[DUEL] Epoch ended. INSTR misses = 85, DATA misses = 81. Winner = DATA
[DUEL] Epoch ended. INSTR misses = 109, DATA misses = 106. Winner = DATA
[DUEL] Epoch ended. INSTR misses = 61, DATA misses = 77. Winner = INSTR
[DUEL] Epoch ended. INSTR misses = 50, DATA misses = 38. Winner = DATA
*** Reached end of trace: (0, "../traces/public_traces/srv/srv_33.champsimtrace.xz")
[DUEL] Epoch ended. INSTR misses = 23, DATA misses = 22. Winner = DATA
[DUEL] Epoch ended. INSTR misses = 76, DATA misses = 67. Winner = DATA
Heartbeat CPU 0 instructions: 130000005 cycles: 65798235 heartbeat IPC: 1.682 cumulative IPC: 1.681 (Simulation time: 00 hr 11 min 06 sec)
Simulation finished CPU 0 instructions: 100000004 cycles: 59495928 cumulative IPC: 1.681 (Simulation time: 00 hr 11 min 06 sec)
Simulation complete CPU 0 instructions: 100000004 cycles: 59495928 cumulative IPC: 1.681 (Simulation time: 00 hr 11 min 06 sec)

ChampSim completed all CPUs

=== Simulation ===
CPU 0 runs ../traces/public_traces/srv/srv_33.champsimtrace.xz
Region of Interest Statistics

CPU 0 cumulative IPC: 1.681 instructions: 100000004 cycles: 59495928
CPU 0 Branch Prediction Accuracy: 99.88% MPKI: 0.1882 Average ROB Occupancy at Mispredict: 202.6
Branch type MPKI
BRANCH_DIRECT_JUMP: 0.00013
BRANCH_INDIRECT: 0.142
BRANCH_CONDITIONAL: 0.0451
BRANCH_DIRECT_CALL: 7e-05
BRANCH_INDIRECT_CALL: 5e-05
BRANCH_RETURN: 0.00101

LLC TOTAL        ACCESS:    4707547 HIT:    1978240 MISS:    2729307
LLC LOAD         ACCESS:     484070 HIT:     360787 MISS:     123283
LLC RFO          ACCESS:    1583385 HIT:     427030 MISS:    1156355
LLC PREFETCH     ACCESS:     815528 HIT:     322408 MISS:     493120
LLC WRITE        ACCESS:    1815040 HIT:     867389 MISS:     947651
LLC TRANSLATION  ACCESS:       9524 HIT:        626 MISS:       8898
LLC PREFETCH REQUESTED:          0 ISSUED:          0 USEFUL:          0 USELESS:          0
LLC AVERAGE MISS LATENCY: 201.3 cycles
cpu0_DTLB TOTAL        ACCESS:   18611320 HIT:   17586925 MISS:    1024395
cpu0_DTLB LOAD         ACCESS:   18611320 HIT:   17586925 MISS:    1024395
cpu0_DTLB RFO          ACCESS:          0 HIT:          0 MISS:          0
cpu0_DTLB PREFETCH     ACCESS:          0 HIT:          0 MISS:          0
cpu0_DTLB WRITE        ACCESS:          0 HIT:          0 MISS:          0
cpu0_DTLB TRANSLATION  ACCESS:          0 HIT:          0 MISS:          0
cpu0_DTLB PREFETCH REQUESTED:          0 ISSUED:          0 USEFUL:          0 USELESS:          0
cpu0_DTLB AVERAGE MISS LATENCY: 7.458 cycles
cpu0_ITLB TOTAL        ACCESS:   14702855 HIT:   14683643 MISS:      19212
cpu0_ITLB LOAD         ACCESS:   14702855 HIT:   14683643 MISS:      19212
cpu0_ITLB RFO          ACCESS:          0 HIT:          0 MISS:          0
cpu0_ITLB PREFETCH     ACCESS:          0 HIT:          0 MISS:          0
cpu0_ITLB WRITE        ACCESS:          0 HIT:          0 MISS:          0
cpu0_ITLB TRANSLATION  ACCESS:          0 HIT:          0 MISS:          0
cpu0_ITLB PREFETCH REQUESTED:          0 ISSUED:          0 USEFUL:          0 USELESS:          0
cpu0_ITLB AVERAGE MISS LATENCY: 20.18 cycles
cpu0_L1D TOTAL        ACCESS:   34038824 HIT:   20695729 MISS:   13343095
cpu0_L1D LOAD         ACCESS:   13308730 HIT:   10409555 MISS:    2899175
cpu0_L1D RFO          ACCESS:          0 HIT:          0 MISS:          0
cpu0_L1D PREFETCH     ACCESS:    3630940 HIT:    1235259 MISS:    2395681
cpu0_L1D WRITE        ACCESS:   17068900 HIT:    9037848 MISS:    8031052
cpu0_L1D TRANSLATION  ACCESS:      30254 HIT:      13067 MISS:      17187
cpu0_L1D PREFETCH REQUESTED:    9280952 ISSUED:    3630909 USEFUL:     360378 USELESS:      55890
cpu0_L1D AVERAGE MISS LATENCY: 39.7 cycles
cpu0_L1I TOTAL        ACCESS:   21384726 HIT:   15018304 MISS:    6366422
cpu0_L1I LOAD         ACCESS:   11213282 HIT:    6394149 MISS:    4819133
cpu0_L1I RFO          ACCESS:          0 HIT:          0 MISS:          0
cpu0_L1I PREFETCH     ACCESS:   10171444 HIT:    8624155 MISS:    1547289
cpu0_L1I WRITE        ACCESS:          0 HIT:          0 MISS:          0
cpu0_L1I TRANSLATION  ACCESS:          0 HIT:          0 MISS:          0
cpu0_L1I PREFETCH REQUESTED:   32759681 ISSUED:   10171452 USEFUL:    1244684 USELESS:     136707
cpu0_L1I AVERAGE MISS LATENCY: 9.311 cycles
cpu0_L2C TOTAL        ACCESS:   17317280 HIT:   12434698 MISS:    4882582
cpu0_L2C LOAD         ACCESS:    4509625 HIT:    3963518 MISS:     546107
cpu0_L2C RFO          ACCESS:    1838447 HIT:     254632 MISS:    1583815
cpu0_L2C PREFETCH     ACCESS:    8751938 HIT:    6008929 MISS:    2743009
cpu0_L2C WRITE        ACCESS:    2200160 HIT:    2200033 MISS:        127
cpu0_L2C TRANSLATION  ACCESS:      17110 HIT:       7586 MISS:       9524
cpu0_L2C PREFETCH REQUESTED:    7770350 ISSUED:    5494194 USEFUL:      99752 USELESS:     184333
cpu0_L2C AVERAGE MISS LATENCY: 122.8 cycles
cpu0_STLB TOTAL        ACCESS:     502297 HIT:     474131 MISS:      28166
cpu0_STLB LOAD         ACCESS:     502297 HIT:     474131 MISS:      28166
cpu0_STLB RFO          ACCESS:          0 HIT:          0 MISS:          0
cpu0_STLB PREFETCH     ACCESS:          0 HIT:          0 MISS:          0
cpu0_STLB WRITE        ACCESS:          0 HIT:          0 MISS:          0
cpu0_STLB TRANSLATION  ACCESS:          0 HIT:          0 MISS:          0
cpu0_STLB PREFETCH REQUESTED:          0 ISSUED:          0 USEFUL:          0 USELESS:          0
cpu0_STLB AVERAGE MISS LATENCY: 211.3 cycles

DRAM Statistics

Channel 0 RQ ROW_BUFFER_HIT:     399397
  ROW_BUFFER_MISS:     500993
 AVG DBUS CONGESTED CYCLE: 3.952
WQ ROW_BUFFER_HIT: Channel 0 
  ROW_BUFFER_MISS:      58738
  FULL:     540621

Channel 1 RQ ROW_BUFFER_HIT:     402745
  ROW_BUFFER_MISS:     478414
 AVG DBUS CONGESTED CYCLE: 3.945
WQ ROW_BUFFER_HIT: Channel 1 
  ROW_BUFFER_MISS:      61955
  FULL:     522708
BERTI TO_L1: 3613140 TO_L2: 8676244 TO_L2_BC_MSHR: 4064723
BERTI AVG_LAT: 76.4883 NUM_TRACK_LATENCY: 2131620 NUM_CANT_TRACK_LATENCY: 1
BERTI CROSS_PAGE 1598837 NO_CROSS_PAGE: 10690547
BERTI FOUND_BERTI: 3582332 NO_FOUND_BERTI: 15845465
BERTI AVERAGE_ISSUED: 4.88807
CPU 0 L1I Entangling prefetcher final stats
IP accesses: 5cd0 173400 136589 / 11308219
IP misses: 13dd 4f740 20425 / 4914070
IP hits: 0 0 0 / 0
IP late: 9d3d 274f40 8679 / 2104480
IP wrong: 55ff 157fc0 7390 / 132228
miss rate: 0.434558
coverage: 0
coverage_late: 0.428257
accuracy: 0
accuracy_late: 0.940883
discarded: 0
evicts entangled j table: 0
evicts entangled k table: 352862
max bb size: 13
formats: 64407 0 246171 89219 34668 53927 0 
hist_lookups: 46255 132491 233323 287053 282539 251018 178216 137667 131042 124659 103644 66346 43351 23977 7119 0 339 824493 
hist_lookups_evict: 0.0117974 %
hist_lookups_shortlat: 28.6927 %
bb_found_hist: 0 2372924 1204005 453063 203950 119609 71092 29508 4761 1079 0 476 0 4496 0 0 0 0 0 0 0 0 0 0 0 0 0 0 0 0 0 0 0 0 0 0 0 0 0 0 0 0 0 0 0 0 0 0 0 0 0 0 0 0 0 0 0 0 0 0 0 0 0 0 
bb_found_summary: 8298559 4464963 1.8586
entangled_found_hist: 0 1218732 736101 2329587 564873 73255 30694 0 
entangled_found_summary: 12489626 4953242 2.52151
bb_ent_found_hist: 0 3726946 2447015 1083334 532736 190825 205652 83593 21060 3138 0 1873 0 17310 0 0 0 0 0 0 0 0 0 0 0 0 0 0 0 0 0 0 0 0 0 0 0 0 0 0 0 0 0 0 0 0 0 0 0 0 0 0 0 0 0 0 0 0 0 0 0 0 0 0 
bb_ent_found_summary: 17217465 8313482 2.07103
