WARNING: physical memory size is smaller than virtual memory size.

*** ChampSim Multicore Out-of-Order Simulator ***
Warmup Instructions: 30000000
Simulation Instructions: 100000000
Number of CPUs: 1
Page size: 4096

BTB:
Basic BTB sets: 1024 ways: 8
Indirect:
history lengths: 0 0 10 16 27 44 60 96 109 219 449 487 714 1313 2146 3881 
ITTAGE tables: 64768 bytes;Region table: 240 bytes;IUM: 384 bytes;Total Storage= 65392 bytes;
RAS:
RAS size: 64
[LLC] INSTR Demand IPV: 1 2 2 1 4 Prefetch IPV: 1 2 1 1 4
[LLC] DATA  Demand IPV: 1 1 1 2 4 Prefetch IPV: 1 1 2 2 4
Berti Prefetcher
CPU 0 Entangling prefetcher
Off-chip DRAM Size: 8 GiB Channels: 2 Width: 64-bit Data Race: 6400 MT/s
[DUEL] Epoch ended. INSTR misses = 55, DATA misses = 36. Winner = DATA
[DUEL] Epoch ended. INSTR misses = 24, DATA misses = 19. Winner = DATA
[DUEL] Epoch ended. INSTR misses = 49, DATA misses = 48. Winner = DATA
[DUEL] Epoch ended. INSTR misses = 47, DATA misses = 50. Winner = INSTR
[DUEL] Epoch ended. INSTR misses = 39, DATA misses = 32. Winner = DATA
[DUEL] Epoch ended. INSTR misses = 7, DATA misses = 1. Winner = DATA
[DUEL] Epoch ended. INSTR misses = 51, DATA misses = 48. Winner = DATA
[DUEL] Epoch ended. INSTR misses = 64, DATA misses = 59. Winner = DATA
[DUEL] Epoch ended. INSTR misses = 55, DATA misses = 47. Winner = DATA
[DUEL] Epoch ended. INSTR misses = 44, DATA misses = 48. Winner = INSTR
[DUEL] Epoch ended. INSTR misses = 59, DATA misses = 54. Winner = DATA
[DUEL] Epoch ended. INSTR misses = 117, DATA misses = 123. Winner = INSTR
[DUEL] Epoch ended. INSTR misses = 46, DATA misses = 40. Winner = DATA
[DUEL] Epoch ended. INSTR misses = 63, DATA misses = 52. Winner = DATA
[DUEL] Epoch ended. INSTR misses = 110, DATA misses = 121. Winner = INSTR
[DUEL] Epoch ended. INSTR misses = 42, DATA misses = 37. Winner = DATA
[DUEL] Epoch ended. INSTR misses = 51, DATA misses = 44. Winner = DATA
[DUEL] Epoch ended. INSTR misses = 51, DATA misses = 46. Winner = DATA
[DUEL] Epoch ended. INSTR misses = 55, DATA misses = 59. Winner = INSTR
Heartbeat CPU 0 instructions: 10000008 cycles: 2095961 heartbeat IPC: 4.771 cumulative IPC: 4.771 (Simulation time: 00 hr 00 min 30 sec)
[DUEL] Epoch ended. INSTR misses = 44, DATA misses = 45. Winner = INSTR
[DUEL] Epoch ended. INSTR misses = 21, DATA misses = 25. Winner = INSTR
[DUEL] Epoch ended. INSTR misses = 69, DATA misses = 65. Winner = DATA
[DUEL] Epoch ended. INSTR misses = 118, DATA misses = 117. Winner = DATA
[DUEL] Epoch ended. INSTR misses = 77, DATA misses = 69. Winner = DATA
[DUEL] Epoch ended. INSTR misses = 29, DATA misses = 26. Winner = DATA
[DUEL] Epoch ended. INSTR misses = 94, DATA misses = 93. Winner = DATA
[DUEL] Epoch ended. INSTR misses = 111, DATA misses = 118. Winner = INSTR
[DUEL] Epoch ended. INSTR misses = 19, DATA misses = 16. Winner = DATA
[DUEL] Epoch ended. INSTR misses = 68, DATA misses = 66. Winner = DATA
[DUEL] Epoch ended. INSTR misses = 85, DATA misses = 81. Winner = DATA
[DUEL] Epoch ended. INSTR misses = 119, DATA misses = 128. Winner = INSTR
[DUEL] Epoch ended. INSTR misses = 42, DATA misses = 24. Winner = DATA
[DUEL] Epoch ended. INSTR misses = 75, DATA misses = 60. Winner = DATA
[DUEL] Epoch ended. INSTR misses = 104, DATA misses = 110. Winner = INSTR
[DUEL] Epoch ended. INSTR misses = 66, DATA misses = 65. Winner = DATA
[DUEL] Epoch ended. INSTR misses = 53, DATA misses = 48. Winner = DATA
[DUEL] Epoch ended. INSTR misses = 54, DATA misses = 49. Winner = DATA
[DUEL] Epoch ended. INSTR misses = 68, DATA misses = 64. Winner = DATA
[DUEL] Epoch ended. INSTR misses = 65, DATA misses = 60. Winner = DATA
Heartbeat CPU 0 instructions: 20000000 cycles: 4206628 heartbeat IPC: 4.738 cumulative IPC: 4.754 (Simulation time: 00 hr 01 min 00 sec)
[DUEL] Epoch ended. INSTR misses = 43, DATA misses = 39. Winner = DATA
[DUEL] Epoch ended. INSTR misses = 28, DATA misses = 26. Winner = DATA
[DUEL] Epoch ended. INSTR misses = 71, DATA misses = 69. Winner = DATA
[DUEL] Epoch ended. INSTR misses = 67, DATA misses = 65. Winner = DATA
[DUEL] Epoch ended. INSTR misses = 77, DATA misses = 71. Winner = DATA
[DUEL] Epoch ended. INSTR misses = 49, DATA misses = 43. Winner = DATA
[DUEL] Epoch ended. INSTR misses = 52, DATA misses = 47. Winner = DATA
[DUEL] Epoch ended. INSTR misses = 117, DATA misses = 113. Winner = DATA
[DUEL] Epoch ended. INSTR misses = 40, DATA misses = 28. Winner = DATA
[DUEL] Epoch ended. INSTR misses = 72, DATA misses = 64. Winner = DATA
[DUEL] Epoch ended. INSTR misses = 100, DATA misses = 98. Winner = DATA
[DUEL] Epoch ended. INSTR misses = 84, DATA misses = 75. Winner = DATA
[DUEL] Epoch ended. INSTR misses = 61, DATA misses = 53. Winner = DATA
[DUEL] Epoch ended. INSTR misses = 16, DATA misses = 15. Winner = DATA
[DUEL] Epoch ended. INSTR misses = 81, DATA misses = 81. Winner = INSTR
[DUEL] Epoch ended. INSTR misses = 81, DATA misses = 76. Winner = DATA
[DUEL] Epoch ended. INSTR misses = 82, DATA misses = 69. Winner = DATA
[DUEL] Epoch ended. INSTR misses = 36, DATA misses = 33. Winner = DATA
[DUEL] Epoch ended. INSTR misses = 72, DATA misses = 75. Winner = INSTR
Heartbeat CPU 0 instructions: 30000001 cycles: 6297693 heartbeat IPC: 4.782 cumulative IPC: 4.764 (Simulation time: 00 hr 01 min 30 sec)
Warmup finished CPU 0 instructions: 30000001 cycles: 6297694 cumulative IPC: 4.764 (Simulation time: 00 hr 01 min 30 sec)
Warmup complete CPU 0 instructions: 30000001 cycles: 6297694 cumulative IPC: 4.764 (Simulation time: 00 hr 01 min 30 sec)
[DUEL] Epoch ended. INSTR misses = 40, DATA misses = 27. Winner = DATA
[DUEL] Epoch ended. INSTR misses = 19, DATA misses = 20. Winner = INSTR
[DUEL] Epoch ended. INSTR misses = 20, DATA misses = 20. Winner = INSTR
[DUEL] Epoch ended. INSTR misses = 101, DATA misses = 97. Winner = DATA
*** Reached end of trace: (0, "../traces/public_traces/srv/srv_34.champsimtrace.xz")
[DUEL] Epoch ended. INSTR misses = 74, DATA misses = 61. Winner = DATA
[DUEL] Epoch ended. INSTR misses = 21, DATA misses = 14. Winner = DATA
[DUEL] Epoch ended. INSTR misses = 6, DATA misses = 6. Winner = INSTR
[DUEL] Epoch ended. INSTR misses = 23, DATA misses = 3. Winner = DATA
[DUEL] Epoch ended. INSTR misses = 38, DATA misses = 21. Winner = DATA
[DUEL] Epoch ended. INSTR misses = 44, DATA misses = 33. Winner = DATA
[DUEL] Epoch ended. INSTR misses = 15, DATA misses = 2. Winner = DATA
[DUEL] Epoch ended. INSTR misses = 62, DATA misses = 46. Winner = DATA
[DUEL] Epoch ended. INSTR misses = 65, DATA misses = 60. Winner = DATA
[DUEL] Epoch ended. INSTR misses = 62, DATA misses = 49. Winner = DATA
[DUEL] Epoch ended. INSTR misses = 46, DATA misses = 39. Winner = DATA
[DUEL] Epoch ended. INSTR misses = 63, DATA misses = 55. Winner = DATA
[DUEL] Epoch ended. INSTR misses = 120, DATA misses = 119. Winner = DATA
[DUEL] Epoch ended. INSTR misses = 56, DATA misses = 56. Winner = INSTR
[DUEL] Epoch ended. INSTR misses = 68, DATA misses = 51. Winner = DATA
[DUEL] Epoch ended. INSTR misses = 96, DATA misses = 104. Winner = INSTR
Heartbeat CPU 0 instructions: 40000009 cycles: 12098797 heartbeat IPC: 1.724 cumulative IPC: 1.724 (Simulation time: 00 hr 02 min 27 sec)
[DUEL] Epoch ended. INSTR misses = 66, DATA misses = 61. Winner = DATA
[DUEL] Epoch ended. INSTR misses = 55, DATA misses = 34. Winner = DATA
[DUEL] Epoch ended. INSTR misses = 39, DATA misses = 29. Winner = DATA
[DUEL] Epoch ended. INSTR misses = 52, DATA misses = 57. Winner = INSTR
[DUEL] Epoch ended. INSTR misses = 43, DATA misses = 40. Winner = DATA
[DUEL] Epoch ended. INSTR misses = 53, DATA misses = 56. Winner = INSTR
[DUEL] Epoch ended. INSTR misses = 48, DATA misses = 42. Winner = DATA
[DUEL] Epoch ended. INSTR misses = 110, DATA misses = 111. Winner = INSTR
[DUEL] Epoch ended. INSTR misses = 70, DATA misses = 67. Winner = DATA
[DUEL] Epoch ended. INSTR misses = 48, DATA misses = 48. Winner = INSTR
[DUEL] Epoch ended. INSTR misses = 80, DATA misses = 72. Winner = DATA
[DUEL] Epoch ended. INSTR misses = 114, DATA misses = 117. Winner = INSTR
[DUEL] Epoch ended. INSTR misses = 69, DATA misses = 64. Winner = DATA
[DUEL] Epoch ended. INSTR misses = 21, DATA misses = 17. Winner = DATA
[DUEL] Epoch ended. INSTR misses = 92, DATA misses = 80. Winner = DATA
[DUEL] Epoch ended. INSTR misses = 121, DATA misses = 121. Winner = INSTR
[DUEL] Epoch ended. INSTR misses = 76, DATA misses = 53. Winner = DATA
[DUEL] Epoch ended. INSTR misses = 65, DATA misses = 54. Winner = DATA
[DUEL] Epoch ended. INSTR misses = 85, DATA misses = 80. Winner = DATA
Heartbeat CPU 0 instructions: 50000005 cycles: 17868105 heartbeat IPC: 1.733 cumulative IPC: 1.729 (Simulation time: 00 hr 03 min 24 sec)
[DUEL] Epoch ended. INSTR misses = 68, DATA misses = 67. Winner = DATA
[DUEL] Epoch ended. INSTR misses = 62, DATA misses = 47. Winner = DATA
[DUEL] Epoch ended. INSTR misses = 53, DATA misses = 47. Winner = DATA
[DUEL] Epoch ended. INSTR misses = 69, DATA misses = 62. Winner = DATA
[DUEL] Epoch ended. INSTR misses = 83, DATA misses = 80. Winner = DATA
[DUEL] Epoch ended. INSTR misses = 38, DATA misses = 30. Winner = DATA
[DUEL] Epoch ended. INSTR misses = 49, DATA misses = 35. Winner = DATA
[DUEL] Epoch ended. INSTR misses = 49, DATA misses = 46. Winner = DATA
[DUEL] Epoch ended. INSTR misses = 103, DATA misses = 96. Winner = DATA
[DUEL] Epoch ended. INSTR misses = 72, DATA misses = 50. Winner = DATA
[DUEL] Epoch ended. INSTR misses = 46, DATA misses = 48. Winner = INSTR
[DUEL] Epoch ended. INSTR misses = 30, DATA misses = 30. Winner = INSTR
[DUEL] Epoch ended. INSTR misses = 121, DATA misses = 113. Winner = DATA
[DUEL] Epoch ended. INSTR misses = 79, DATA misses = 64. Winner = DATA
[DUEL] Epoch ended. INSTR misses = 63, DATA misses = 49. Winner = DATA
[DUEL] Epoch ended. INSTR misses = 80, DATA misses = 76. Winner = DATA
[DUEL] Epoch ended. INSTR misses = 123, DATA misses = 114. Winner = DATA
[DUEL] Epoch ended. INSTR misses = 34, DATA misses = 27. Winner = DATA
[DUEL] Epoch ended. INSTR misses = 29, DATA misses = 21. Winner = DATA
[DUEL] Epoch ended. INSTR misses = 67, DATA misses = 63. Winner = DATA
Heartbeat CPU 0 instructions: 60000003 cycles: 23519102 heartbeat IPC: 1.77 cumulative IPC: 1.742 (Simulation time: 00 hr 04 min 20 sec)
[DUEL] Epoch ended. INSTR misses = 88, DATA misses = 82. Winner = DATA
[DUEL] Epoch ended. INSTR misses = 100, DATA misses = 83. Winner = DATA
[DUEL] Epoch ended. INSTR misses = 23, DATA misses = 12. Winner = DATA
[DUEL] Epoch ended. INSTR misses = 76, DATA misses = 75. Winner = DATA
[DUEL] Epoch ended. INSTR misses = 45, DATA misses = 36. Winner = DATA
[DUEL] Epoch ended. INSTR misses = 13, DATA misses = 10. Winner = DATA
[DUEL] Epoch ended. INSTR misses = 24, DATA misses = 20. Winner = DATA
[DUEL] Epoch ended. INSTR misses = 100, DATA misses = 96. Winner = DATA
*** Reached end of trace: (0, "../traces/public_traces/srv/srv_34.champsimtrace.xz")
[DUEL] Epoch ended. INSTR misses = 81, DATA misses = 62. Winner = DATA
[DUEL] Epoch ended. INSTR misses = 30, DATA misses = 12. Winner = DATA
[DUEL] Epoch ended. INSTR misses = 12, DATA misses = 8. Winner = DATA
[DUEL] Epoch ended. INSTR misses = 27, DATA misses = 3. Winner = DATA
[DUEL] Epoch ended. INSTR misses = 38, DATA misses = 20. Winner = DATA
[DUEL] Epoch ended. INSTR misses = 45, DATA misses = 33. Winner = DATA
[DUEL] Epoch ended. INSTR misses = 24, DATA misses = 9. Winner = DATA
[DUEL] Epoch ended. INSTR misses = 47, DATA misses = 23. Winner = DATA
[DUEL] Epoch ended. INSTR misses = 62, DATA misses = 57. Winner = DATA
[DUEL] Epoch ended. INSTR misses = 82, DATA misses = 71. Winner = DATA
[DUEL] Epoch ended. INSTR misses = 46, DATA misses = 34. Winner = DATA
Heartbeat CPU 0 instructions: 70000000 cycles: 29010308 heartbeat IPC: 1.821 cumulative IPC: 1.761 (Simulation time: 00 hr 05 min 15 sec)
[DUEL] Epoch ended. INSTR misses = 52, DATA misses = 38. Winner = DATA
[DUEL] Epoch ended. INSTR misses = 123, DATA misses = 124. Winner = INSTR
[DUEL] Epoch ended. INSTR misses = 52, DATA misses = 53. Winner = INSTR
[DUEL] Epoch ended. INSTR misses = 111, DATA misses = 92. Winner = DATA
[DUEL] Epoch ended. INSTR misses = 57, DATA misses = 61. Winner = INSTR
[DUEL] Epoch ended. INSTR misses = 62, DATA misses = 61. Winner = DATA
[DUEL] Epoch ended. INSTR misses = 77, DATA misses = 61. Winner = DATA
[DUEL] Epoch ended. INSTR misses = 23, DATA misses = 6. Winner = DATA
[DUEL] Epoch ended. INSTR misses = 48, DATA misses = 50. Winner = INSTR
[DUEL] Epoch ended. INSTR misses = 48, DATA misses = 45. Winner = DATA
[DUEL] Epoch ended. INSTR misses = 73, DATA misses = 72. Winner = DATA
[DUEL] Epoch ended. INSTR misses = 37, DATA misses = 29. Winner = DATA
[DUEL] Epoch ended. INSTR misses = 96, DATA misses = 104. Winner = INSTR
[DUEL] Epoch ended. INSTR misses = 91, DATA misses = 94. Winner = INSTR
[DUEL] Epoch ended. INSTR misses = 57, DATA misses = 50. Winner = DATA
[DUEL] Epoch ended. INSTR misses = 62, DATA misses = 44. Winner = DATA
[DUEL] Epoch ended. INSTR misses = 102, DATA misses = 115. Winner = INSTR
[DUEL] Epoch ended. INSTR misses = 67, DATA misses = 64. Winner = DATA
[DUEL] Epoch ended. INSTR misses = 56, DATA misses = 49. Winner = DATA
[DUEL] Epoch ended. INSTR misses = 57, DATA misses = 49. Winner = DATA
Heartbeat CPU 0 instructions: 80000003 cycles: 34592559 heartbeat IPC: 1.791 cumulative IPC: 1.767 (Simulation time: 00 hr 06 min 10 sec)
[DUEL] Epoch ended. INSTR misses = 120, DATA misses = 122. Winner = INSTR
[DUEL] Epoch ended. INSTR misses = 91, DATA misses = 76. Winner = DATA
[DUEL] Epoch ended. INSTR misses = 58, DATA misses = 50. Winner = DATA
[DUEL] Epoch ended. INSTR misses = 71, DATA misses = 62. Winner = DATA
[DUEL] Epoch ended. INSTR misses = 65, DATA misses = 67. Winner = INSTR
[DUEL] Epoch ended. INSTR misses = 75, DATA misses = 59. Winner = DATA
[DUEL] Epoch ended. INSTR misses = 56, DATA misses = 52. Winner = DATA
[DUEL] Epoch ended. INSTR misses = 51, DATA misses = 46. Winner = DATA
[DUEL] Epoch ended. INSTR misses = 83, DATA misses = 80. Winner = DATA
[DUEL] Epoch ended. INSTR misses = 50, DATA misses = 33. Winner = DATA
[DUEL] Epoch ended. INSTR misses = 40, DATA misses = 36. Winner = DATA
[DUEL] Epoch ended. INSTR misses = 45, DATA misses = 42. Winner = DATA
[DUEL] Epoch ended. INSTR misses = 109, DATA misses = 97. Winner = DATA
[DUEL] Epoch ended. INSTR misses = 85, DATA misses = 80. Winner = DATA
[DUEL] Epoch ended. INSTR misses = 30, DATA misses = 18. Winner = DATA
[DUEL] Epoch ended. INSTR misses = 31, DATA misses = 29. Winner = DATA
[DUEL] Epoch ended. INSTR misses = 118, DATA misses = 112. Winner = DATA
[DUEL] Epoch ended. INSTR misses = 72, DATA misses = 64. Winner = DATA
[DUEL] Epoch ended. INSTR misses = 83, DATA misses = 68. Winner = DATA
Heartbeat CPU 0 instructions: 90000001 cycles: 40277629 heartbeat IPC: 1.759 cumulative IPC: 1.766 (Simulation time: 00 hr 07 min 06 sec)
[DUEL] Epoch ended. INSTR misses = 56, DATA misses = 57. Winner = INSTR
[DUEL] Epoch ended. INSTR misses = 126, DATA misses = 116. Winner = DATA
[DUEL] Epoch ended. INSTR misses = 28, DATA misses = 26. Winner = DATA
[DUEL] Epoch ended. INSTR misses = 27, DATA misses = 20. Winner = DATA
[DUEL] Epoch ended. INSTR misses = 69, DATA misses = 63. Winner = DATA
[DUEL] Epoch ended. INSTR misses = 104, DATA misses = 107. Winner = INSTR
[DUEL] Epoch ended. INSTR misses = 80, DATA misses = 65. Winner = DATA
[DUEL] Epoch ended. INSTR misses = 10, DATA misses = 5. Winner = DATA
[DUEL] Epoch ended. INSTR misses = 78, DATA misses = 75. Winner = DATA
[DUEL] Epoch ended. INSTR misses = 50, DATA misses = 48. Winner = DATA
[DUEL] Epoch ended. INSTR misses = 18, DATA misses = 19. Winner = INSTR
[DUEL] Epoch ended. INSTR misses = 42, DATA misses = 32. Winner = DATA
[DUEL] Epoch ended. INSTR misses = 64, DATA misses = 64. Winner = INSTR
*** Reached end of trace: (0, "../traces/public_traces/srv/srv_34.champsimtrace.xz")
[DUEL] Epoch ended. INSTR misses = 84, DATA misses = 61. Winner = DATA
[DUEL] Epoch ended. INSTR misses = 26, DATA misses = 13. Winner = DATA
[DUEL] Epoch ended. INSTR misses = 18, DATA misses = 10. Winner = DATA
[DUEL] Epoch ended. INSTR misses = 18, DATA misses = 3. Winner = DATA
[DUEL] Epoch ended. INSTR misses = 29, DATA misses = 18. Winner = DATA
[DUEL] Epoch ended. INSTR misses = 45, DATA misses = 33. Winner = DATA
[DUEL] Epoch ended. INSTR misses = 38, DATA misses = 19. Winner = DATA
Heartbeat CPU 0 instructions: 100000011 cycles: 45890387 heartbeat IPC: 1.782 cumulative IPC: 1.768 (Simulation time: 00 hr 08 min 01 sec)
[DUEL] Epoch ended. INSTR misses = 48, DATA misses = 28. Winner = DATA
[DUEL] Epoch ended. INSTR misses = 57, DATA misses = 56. Winner = DATA
[DUEL] Epoch ended. INSTR misses = 81, DATA misses = 71. Winner = DATA
[DUEL] Epoch ended. INSTR misses = 70, DATA misses = 57. Winner = DATA
[DUEL] Epoch ended. INSTR misses = 44, DATA misses = 40. Winner = DATA
[DUEL] Epoch ended. INSTR misses = 97, DATA misses = 102. Winner = INSTR
[DUEL] Epoch ended. INSTR misses = 73, DATA misses = 67. Winner = DATA
[DUEL] Epoch ended. INSTR misses = 98, DATA misses = 87. Winner = DATA
[DUEL] Epoch ended. INSTR misses = 55, DATA misses = 56. Winner = INSTR
[DUEL] Epoch ended. INSTR misses = 53, DATA misses = 56. Winner = INSTR
[DUEL] Epoch ended. INSTR misses = 79, DATA misses = 58. Winner = DATA
[DUEL] Epoch ended. INSTR misses = 15, DATA misses = 6. Winner = DATA
[DUEL] Epoch ended. INSTR misses = 50, DATA misses = 50. Winner = INSTR
[DUEL] Epoch ended. INSTR misses = 43, DATA misses = 44. Winner = INSTR
[DUEL] Epoch ended. INSTR misses = 84, DATA misses = 88. Winner = INSTR
[DUEL] Epoch ended. INSTR misses = 49, DATA misses = 48. Winner = DATA
[DUEL] Epoch ended. INSTR misses = 67, DATA misses = 74. Winner = INSTR
[DUEL] Epoch ended. INSTR misses = 91, DATA misses = 90. Winner = DATA
[DUEL] Epoch ended. INSTR misses = 71, DATA misses = 70. Winner = DATA
Heartbeat CPU 0 instructions: 110000001 cycles: 51498360 heartbeat IPC: 1.783 cumulative IPC: 1.77 (Simulation time: 00 hr 08 min 57 sec)
[DUEL] Epoch ended. INSTR misses = 47, DATA misses = 36. Winner = DATA
[DUEL] Epoch ended. INSTR misses = 98, DATA misses = 105. Winner = INSTR
[DUEL] Epoch ended. INSTR misses = 67, DATA misses = 65. Winner = DATA
[DUEL] Epoch ended. INSTR misses = 53, DATA misses = 49. Winner = DATA
[DUEL] Epoch ended. INSTR misses = 67, DATA misses = 53. Winner = DATA
[DUEL] Epoch ended. INSTR misses = 116, DATA misses = 119. Winner = INSTR
[DUEL] Epoch ended. INSTR misses = 94, DATA misses = 79. Winner = DATA
[DUEL] Epoch ended. INSTR misses = 81, DATA misses = 70. Winner = DATA
[DUEL] Epoch ended. INSTR misses = 73, DATA misses = 59. Winner = DATA
[DUEL] Epoch ended. INSTR misses = 35, DATA misses = 45. Winner = INSTR
[DUEL] Epoch ended. INSTR misses = 100, DATA misses = 84. Winner = DATA
[DUEL] Epoch ended. INSTR misses = 29, DATA misses = 26. Winner = DATA
[DUEL] Epoch ended. INSTR misses = 57, DATA misses = 46. Winner = DATA
[DUEL] Epoch ended. INSTR misses = 82, DATA misses = 80. Winner = DATA
[DUEL] Epoch ended. INSTR misses = 50, DATA misses = 41. Winner = DATA
[DUEL] Epoch ended. INSTR misses = 47, DATA misses = 39. Winner = DATA
[DUEL] Epoch ended. INSTR misses = 40, DATA misses = 31. Winner = DATA
[DUEL] Epoch ended. INSTR misses = 103, DATA misses = 97. Winner = DATA
[DUEL] Epoch ended. INSTR misses = 85, DATA misses = 80. Winner = DATA
[DUEL] Epoch ended. INSTR misses = 53, DATA misses = 36. Winner = DATA
Heartbeat CPU 0 instructions: 120000007 cycles: 57295997 heartbeat IPC: 1.725 cumulative IPC: 1.765 (Simulation time: 00 hr 09 min 54 sec)
[DUEL] Epoch ended. INSTR misses = 12, DATA misses = 13. Winner = INSTR
[DUEL] Epoch ended. INSTR misses = 116, DATA misses = 110. Winner = DATA
[DUEL] Epoch ended. INSTR misses = 92, DATA misses = 85. Winner = DATA
[DUEL] Epoch ended. INSTR misses = 69, DATA misses = 57. Winner = DATA
[DUEL] Epoch ended. INSTR misses = 59, DATA misses = 47. Winner = DATA
[DUEL] Epoch ended. INSTR misses = 119, DATA misses = 115. Winner = DATA
[DUEL] Epoch ended. INSTR misses = 32, DATA misses = 26. Winner = DATA
[DUEL] Epoch ended. INSTR misses = 31, DATA misses = 22. Winner = DATA
[DUEL] Epoch ended. INSTR misses = 72, DATA misses = 64. Winner = DATA
[DUEL] Epoch ended. INSTR misses = 101, DATA misses = 106. Winner = INSTR
[DUEL] Epoch ended. INSTR misses = 76, DATA misses = 66. Winner = DATA
[DUEL] Epoch ended. INSTR misses = 17, DATA misses = 16. Winner = DATA
[DUEL] Epoch ended. INSTR misses = 70, DATA misses = 63. Winner = DATA
[DUEL] Epoch ended. INSTR misses = 50, DATA misses = 46. Winner = DATA
[DUEL] Epoch ended. INSTR misses = 20, DATA misses = 19. Winner = DATA
[DUEL] Epoch ended. INSTR misses = 77, DATA misses = 68. Winner = DATA
[DUEL] Epoch ended. INSTR misses = 29, DATA misses = 29. Winner = INSTR
*** Reached end of trace: (0, "../traces/public_traces/srv/srv_34.champsimtrace.xz")
[DUEL] Epoch ended. INSTR misses = 86, DATA misses = 65. Winner = DATA
[DUEL] Epoch ended. INSTR misses = 22, DATA misses = 13. Winner = DATA
Heartbeat CPU 0 instructions: 130000000 cycles: 62864519 heartbeat IPC: 1.796 cumulative IPC: 1.768 (Simulation time: 00 hr 10 min 49 sec)
Simulation finished CPU 0 instructions: 100000002 cycles: 56566827 cumulative IPC: 1.768 (Simulation time: 00 hr 10 min 49 sec)
Simulation complete CPU 0 instructions: 100000002 cycles: 56566827 cumulative IPC: 1.768 (Simulation time: 00 hr 10 min 49 sec)

ChampSim completed all CPUs

=== Simulation ===
CPU 0 runs ../traces/public_traces/srv/srv_34.champsimtrace.xz
Region of Interest Statistics

CPU 0 cumulative IPC: 1.768 instructions: 100000002 cycles: 56566827
CPU 0 Branch Prediction Accuracy: 99.87% MPKI: 0.1928 Average ROB Occupancy at Mispredict: 206.3
Branch type MPKI
BRANCH_DIRECT_JUMP: 6e-05
BRANCH_INDIRECT: 0.146
BRANCH_CONDITIONAL: 0.0456
BRANCH_DIRECT_CALL: 0
BRANCH_INDIRECT_CALL: 0
BRANCH_RETURN: 0.0013

LLC TOTAL        ACCESS:    4653668 HIT:    1974856 MISS:    2678812
LLC LOAD         ACCESS:     489107 HIT:     386087 MISS:     103020
LLC RFO          ACCESS:    1561228 HIT:     420081 MISS:    1141147
LLC PREFETCH     ACCESS:     798697 HIT:     374649 MISS:     424048
LLC WRITE        ACCESS:    1793119 HIT:     792680 MISS:    1000439
LLC TRANSLATION  ACCESS:      11517 HIT:       1359 MISS:      10158
LLC PREFETCH REQUESTED:          0 ISSUED:          0 USEFUL:          0 USELESS:          0
LLC AVERAGE MISS LATENCY: 188.6 cycles
cpu0_DTLB TOTAL        ACCESS:   18629761 HIT:   17609475 MISS:    1020286
cpu0_DTLB LOAD         ACCESS:   18629761 HIT:   17609475 MISS:    1020286
cpu0_DTLB RFO          ACCESS:          0 HIT:          0 MISS:          0
cpu0_DTLB PREFETCH     ACCESS:          0 HIT:          0 MISS:          0
cpu0_DTLB WRITE        ACCESS:          0 HIT:          0 MISS:          0
cpu0_DTLB TRANSLATION  ACCESS:          0 HIT:          0 MISS:          0
cpu0_DTLB PREFETCH REQUESTED:          0 ISSUED:          0 USEFUL:          0 USELESS:          0
cpu0_DTLB AVERAGE MISS LATENCY: 7.896 cycles
cpu0_ITLB TOTAL        ACCESS:   14482937 HIT:   14462907 MISS:      20030
cpu0_ITLB LOAD         ACCESS:   14482937 HIT:   14462907 MISS:      20030
cpu0_ITLB RFO          ACCESS:          0 HIT:          0 MISS:          0
cpu0_ITLB PREFETCH     ACCESS:          0 HIT:          0 MISS:          0
cpu0_ITLB WRITE        ACCESS:          0 HIT:          0 MISS:          0
cpu0_ITLB TRANSLATION  ACCESS:          0 HIT:          0 MISS:          0
cpu0_ITLB PREFETCH REQUESTED:          0 ISSUED:          0 USEFUL:          0 USELESS:          0
cpu0_ITLB AVERAGE MISS LATENCY: 18.64 cycles
cpu0_L1D TOTAL        ACCESS:   34104894 HIT:   21111915 MISS:   12992979
cpu0_L1D LOAD         ACCESS:   13413390 HIT:   10616119 MISS:    2797271
cpu0_L1D RFO          ACCESS:          0 HIT:          0 MISS:          0
cpu0_L1D PREFETCH     ACCESS:    3627927 HIT:    1457380 MISS:    2170547
cpu0_L1D WRITE        ACCESS:   17031177 HIT:    9025459 MISS:    8005718
cpu0_L1D TRANSLATION  ACCESS:      32400 HIT:      12957 MISS:      19443
cpu0_L1D PREFETCH REQUESTED:    9098016 ISSUED:    3627925 USEFUL:     375588 USELESS:      57418
cpu0_L1D AVERAGE MISS LATENCY: 39.02 cycles
cpu0_L1I TOTAL        ACCESS:   21060908 HIT:   14665804 MISS:    6395104
cpu0_L1I LOAD         ACCESS:   11174155 HIT:    6242540 MISS:    4931615
cpu0_L1I RFO          ACCESS:          0 HIT:          0 MISS:          0
cpu0_L1I PREFETCH     ACCESS:    9886753 HIT:    8423264 MISS:    1463489
cpu0_L1I WRITE        ACCESS:          0 HIT:          0 MISS:          0
cpu0_L1I TRANSLATION  ACCESS:          0 HIT:          0 MISS:          0
cpu0_L1I PREFETCH REQUESTED:   32875626 ISSUED:    9886764 USEFUL:    1172687 USELESS:     138891
cpu0_L1I AVERAGE MISS LATENCY: 9.082 cycles
cpu0_L2C TOTAL        ACCESS:   16863128 HIT:   12281984 MISS:    4581144
cpu0_L2C LOAD         ACCESS:    4592779 HIT:    4052411 MISS:     540368
cpu0_L2C RFO          ACCESS:    1823512 HIT:     261886 MISS:    1561626
cpu0_L2C PREFETCH     ACCESS:    8241161 HIT:    5773559 MISS:    2467602
cpu0_L2C WRITE        ACCESS:    2186369 HIT:    2186338 MISS:         31
cpu0_L2C TRANSLATION  ACCESS:      19307 HIT:       7790 MISS:      11517
cpu0_L2C PREFETCH REQUESTED:    7622237 ISSUED:    5214677 USEFUL:      93466 USELESS:     177428
cpu0_L2C AVERAGE MISS LATENCY: 121.6 cycles
cpu0_STLB TOTAL        ACCESS:     500182 HIT:     470762 MISS:      29420
cpu0_STLB LOAD         ACCESS:     500182 HIT:     470762 MISS:      29420
cpu0_STLB RFO          ACCESS:          0 HIT:          0 MISS:          0
cpu0_STLB PREFETCH     ACCESS:          0 HIT:          0 MISS:          0
cpu0_STLB WRITE        ACCESS:          0 HIT:          0 MISS:          0
cpu0_STLB TRANSLATION  ACCESS:          0 HIT:          0 MISS:          0
cpu0_STLB PREFETCH REQUESTED:          0 ISSUED:          0 USEFUL:          0 USELESS:          0
cpu0_STLB AVERAGE MISS LATENCY: 217.3 cycles

DRAM Statistics

Channel 0 RQ ROW_BUFFER_HIT:     379252
  ROW_BUFFER_MISS:     467347
 AVG DBUS CONGESTED CYCLE: 3.946
WQ ROW_BUFFER_HIT: Channel 0 
  ROW_BUFFER_MISS:      70265
  FULL:     517127

Channel 1 RQ ROW_BUFFER_HIT:     383970
  ROW_BUFFER_MISS:     447778
 AVG DBUS CONGESTED CYCLE: 3.942
WQ ROW_BUFFER_HIT: Channel 1 
  ROW_BUFFER_MISS:      74094
  FULL:     500724
BERTI TO_L1: 3894493 TO_L2: 8233177 TO_L2_BC_MSHR: 3889989
BERTI AVG_LAT: 67.2548 NUM_TRACK_LATENCY: 2136201 NUM_CANT_TRACK_LATENCY: 1
BERTI CROSS_PAGE 1537661 NO_CROSS_PAGE: 10590009
BERTI FOUND_BERTI: 3520412 NO_FOUND_BERTI: 16003230
BERTI AVERAGE_ISSUED: 4.88968
CPU 0 L1I Entangling prefetcher final stats
IP accesses: 5cd0 173400 135904 / 11282190
IP misses: 13dd 4f740 20548 / 5039650
IP hits: 0 0 0 / 0
IP late: 9d3d 274f40 8793 / 2127141
IP wrong: 55ff 157fc0 7580 / 133515
miss rate: 0.446691
coverage: 0
coverage_late: 0.422082
accuracy: 0
accuracy_late: 0.94094
discarded: 0
evicts entangled j table: 0
evicts entangled k table: 368805
max bb size: 13
formats: 64786 0 268885 84224 34282 56061 0 
hist_lookups: 45154 130326 238304 313010 308937 265789 179690 139716 135191 130883 102829 66624 37836 21926 6357 0 357 825354 
hist_lookups_evict: 0.0121088 %
hist_lookups_shortlat: 27.9944 %
bb_found_hist: 0 2410186 1194634 474060 221223 108249 66023 29620 4932 3116 0 463 0 4513 0 0 0 0 0 0 0 0 0 0 0 0 0 0 0 0 0 0 0 0 0 0 0 0 0 0 0 0 0 0 0 0 0 0 0 0 0 0 0 0 0 0 0 0 0 0 0 0 0 0 
bb_found_summary: 8382511 4517019 1.85577
entangled_found_hist: 0 1287077 725813 2278320 604972 72776 34907 0 
entangled_found_summary: 12566873 5003865 2.51144
bb_ent_found_hist: 0 3822684 2529725 1025826 515607 189880 180911 98032 16976 2725 0 1561 0 17433 0 0 0 0 0 0 0 0 0 0 0 0 0 0 0 0 0 0 0 0 0 0 0 0 0 0 0 0 0 0 0 0 0 0 0 0 0 0 0 0 0 0 0 0 0 0 0 0 0 0 
bb_ent_found_summary: 17147263 8401360 2.04102
