WARNING: physical memory size is smaller than virtual memory size.

*** ChampSim Multicore Out-of-Order Simulator ***
Warmup Instructions: 30000000
Simulation Instructions: 100000000
Number of CPUs: 1
Page size: 4096

BTB:
Basic BTB sets: 1024 ways: 8
Indirect:
history lengths: 0 0 10 16 27 44 60 96 109 219 449 487 714 1313 2146 3881 
ITTAGE tables: 64768 bytes;Region table: 240 bytes;IUM: 384 bytes;Total Storage= 65392 bytes;
RAS:
RAS size: 64
[LLC] INSTR Demand IPV: 1 2 2 1 4 Prefetch IPV: 1 2 1 1 4
[LLC] DATA  Demand IPV: 1 1 1 2 4 Prefetch IPV: 1 1 2 2 4
Berti Prefetcher
CPU 0 Entangling prefetcher
Off-chip DRAM Size: 8 GiB Channels: 2 Width: 64-bit Data Race: 6400 MT/s
[DUEL] Epoch ended. INSTR misses = 57, DATA misses = 21. Winner = DATA
[DUEL] Epoch ended. INSTR misses = 2, DATA misses = 0. Winner = DATA
[DUEL] Epoch ended. INSTR misses = 15, DATA misses = 11. Winner = DATA
[DUEL] Epoch ended. INSTR misses = 12, DATA misses = 7. Winner = DATA
[DUEL] Epoch ended. INSTR misses = 12, DATA misses = 12. Winner = INSTR
[DUEL] Epoch ended. INSTR misses = 8, DATA misses = 8. Winner = INSTR
[DUEL] Epoch ended. INSTR misses = 27, DATA misses = 7. Winner = DATA
[DUEL] Epoch ended. INSTR misses = 16, DATA misses = 18. Winner = INSTR
[DUEL] Epoch ended. INSTR misses = 4, DATA misses = 6. Winner = INSTR
[DUEL] Epoch ended. INSTR misses = 7, DATA misses = 16. Winner = INSTR
[DUEL] Epoch ended. INSTR misses = 0, DATA misses = 1. Winner = INSTR
[DUEL] Epoch ended. INSTR misses = 7, DATA misses = 0. Winner = DATA
[DUEL] Epoch ended. INSTR misses = 17, DATA misses = 3. Winner = DATA
[DUEL] Epoch ended. INSTR misses = 12, DATA misses = 3. Winner = DATA
[DUEL] Epoch ended. INSTR misses = 10, DATA misses = 8. Winner = DATA
[DUEL] Epoch ended. INSTR misses = 2, DATA misses = 5. Winner = INSTR
[DUEL] Epoch ended. INSTR misses = 0, DATA misses = 0. Winner = INSTR
Heartbeat CPU 0 instructions: 10000004 cycles: 1731021 heartbeat IPC: 5.777 cumulative IPC: 5.777 (Simulation time: 00 hr 00 min 26 sec)
[DUEL] Epoch ended. INSTR misses = 30, DATA misses = 9. Winner = DATA
[DUEL] Epoch ended. INSTR misses = 6, DATA misses = 0. Winner = DATA
[DUEL] Epoch ended. INSTR misses = 2, DATA misses = 0. Winner = DATA
[DUEL] Epoch ended. INSTR misses = 19, DATA misses = 4. Winner = DATA
[DUEL] Epoch ended. INSTR misses = 0, DATA misses = 0. Winner = INSTR
[DUEL] Epoch ended. INSTR misses = 2, DATA misses = 5. Winner = INSTR
[DUEL] Epoch ended. INSTR misses = 1, DATA misses = 1. Winner = INSTR
[DUEL] Epoch ended. INSTR misses = 3, DATA misses = 4. Winner = INSTR
[DUEL] Epoch ended. INSTR misses = 7, DATA misses = 3. Winner = DATA
[DUEL] Epoch ended. INSTR misses = 2, DATA misses = 7. Winner = INSTR
[DUEL] Epoch ended. INSTR misses = 3, DATA misses = 0. Winner = DATA
[DUEL] Epoch ended. INSTR misses = 4, DATA misses = 8. Winner = INSTR
[DUEL] Epoch ended. INSTR misses = 35, DATA misses = 8. Winner = DATA
[DUEL] Epoch ended. INSTR misses = 21, DATA misses = 13. Winner = DATA
[DUEL] Epoch ended. INSTR misses = 2, DATA misses = 0. Winner = DATA
[DUEL] Epoch ended. INSTR misses = 6, DATA misses = 0. Winner = DATA
[DUEL] Epoch ended. INSTR misses = 1, DATA misses = 0. Winner = DATA
[DUEL] Epoch ended. INSTR misses = 17, DATA misses = 11. Winner = DATA
[DUEL] Epoch ended. INSTR misses = 11, DATA misses = 1. Winner = DATA
[DUEL] Epoch ended. INSTR misses = 1, DATA misses = 0. Winner = DATA
Heartbeat CPU 0 instructions: 20000000 cycles: 3484107 heartbeat IPC: 5.704 cumulative IPC: 5.74 (Simulation time: 00 hr 00 min 54 sec)
[DUEL] Epoch ended. INSTR misses = 35, DATA misses = 9. Winner = DATA
[DUEL] Epoch ended. INSTR misses = 3, DATA misses = 2. Winner = DATA
[DUEL] Epoch ended. INSTR misses = 22, DATA misses = 1. Winner = DATA
[DUEL] Epoch ended. INSTR misses = 1, DATA misses = 0. Winner = DATA
[DUEL] Epoch ended. INSTR misses = 1, DATA misses = 1. Winner = INSTR
[DUEL] Epoch ended. INSTR misses = 3, DATA misses = 0. Winner = DATA
[DUEL] Epoch ended. INSTR misses = 7, DATA misses = 0. Winner = DATA
[DUEL] Epoch ended. INSTR misses = 22, DATA misses = 17. Winner = DATA
[DUEL] Epoch ended. INSTR misses = 3, DATA misses = 3. Winner = INSTR
[DUEL] Epoch ended. INSTR misses = 10, DATA misses = 4. Winner = DATA
[DUEL] Epoch ended. INSTR misses = 18, DATA misses = 16. Winner = DATA
[DUEL] Epoch ended. INSTR misses = 19, DATA misses = 4. Winner = DATA
[DUEL] Epoch ended. INSTR misses = 3, DATA misses = 0. Winner = DATA
[DUEL] Epoch ended. INSTR misses = 2, DATA misses = 0. Winner = DATA
[DUEL] Epoch ended. INSTR misses = 3, DATA misses = 0. Winner = DATA
[DUEL] Epoch ended. INSTR misses = 11, DATA misses = 3. Winner = DATA
[DUEL] Epoch ended. INSTR misses = 9, DATA misses = 0. Winner = DATA
[DUEL] Epoch ended. INSTR misses = 6, DATA misses = 0. Winner = DATA
Heartbeat CPU 0 instructions: 30000005 cycles: 5223295 heartbeat IPC: 5.75 cumulative IPC: 5.744 (Simulation time: 00 hr 01 min 22 sec)
Warmup finished CPU 0 instructions: 30000005 cycles: 5223296 cumulative IPC: 5.744 (Simulation time: 00 hr 01 min 22 sec)
Warmup complete CPU 0 instructions: 30000005 cycles: 5223296 cumulative IPC: 5.744 (Simulation time: 00 hr 01 min 22 sec)
[DUEL] Epoch ended. INSTR misses = 31, DATA misses = 12. Winner = DATA
[DUEL] Epoch ended. INSTR misses = 15, DATA misses = 3. Winner = DATA
*** Reached end of trace: (0, "../traces/public_traces/srv/srv_49.champsimtrace.xz")
[DUEL] Epoch ended. INSTR misses = 27, DATA misses = 0. Winner = DATA
[DUEL] Epoch ended. INSTR misses = 8, DATA misses = 5. Winner = DATA
[DUEL] Epoch ended. INSTR misses = 4, DATA misses = 7. Winner = INSTR
[DUEL] Epoch ended. INSTR misses = 11, DATA misses = 2. Winner = DATA
[DUEL] Epoch ended. INSTR misses = 9, DATA misses = 4. Winner = DATA
[DUEL] Epoch ended. INSTR misses = 3, DATA misses = 0. Winner = DATA
[DUEL] Epoch ended. INSTR misses = 7, DATA misses = 2. Winner = DATA
[DUEL] Epoch ended. INSTR misses = 8, DATA misses = 0. Winner = DATA
[DUEL] Epoch ended. INSTR misses = 4, DATA misses = 1. Winner = DATA
[DUEL] Epoch ended. INSTR misses = 5, DATA misses = 3. Winner = DATA
[DUEL] Epoch ended. INSTR misses = 3, DATA misses = 2. Winner = DATA
[DUEL] Epoch ended. INSTR misses = 0, DATA misses = 0. Winner = INSTR
[DUEL] Epoch ended. INSTR misses = 7, DATA misses = 3. Winner = DATA
[DUEL] Epoch ended. INSTR misses = 15, DATA misses = 1. Winner = DATA
[DUEL] Epoch ended. INSTR misses = 5, DATA misses = 1. Winner = DATA
[DUEL] Epoch ended. INSTR misses = 2, DATA misses = 0. Winner = DATA
Heartbeat CPU 0 instructions: 40000009 cycles: 9211350 heartbeat IPC: 2.507 cumulative IPC: 2.507 (Simulation time: 00 hr 02 min 01 sec)
[DUEL] Epoch ended. INSTR misses = 4, DATA misses = 3. Winner = DATA
[DUEL] Epoch ended. INSTR misses = 0, DATA misses = 0. Winner = INSTR
[DUEL] Epoch ended. INSTR misses = 31, DATA misses = 8. Winner = DATA
[DUEL] Epoch ended. INSTR misses = 6, DATA misses = 0. Winner = DATA
[DUEL] Epoch ended. INSTR misses = 1, DATA misses = 0. Winner = DATA
[DUEL] Epoch ended. INSTR misses = 18, DATA misses = 1. Winner = DATA
[DUEL] Epoch ended. INSTR misses = 0, DATA misses = 0. Winner = INSTR
[DUEL] Epoch ended. INSTR misses = 3, DATA misses = 7. Winner = INSTR
[DUEL] Epoch ended. INSTR misses = 0, DATA misses = 1. Winner = INSTR
[DUEL] Epoch ended. INSTR misses = 4, DATA misses = 1. Winner = DATA
[DUEL] Epoch ended. INSTR misses = 8, DATA misses = 1. Winner = DATA
[DUEL] Epoch ended. INSTR misses = 1, DATA misses = 4. Winner = INSTR
[DUEL] Epoch ended. INSTR misses = 1, DATA misses = 0. Winner = DATA
[DUEL] Epoch ended. INSTR misses = 4, DATA misses = 4. Winner = INSTR
[DUEL] Epoch ended. INSTR misses = 27, DATA misses = 4. Winner = DATA
[DUEL] Epoch ended. INSTR misses = 26, DATA misses = 16. Winner = DATA
[DUEL] Epoch ended. INSTR misses = 0, DATA misses = 0. Winner = INSTR
[DUEL] Epoch ended. INSTR misses = 7, DATA misses = 0. Winner = DATA
[DUEL] Epoch ended. INSTR misses = 0, DATA misses = 0. Winner = INSTR
[DUEL] Epoch ended. INSTR misses = 9, DATA misses = 1. Winner = DATA
Heartbeat CPU 0 instructions: 50000001 cycles: 13680076 heartbeat IPC: 2.238 cumulative IPC: 2.365 (Simulation time: 00 hr 02 min 45 sec)
[DUEL] Epoch ended. INSTR misses = 12, DATA misses = 1. Winner = DATA
[DUEL] Epoch ended. INSTR misses = 3, DATA misses = 0. Winner = DATA
[DUEL] Epoch ended. INSTR misses = 24, DATA misses = 3. Winner = DATA
[DUEL] Epoch ended. INSTR misses = 3, DATA misses = 0. Winner = DATA
[DUEL] Epoch ended. INSTR misses = 26, DATA misses = 1. Winner = DATA
[DUEL] Epoch ended. INSTR misses = 1, DATA misses = 0. Winner = DATA
[DUEL] Epoch ended. INSTR misses = 2, DATA misses = 1. Winner = DATA
[DUEL] Epoch ended. INSTR misses = 3, DATA misses = 0. Winner = DATA
[DUEL] Epoch ended. INSTR misses = 10, DATA misses = 0. Winner = DATA
[DUEL] Epoch ended. INSTR misses = 15, DATA misses = 13. Winner = DATA
[DUEL] Epoch ended. INSTR misses = 1, DATA misses = 2. Winner = INSTR
[DUEL] Epoch ended. INSTR misses = 6, DATA misses = 2. Winner = DATA
[DUEL] Epoch ended. INSTR misses = 23, DATA misses = 15. Winner = DATA
[DUEL] Epoch ended. INSTR misses = 8, DATA misses = 2. Winner = DATA
[DUEL] Epoch ended. INSTR misses = 3, DATA misses = 0. Winner = DATA
[DUEL] Epoch ended. INSTR misses = 6, DATA misses = 0. Winner = DATA
[DUEL] Epoch ended. INSTR misses = 1, DATA misses = 0. Winner = DATA
[DUEL] Epoch ended. INSTR misses = 14, DATA misses = 4. Winner = DATA
Heartbeat CPU 0 instructions: 60000003 cycles: 17518084 heartbeat IPC: 2.606 cumulative IPC: 2.44 (Simulation time: 00 hr 03 min 24 sec)
[DUEL] Epoch ended. INSTR misses = 3, DATA misses = 0. Winner = DATA
[DUEL] Epoch ended. INSTR misses = 5, DATA misses = 0. Winner = DATA
[DUEL] Epoch ended. INSTR misses = 31, DATA misses = 7. Winner = DATA
[DUEL] Epoch ended. INSTR misses = 6, DATA misses = 2. Winner = DATA
*** Reached end of trace: (0, "../traces/public_traces/srv/srv_49.champsimtrace.xz")
[DUEL] Epoch ended. INSTR misses = 14, DATA misses = 0. Winner = DATA
[DUEL] Epoch ended. INSTR misses = 8, DATA misses = 3. Winner = DATA
[DUEL] Epoch ended. INSTR misses = 2, DATA misses = 1. Winner = DATA
[DUEL] Epoch ended. INSTR misses = 11, DATA misses = 2. Winner = DATA
[DUEL] Epoch ended. INSTR misses = 7, DATA misses = 4. Winner = DATA
[DUEL] Epoch ended. INSTR misses = 4, DATA misses = 0. Winner = DATA
[DUEL] Epoch ended. INSTR misses = 3, DATA misses = 2. Winner = DATA
[DUEL] Epoch ended. INSTR misses = 10, DATA misses = 0. Winner = DATA
[DUEL] Epoch ended. INSTR misses = 2, DATA misses = 0. Winner = DATA
[DUEL] Epoch ended. INSTR misses = 3, DATA misses = 1. Winner = DATA
[DUEL] Epoch ended. INSTR misses = 4, DATA misses = 0. Winner = DATA
[DUEL] Epoch ended. INSTR misses = 3, DATA misses = 0. Winner = DATA
[DUEL] Epoch ended. INSTR misses = 6, DATA misses = 0. Winner = DATA
[DUEL] Epoch ended. INSTR misses = 15, DATA misses = 1. Winner = DATA
[DUEL] Epoch ended. INSTR misses = 4, DATA misses = 1. Winner = DATA
Heartbeat CPU 0 instructions: 70000002 cycles: 21660761 heartbeat IPC: 2.414 cumulative IPC: 2.433 (Simulation time: 00 hr 04 min 05 sec)
[DUEL] Epoch ended. INSTR misses = 2, DATA misses = 0. Winner = DATA
[DUEL] Epoch ended. INSTR misses = 3, DATA misses = 1. Winner = DATA
[DUEL] Epoch ended. INSTR misses = 0, DATA misses = 0. Winner = INSTR
[DUEL] Epoch ended. INSTR misses = 30, DATA misses = 8. Winner = DATA
[DUEL] Epoch ended. INSTR misses = 9, DATA misses = 0. Winner = DATA
[DUEL] Epoch ended. INSTR misses = 2, DATA misses = 0. Winner = DATA
[DUEL] Epoch ended. INSTR misses = 21, DATA misses = 1. Winner = DATA
[DUEL] Epoch ended. INSTR misses = 0, DATA misses = 0. Winner = INSTR
[DUEL] Epoch ended. INSTR misses = 3, DATA misses = 6. Winner = INSTR
[DUEL] Epoch ended. INSTR misses = 0, DATA misses = 1. Winner = INSTR
[DUEL] Epoch ended. INSTR misses = 4, DATA misses = 0. Winner = DATA
[DUEL] Epoch ended. INSTR misses = 7, DATA misses = 1. Winner = DATA
[DUEL] Epoch ended. INSTR misses = 1, DATA misses = 4. Winner = INSTR
[DUEL] Epoch ended. INSTR misses = 1, DATA misses = 0. Winner = DATA
[DUEL] Epoch ended. INSTR misses = 6, DATA misses = 4. Winner = DATA
[DUEL] Epoch ended. INSTR misses = 24, DATA misses = 4. Winner = DATA
[DUEL] Epoch ended. INSTR misses = 18, DATA misses = 2. Winner = DATA
[DUEL] Epoch ended. INSTR misses = 1, DATA misses = 0. Winner = DATA
[DUEL] Epoch ended. INSTR misses = 6, DATA misses = 0. Winner = DATA
Heartbeat CPU 0 instructions: 80000008 cycles: 25628307 heartbeat IPC: 2.52 cumulative IPC: 2.45 (Simulation time: 00 hr 04 min 45 sec)
[DUEL] Epoch ended. INSTR misses = 3, DATA misses = 0. Winner = DATA
[DUEL] Epoch ended. INSTR misses = 14, DATA misses = 1. Winner = DATA
[DUEL] Epoch ended. INSTR misses = 12, DATA misses = 1. Winner = DATA
[DUEL] Epoch ended. INSTR misses = 3, DATA misses = 0. Winner = DATA
[DUEL] Epoch ended. INSTR misses = 22, DATA misses = 2. Winner = DATA
[DUEL] Epoch ended. INSTR misses = 3, DATA misses = 0. Winner = DATA
[DUEL] Epoch ended. INSTR misses = 20, DATA misses = 0. Winner = DATA
[DUEL] Epoch ended. INSTR misses = 1, DATA misses = 0. Winner = DATA
[DUEL] Epoch ended. INSTR misses = 1, DATA misses = 0. Winner = DATA
[DUEL] Epoch ended. INSTR misses = 3, DATA misses = 0. Winner = DATA
[DUEL] Epoch ended. INSTR misses = 8, DATA misses = 0. Winner = DATA
[DUEL] Epoch ended. INSTR misses = 13, DATA misses = 15. Winner = INSTR
[DUEL] Epoch ended. INSTR misses = 1, DATA misses = 2. Winner = INSTR
[DUEL] Epoch ended. INSTR misses = 4, DATA misses = 1. Winner = DATA
[DUEL] Epoch ended. INSTR misses = 23, DATA misses = 12. Winner = DATA
[DUEL] Epoch ended. INSTR misses = 5, DATA misses = 2. Winner = DATA
[DUEL] Epoch ended. INSTR misses = 3, DATA misses = 0. Winner = DATA
[DUEL] Epoch ended. INSTR misses = 2, DATA misses = 0. Winner = DATA
Heartbeat CPU 0 instructions: 90000002 cycles: 29587580 heartbeat IPC: 2.526 cumulative IPC: 2.463 (Simulation time: 00 hr 05 min 25 sec)
[DUEL] Epoch ended. INSTR misses = 1, DATA misses = 0. Winner = DATA
[DUEL] Epoch ended. INSTR misses = 9, DATA misses = 2. Winner = DATA
[DUEL] Epoch ended. INSTR misses = 7, DATA misses = 0. Winner = DATA
[DUEL] Epoch ended. INSTR misses = 3, DATA misses = 0. Winner = DATA
[DUEL] Epoch ended. INSTR misses = 27, DATA misses = 5. Winner = DATA
[DUEL] Epoch ended. INSTR misses = 7, DATA misses = 2. Winner = DATA
*** Reached end of trace: (0, "../traces/public_traces/srv/srv_49.champsimtrace.xz")
[DUEL] Epoch ended. INSTR misses = 14, DATA misses = 0. Winner = DATA
[DUEL] Epoch ended. INSTR misses = 7, DATA misses = 2. Winner = DATA
[DUEL] Epoch ended. INSTR misses = 2, DATA misses = 1. Winner = DATA
[DUEL] Epoch ended. INSTR misses = 10, DATA misses = 1. Winner = DATA
[DUEL] Epoch ended. INSTR misses = 7, DATA misses = 4. Winner = DATA
[DUEL] Epoch ended. INSTR misses = 6, DATA misses = 0. Winner = DATA
[DUEL] Epoch ended. INSTR misses = 6, DATA misses = 2. Winner = DATA
[DUEL] Epoch ended. INSTR misses = 7, DATA misses = 0. Winner = DATA
[DUEL] Epoch ended. INSTR misses = 3, DATA misses = 0. Winner = DATA
[DUEL] Epoch ended. INSTR misses = 4, DATA misses = 1. Winner = DATA
[DUEL] Epoch ended. INSTR misses = 2, DATA misses = 0. Winner = DATA
[DUEL] Epoch ended. INSTR misses = 2, DATA misses = 0. Winner = DATA
[DUEL] Epoch ended. INSTR misses = 8, DATA misses = 0. Winner = DATA
[DUEL] Epoch ended. INSTR misses = 16, DATA misses = 1. Winner = DATA
Heartbeat CPU 0 instructions: 100000008 cycles: 33816356 heartbeat IPC: 2.365 cumulative IPC: 2.448 (Simulation time: 00 hr 06 min 07 sec)
[DUEL] Epoch ended. INSTR misses = 4, DATA misses = 1. Winner = DATA
[DUEL] Epoch ended. INSTR misses = 2, DATA misses = 0. Winner = DATA
[DUEL] Epoch ended. INSTR misses = 3, DATA misses = 1. Winner = DATA
[DUEL] Epoch ended. INSTR misses = 0, DATA misses = 0. Winner = INSTR
[DUEL] Epoch ended. INSTR misses = 29, DATA misses = 2. Winner = DATA
[DUEL] Epoch ended. INSTR misses = 5, DATA misses = 0. Winner = DATA
[DUEL] Epoch ended. INSTR misses = 1, DATA misses = 0. Winner = DATA
[DUEL] Epoch ended. INSTR misses = 15, DATA misses = 1. Winner = DATA
[DUEL] Epoch ended. INSTR misses = 0, DATA misses = 0. Winner = INSTR
[DUEL] Epoch ended. INSTR misses = 1, DATA misses = 5. Winner = INSTR
[DUEL] Epoch ended. INSTR misses = 0, DATA misses = 1. Winner = INSTR
[DUEL] Epoch ended. INSTR misses = 5, DATA misses = 0. Winner = DATA
[DUEL] Epoch ended. INSTR misses = 6, DATA misses = 1. Winner = DATA
[DUEL] Epoch ended. INSTR misses = 2, DATA misses = 4. Winner = INSTR
[DUEL] Epoch ended. INSTR misses = 2, DATA misses = 0. Winner = DATA
[DUEL] Epoch ended. INSTR misses = 4, DATA misses = 3. Winner = DATA
[DUEL] Epoch ended. INSTR misses = 21, DATA misses = 3. Winner = DATA
[DUEL] Epoch ended. INSTR misses = 25, DATA misses = 6. Winner = DATA
Heartbeat CPU 0 instructions: 110000000 cycles: 37544973 heartbeat IPC: 2.682 cumulative IPC: 2.475 (Simulation time: 00 hr 06 min 46 sec)
[DUEL] Epoch ended. INSTR misses = 0, DATA misses = 0. Winner = INSTR
[DUEL] Epoch ended. INSTR misses = 7, DATA misses = 0. Winner = DATA
[DUEL] Epoch ended. INSTR misses = 1, DATA misses = 0. Winner = DATA
[DUEL] Epoch ended. INSTR misses = 8, DATA misses = 1. Winner = DATA
[DUEL] Epoch ended. INSTR misses = 12, DATA misses = 1. Winner = DATA
[DUEL] Epoch ended. INSTR misses = 3, DATA misses = 0. Winner = DATA
[DUEL] Epoch ended. INSTR misses = 24, DATA misses = 2. Winner = DATA
[DUEL] Epoch ended. INSTR misses = 3, DATA misses = 0. Winner = DATA
[DUEL] Epoch ended. INSTR misses = 24, DATA misses = 0. Winner = DATA
[DUEL] Epoch ended. INSTR misses = 1, DATA misses = 0. Winner = DATA
[DUEL] Epoch ended. INSTR misses = 1, DATA misses = 0. Winner = DATA
[DUEL] Epoch ended. INSTR misses = 1, DATA misses = 0. Winner = DATA
[DUEL] Epoch ended. INSTR misses = 10, DATA misses = 0. Winner = DATA
[DUEL] Epoch ended. INSTR misses = 14, DATA misses = 13. Winner = DATA
[DUEL] Epoch ended. INSTR misses = 1, DATA misses = 2. Winner = INSTR
[DUEL] Epoch ended. INSTR misses = 3, DATA misses = 0. Winner = DATA
[DUEL] Epoch ended. INSTR misses = 22, DATA misses = 11. Winner = DATA
[DUEL] Epoch ended. INSTR misses = 6, DATA misses = 2. Winner = DATA
[DUEL] Epoch ended. INSTR misses = 3, DATA misses = 0. Winner = DATA
Heartbeat CPU 0 instructions: 120000006 cycles: 41727127 heartbeat IPC: 2.391 cumulative IPC: 2.465 (Simulation time: 00 hr 07 min 27 sec)
[DUEL] Epoch ended. INSTR misses = 2, DATA misses = 0. Winner = DATA
[DUEL] Epoch ended. INSTR misses = 1, DATA misses = 0. Winner = DATA
[DUEL] Epoch ended. INSTR misses = 7, DATA misses = 2. Winner = DATA
[DUEL] Epoch ended. INSTR misses = 1, DATA misses = 0. Winner = DATA
[DUEL] Epoch ended. INSTR misses = 2, DATA misses = 0. Winner = DATA
[DUEL] Epoch ended. INSTR misses = 27, DATA misses = 4. Winner = DATA
[DUEL] Epoch ended. INSTR misses = 7, DATA misses = 2. Winner = DATA
*** Reached end of trace: (0, "../traces/public_traces/srv/srv_49.champsimtrace.xz")
[DUEL] Epoch ended. INSTR misses = 11, DATA misses = 0. Winner = DATA
[DUEL] Epoch ended. INSTR misses = 5, DATA misses = 2. Winner = DATA
[DUEL] Epoch ended. INSTR misses = 2, DATA misses = 0. Winner = DATA
[DUEL] Epoch ended. INSTR misses = 10, DATA misses = 1. Winner = DATA
[DUEL] Epoch ended. INSTR misses = 7, DATA misses = 4. Winner = DATA
[DUEL] Epoch ended. INSTR misses = 4, DATA misses = 0. Winner = DATA
[DUEL] Epoch ended. INSTR misses = 5, DATA misses = 2. Winner = DATA
[DUEL] Epoch ended. INSTR misses = 8, DATA misses = 0. Winner = DATA
[DUEL] Epoch ended. INSTR misses = 4, DATA misses = 0. Winner = DATA
[DUEL] Epoch ended. INSTR misses = 4, DATA misses = 1. Winner = DATA
[DUEL] Epoch ended. INSTR misses = 3, DATA misses = 0. Winner = DATA
[DUEL] Epoch ended. INSTR misses = 2, DATA misses = 0. Winner = DATA
Heartbeat CPU 0 instructions: 130000011 cycles: 45590895 heartbeat IPC: 2.588 cumulative IPC: 2.477 (Simulation time: 00 hr 08 min 07 sec)
Simulation finished CPU 0 instructions: 100000006 cycles: 40367600 cumulative IPC: 2.477 (Simulation time: 00 hr 08 min 07 sec)
Simulation complete CPU 0 instructions: 100000006 cycles: 40367600 cumulative IPC: 2.477 (Simulation time: 00 hr 08 min 07 sec)

ChampSim completed all CPUs

=== Simulation ===
CPU 0 runs ../traces/public_traces/srv/srv_49.champsimtrace.xz
Region of Interest Statistics

CPU 0 cumulative IPC: 2.477 instructions: 100000006 cycles: 40367600
CPU 0 Branch Prediction Accuracy: 95.13% MPKI: 8.781 Average ROB Occupancy at Mispredict: 28.37
Branch type MPKI
BRANCH_DIRECT_JUMP: 0.739
BRANCH_INDIRECT: 4.07
BRANCH_CONDITIONAL: 1.19
BRANCH_DIRECT_CALL: 1.35
BRANCH_INDIRECT_CALL: 0.489
BRANCH_RETURN: 0.932

LLC TOTAL        ACCESS:     864322 HIT:     619465 MISS:     244857
LLC LOAD         ACCESS:     135615 HIT:      81517 MISS:      54098
LLC RFO          ACCESS:     143694 HIT:     116114 MISS:      27580
LLC PREFETCH     ACCESS:     332511 HIT:     221222 MISS:     111289
LLC WRITE        ACCESS:     216003 HIT:     190181 MISS:      25822
LLC TRANSLATION  ACCESS:      36499 HIT:      10431 MISS:      26068
LLC PREFETCH REQUESTED:          0 ISSUED:          0 USEFUL:          0 USELESS:          0
LLC AVERAGE MISS LATENCY: 132.7 cycles
cpu0_DTLB TOTAL        ACCESS:   18845036 HIT:   18409747 MISS:     435289
cpu0_DTLB LOAD         ACCESS:   18845036 HIT:   18409747 MISS:     435289
cpu0_DTLB RFO          ACCESS:          0 HIT:          0 MISS:          0
cpu0_DTLB PREFETCH     ACCESS:          0 HIT:          0 MISS:          0
cpu0_DTLB WRITE        ACCESS:          0 HIT:          0 MISS:          0
cpu0_DTLB TRANSLATION  ACCESS:          0 HIT:          0 MISS:          0
cpu0_DTLB PREFETCH REQUESTED:          0 ISSUED:          0 USEFUL:          0 USELESS:          0
cpu0_DTLB AVERAGE MISS LATENCY: 16.19 cycles
cpu0_ITLB TOTAL        ACCESS:   16397474 HIT:   16027062 MISS:     370412
cpu0_ITLB LOAD         ACCESS:   16397474 HIT:   16027062 MISS:     370412
cpu0_ITLB RFO          ACCESS:          0 HIT:          0 MISS:          0
cpu0_ITLB PREFETCH     ACCESS:          0 HIT:          0 MISS:          0
cpu0_ITLB WRITE        ACCESS:          0 HIT:          0 MISS:          0
cpu0_ITLB TRANSLATION  ACCESS:          0 HIT:          0 MISS:          0
cpu0_ITLB PREFETCH REQUESTED:          0 ISSUED:          0 USEFUL:          0 USELESS:          0
cpu0_ITLB AVERAGE MISS LATENCY: 5.637 cycles
cpu0_L1D TOTAL        ACCESS:   30559145 HIT:   27736084 MISS:    2823061
cpu0_L1D LOAD         ACCESS:   18316773 HIT:   17174554 MISS:    1142219
cpu0_L1D RFO          ACCESS:          0 HIT:          0 MISS:          0
cpu0_L1D PREFETCH     ACCESS:     621954 HIT:     410137 MISS:     211817
cpu0_L1D WRITE        ACCESS:   11575837 HIT:   10149152 MISS:    1426685
cpu0_L1D TRANSLATION  ACCESS:      44581 HIT:       2241 MISS:      42340
cpu0_L1D PREFETCH REQUESTED:    1098991 ISSUED:     621954 USEFUL:      14698 USELESS:       6563
cpu0_L1D AVERAGE MISS LATENCY: 11.64 cycles
cpu0_L1I TOTAL        ACCESS:   23958729 HIT:   20571572 MISS:    3387157
cpu0_L1I LOAD         ACCESS:    8458058 HIT:    7707359 MISS:     750699
cpu0_L1I RFO          ACCESS:          0 HIT:          0 MISS:          0
cpu0_L1I PREFETCH     ACCESS:   15500671 HIT:   12864213 MISS:    2636458
cpu0_L1I WRITE        ACCESS:          0 HIT:          0 MISS:          0
cpu0_L1I TRANSLATION  ACCESS:          0 HIT:          0 MISS:          0
cpu0_L1I PREFETCH REQUESTED:   31480710 ISSUED:   15500650 USEFUL:    1777704 USELESS:     763034
cpu0_L1I AVERAGE MISS LATENCY: 11.73 cycles
cpu0_L2C TOTAL        ACCESS:    8860721 HIT:    8071528 MISS:     789193
cpu0_L2C LOAD         ACCESS:    1277406 HIT:    1131517 MISS:     145889
cpu0_L2C RFO          ACCESS:     358694 HIT:     214016 MISS:     144678
cpu0_L2C PREFETCH     ACCESS:    6615613 HIT:    6153501 MISS:     462112
cpu0_L2C WRITE        ACCESS:     568230 HIT:     568215 MISS:         15
cpu0_L2C TRANSLATION  ACCESS:      40778 HIT:       4279 MISS:      36499
cpu0_L2C PREFETCH REQUESTED:    4026446 ISSUED:    3868963 USEFUL:      79095 USELESS:     109416
cpu0_L2C AVERAGE MISS LATENCY: 57.28 cycles
cpu0_STLB TOTAL        ACCESS:     501428 HIT:     472738 MISS:      28690
cpu0_STLB LOAD         ACCESS:     501428 HIT:     472738 MISS:      28690
cpu0_STLB RFO          ACCESS:          0 HIT:          0 MISS:          0
cpu0_STLB PREFETCH     ACCESS:          0 HIT:          0 MISS:          0
cpu0_STLB WRITE        ACCESS:          0 HIT:          0 MISS:          0
cpu0_STLB TRANSLATION  ACCESS:          0 HIT:          0 MISS:          0
cpu0_STLB PREFETCH REQUESTED:          0 ISSUED:          0 USEFUL:          0 USELESS:          0
cpu0_STLB AVERAGE MISS LATENCY: 221.3 cycles

DRAM Statistics

Channel 0 RQ ROW_BUFFER_HIT:      40077
  ROW_BUFFER_MISS:      71987
 AVG DBUS CONGESTED CYCLE: 3.783
WQ ROW_BUFFER_HIT: Channel 0 
  ROW_BUFFER_MISS:       5919
  FULL:      17864

Channel 1 RQ ROW_BUFFER_HIT:      39068
  ROW_BUFFER_MISS:      67899
 AVG DBUS CONGESTED CYCLE: 3.769
WQ ROW_BUFFER_HIT: Channel 1 
  ROW_BUFFER_MISS:       5505
  FULL:      16752
BERTI TO_L1: 368109 TO_L2: 1099391 TO_L2_BC_MSHR: 209650
BERTI AVG_LAT: 22.4974 NUM_TRACK_LATENCY: 1047917 NUM_CANT_TRACK_LATENCY: 0
BERTI CROSS_PAGE 306750 NO_CROSS_PAGE: 1160750
BERTI FOUND_BERTI: 1196507 NO_FOUND_BERTI: 23065412
BERTI AVERAGE_ISSUED: 4.9746
CPU 0 L1I Entangling prefetcher final stats
IP accesses: f81d 3e0740 53532 / 8468676
IP misses: f2a2 3ca880 3748 / 761317
IP hits: 0 0 0 / 0
IP late: e7a1 39e840 1195 / 356818
IP wrong: dac0 36b000 2419 / 759285
miss rate: 0.089898
coverage: 0
coverage_late: 0.468686
accuracy: 0
accuracy_late: 0.3197
discarded: 0
evicts entangled j table: 0
evicts entangled k table: 136016
max bb size: 40
formats: 47926 0 100267 17683 10804 24433 0 
hist_lookups: 52406 72654 73084 73362 69547 63395 48660 36125 25901 19630 14367 9945 5876 3125 1501 0 9 138442 
hist_lookups_evict: 0.00127114 %
hist_lookups_shortlat: 19.5532 %
bb_found_hist: 0 2465947 884459 411926 182719 56122 29887 19292 8498 14401 8497 1300 96 2457 0 0 0 946 0 0 0 0 0 0 0 0 0 0 0 0 0 0 0 0 0 0 36 51 28 0 44 0 0 0 0 0 0 0 0 0 0 0 0 0 0 0 0 0 0 0 0 0 0 0 
bb_found_summary: 7148540 4086706 1.74922
entangled_found_hist: 0 1294725 970319 2313331 240455 79303 13112 0 
entangled_found_summary: 11612363 4911245 2.36445
bb_ent_found_hist: 0 4237593 1956303 828785 319819 224612 77380 40944 14915 26412 26940 4738 656 9108 0 0 0 4505 0 0 0 0 0 0 0 0 0 0 0 0 0 0 0 0 0 0 7 44 32 0 0 0 0 0 0 0 0 0 0 0 0 0 0 0 0 0 0 0 0 0 0 0 0 0 
bb_ent_found_summary: 14674281 7772793 1.88791
