WARNING: physical memory size is smaller than virtual memory size.

*** ChampSim Multicore Out-of-Order Simulator ***
Warmup Instructions: 30000000
Simulation Instructions: 100000000
Number of CPUs: 1
Page size: 4096

BTB:
Basic BTB sets: 1024 ways: 8
Indirect:
history lengths: 0 0 10 16 27 44 60 96 109 219 449 487 714 1313 2146 3881 
ITTAGE tables: 64768 bytes;Region table: 240 bytes;IUM: 384 bytes;Total Storage= 65392 bytes;
RAS:
RAS size: 64
[LLC] INSTR Demand IPV: 1 2 2 1 4 Prefetch IPV: 1 2 1 1 4
[LLC] DATA  Demand IPV: 1 1 1 2 4 Prefetch IPV: 1 1 2 2 4
Berti Prefetcher
CPU 0 Entangling prefetcher
Off-chip DRAM Size: 8 GiB Channels: 2 Width: 64-bit Data Race: 6400 MT/s
[DUEL] Epoch ended. INSTR misses = 114, DATA misses = 92. Winner = DATA
[DUEL] Epoch ended. INSTR misses = 74, DATA misses = 66. Winner = DATA
[DUEL] Epoch ended. INSTR misses = 64, DATA misses = 49. Winner = DATA
[DUEL] Epoch ended. INSTR misses = 33, DATA misses = 26. Winner = DATA
[DUEL] Epoch ended. INSTR misses = 114, DATA misses = 112. Winner = DATA
[DUEL] Epoch ended. INSTR misses = 53, DATA misses = 52. Winner = DATA
[DUEL] Epoch ended. INSTR misses = 35, DATA misses = 27. Winner = DATA
[DUEL] Epoch ended. INSTR misses = 76, DATA misses = 63. Winner = DATA
[DUEL] Epoch ended. INSTR misses = 145, DATA misses = 146. Winner = INSTR
[DUEL] Epoch ended. INSTR misses = 81, DATA misses = 80. Winner = DATA
[DUEL] Epoch ended. INSTR misses = 47, DATA misses = 31. Winner = DATA
[DUEL] Epoch ended. INSTR misses = 25, DATA misses = 30. Winner = INSTR
[DUEL] Epoch ended. INSTR misses = 167, DATA misses = 142. Winner = DATA
[DUEL] Epoch ended. INSTR misses = 73, DATA misses = 88. Winner = INSTR
[DUEL] Epoch ended. INSTR misses = 73, DATA misses = 54. Winner = DATA
[DUEL] Epoch ended. INSTR misses = 43, DATA misses = 50. Winner = INSTR
[DUEL] Epoch ended. INSTR misses = 139, DATA misses = 137. Winner = DATA
[DUEL] Epoch ended. INSTR misses = 73, DATA misses = 58. Winner = DATA
[DUEL] Epoch ended. INSTR misses = 66, DATA misses = 52. Winner = DATA
Heartbeat CPU 0 instructions: 10000009 cycles: 2115274 heartbeat IPC: 4.728 cumulative IPC: 4.728 (Simulation time: 00 hr 00 min 29 sec)
[DUEL] Epoch ended. INSTR misses = 72, DATA misses = 77. Winner = INSTR
[DUEL] Epoch ended. INSTR misses = 87, DATA misses = 63. Winner = DATA
[DUEL] Epoch ended. INSTR misses = 42, DATA misses = 46. Winner = INSTR
[DUEL] Epoch ended. INSTR misses = 67, DATA misses = 60. Winner = DATA
[DUEL] Epoch ended. INSTR misses = 44, DATA misses = 44. Winner = INSTR
[DUEL] Epoch ended. INSTR misses = 69, DATA misses = 79. Winner = INSTR
[DUEL] Epoch ended. INSTR misses = 62, DATA misses = 54. Winner = DATA
[DUEL] Epoch ended. INSTR misses = 84, DATA misses = 94. Winner = INSTR
[DUEL] Epoch ended. INSTR misses = 29, DATA misses = 22. Winner = DATA
[DUEL] Epoch ended. INSTR misses = 111, DATA misses = 89. Winner = DATA
[DUEL] Epoch ended. INSTR misses = 94, DATA misses = 107. Winner = INSTR
[DUEL] Epoch ended. INSTR misses = 68, DATA misses = 42. Winner = DATA
[DUEL] Epoch ended. INSTR misses = 73, DATA misses = 62. Winner = DATA
[DUEL] Epoch ended. INSTR misses = 134, DATA misses = 143. Winner = INSTR
[DUEL] Epoch ended. INSTR misses = 67, DATA misses = 49. Winner = DATA
[DUEL] Epoch ended. INSTR misses = 30, DATA misses = 37. Winner = INSTR
[DUEL] Epoch ended. INSTR misses = 54, DATA misses = 58. Winner = INSTR
[DUEL] Epoch ended. INSTR misses = 81, DATA misses = 78. Winner = DATA
[DUEL] Epoch ended. INSTR misses = 71, DATA misses = 62. Winner = DATA
[DUEL] Epoch ended. INSTR misses = 44, DATA misses = 30. Winner = DATA
Heartbeat CPU 0 instructions: 20000000 cycles: 4211396 heartbeat IPC: 4.771 cumulative IPC: 4.749 (Simulation time: 00 hr 00 min 59 sec)
[DUEL] Epoch ended. INSTR misses = 61, DATA misses = 77. Winner = INSTR
[DUEL] Epoch ended. INSTR misses = 70, DATA misses = 84. Winner = INSTR
[DUEL] Epoch ended. INSTR misses = 37, DATA misses = 25. Winner = DATA
[DUEL] Epoch ended. INSTR misses = 67, DATA misses = 60. Winner = DATA
[DUEL] Epoch ended. INSTR misses = 100, DATA misses = 94. Winner = DATA
[DUEL] Epoch ended. INSTR misses = 120, DATA misses = 131. Winner = INSTR
[DUEL] Epoch ended. INSTR misses = 45, DATA misses = 37. Winner = DATA
[DUEL] Epoch ended. INSTR misses = 51, DATA misses = 46. Winner = DATA
[DUEL] Epoch ended. INSTR misses = 80, DATA misses = 71. Winner = DATA
[DUEL] Epoch ended. INSTR misses = 46, DATA misses = 50. Winner = INSTR
[DUEL] Epoch ended. INSTR misses = 85, DATA misses = 86. Winner = INSTR
[DUEL] Epoch ended. INSTR misses = 48, DATA misses = 46. Winner = DATA
[DUEL] Epoch ended. INSTR misses = 71, DATA misses = 83. Winner = INSTR
[DUEL] Epoch ended. INSTR misses = 54, DATA misses = 56. Winner = INSTR
[DUEL] Epoch ended. INSTR misses = 115, DATA misses = 112. Winner = DATA
[DUEL] Epoch ended. INSTR misses = 69, DATA misses = 69. Winner = INSTR
[DUEL] Epoch ended. INSTR misses = 81, DATA misses = 85. Winner = INSTR
[DUEL] Epoch ended. INSTR misses = 103, DATA misses = 87. Winner = DATA
[DUEL] Epoch ended. INSTR misses = 47, DATA misses = 68. Winner = INSTR
Heartbeat CPU 0 instructions: 30000007 cycles: 6302324 heartbeat IPC: 4.783 cumulative IPC: 4.76 (Simulation time: 00 hr 01 min 29 sec)
Warmup finished CPU 0 instructions: 30000007 cycles: 6302325 cumulative IPC: 4.76 (Simulation time: 00 hr 01 min 29 sec)
Warmup complete CPU 0 instructions: 30000007 cycles: 6302325 cumulative IPC: 4.76 (Simulation time: 00 hr 01 min 29 sec)
[DUEL] Epoch ended. INSTR misses = 50, DATA misses = 48. Winner = DATA
[DUEL] Epoch ended. INSTR misses = 30, DATA misses = 25. Winner = DATA
[DUEL] Epoch ended. INSTR misses = 67, DATA misses = 63. Winner = DATA
[DUEL] Epoch ended. INSTR misses = 60, DATA misses = 58. Winner = DATA
*** Reached end of trace: (0, "../traces/public_traces/srv/srv_37.champsimtrace.xz")
[DUEL] Epoch ended. INSTR misses = 41, DATA misses = 46. Winner = INSTR
[DUEL] Epoch ended. INSTR misses = 66, DATA misses = 53. Winner = DATA
[DUEL] Epoch ended. INSTR misses = 68, DATA misses = 49. Winner = DATA
[DUEL] Epoch ended. INSTR misses = 35, DATA misses = 23. Winner = DATA
[DUEL] Epoch ended. INSTR misses = 66, DATA misses = 51. Winner = DATA
[DUEL] Epoch ended. INSTR misses = 92, DATA misses = 82. Winner = DATA
[DUEL] Epoch ended. INSTR misses = 65, DATA misses = 53. Winner = DATA
[DUEL] Epoch ended. INSTR misses = 47, DATA misses = 40. Winner = DATA
[DUEL] Epoch ended. INSTR misses = 93, DATA misses = 74. Winner = DATA
[DUEL] Epoch ended. INSTR misses = 109, DATA misses = 110. Winner = INSTR
[DUEL] Epoch ended. INSTR misses = 60, DATA misses = 77. Winner = INSTR
[DUEL] Epoch ended. INSTR misses = 37, DATA misses = 39. Winner = INSTR
[DUEL] Epoch ended. INSTR misses = 75, DATA misses = 57. Winner = DATA
[DUEL] Epoch ended. INSTR misses = 121, DATA misses = 109. Winner = DATA
[DUEL] Epoch ended. INSTR misses = 106, DATA misses = 109. Winner = INSTR
[DUEL] Epoch ended. INSTR misses = 63, DATA misses = 54. Winner = DATA
Heartbeat CPU 0 instructions: 40000008 cycles: 12380592 heartbeat IPC: 1.645 cumulative IPC: 1.645 (Simulation time: 00 hr 02 min 27 sec)
[DUEL] Epoch ended. INSTR misses = 53, DATA misses = 44. Winner = DATA
[DUEL] Epoch ended. INSTR misses = 113, DATA misses = 120. Winner = INSTR
[DUEL] Epoch ended. INSTR misses = 86, DATA misses = 70. Winner = DATA
[DUEL] Epoch ended. INSTR misses = 55, DATA misses = 57. Winner = INSTR
[DUEL] Epoch ended. INSTR misses = 56, DATA misses = 54. Winner = DATA
[DUEL] Epoch ended. INSTR misses = 68, DATA misses = 63. Winner = DATA
[DUEL] Epoch ended. INSTR misses = 65, DATA misses = 63. Winner = DATA
[DUEL] Epoch ended. INSTR misses = 55, DATA misses = 46. Winner = DATA
[DUEL] Epoch ended. INSTR misses = 55, DATA misses = 49. Winner = DATA
[DUEL] Epoch ended. INSTR misses = 59, DATA misses = 64. Winner = INSTR
[DUEL] Epoch ended. INSTR misses = 86, DATA misses = 81. Winner = DATA
[DUEL] Epoch ended. INSTR misses = 72, DATA misses = 59. Winner = DATA
[DUEL] Epoch ended. INSTR misses = 45, DATA misses = 29. Winner = DATA
[DUEL] Epoch ended. INSTR misses = 92, DATA misses = 81. Winner = DATA
[DUEL] Epoch ended. INSTR misses = 108, DATA misses = 103. Winner = DATA
[DUEL] Epoch ended. INSTR misses = 82, DATA misses = 61. Winner = DATA
[DUEL] Epoch ended. INSTR misses = 73, DATA misses = 48. Winner = DATA
[DUEL] Epoch ended. INSTR misses = 130, DATA misses = 138. Winner = INSTR
[DUEL] Epoch ended. INSTR misses = 67, DATA misses = 65. Winner = DATA
Heartbeat CPU 0 instructions: 50000010 cycles: 18123590 heartbeat IPC: 1.741 cumulative IPC: 1.692 (Simulation time: 00 hr 03 min 23 sec)
[DUEL] Epoch ended. INSTR misses = 53, DATA misses = 41. Winner = DATA
[DUEL] Epoch ended. INSTR misses = 34, DATA misses = 38. Winner = INSTR
[DUEL] Epoch ended. INSTR misses = 90, DATA misses = 75. Winner = DATA
[DUEL] Epoch ended. INSTR misses = 95, DATA misses = 86. Winner = DATA
[DUEL] Epoch ended. INSTR misses = 33, DATA misses = 6. Winner = DATA
[DUEL] Epoch ended. INSTR misses = 61, DATA misses = 75. Winner = INSTR
[DUEL] Epoch ended. INSTR misses = 78, DATA misses = 82. Winner = INSTR
[DUEL] Epoch ended. INSTR misses = 73, DATA misses = 64. Winner = DATA
[DUEL] Epoch ended. INSTR misses = 61, DATA misses = 50. Winner = DATA
[DUEL] Epoch ended. INSTR misses = 82, DATA misses = 69. Winner = DATA
[DUEL] Epoch ended. INSTR misses = 136, DATA misses = 128. Winner = DATA
[DUEL] Epoch ended. INSTR misses = 53, DATA misses = 44. Winner = DATA
[DUEL] Epoch ended. INSTR misses = 82, DATA misses = 57. Winner = DATA
[DUEL] Epoch ended. INSTR misses = 58, DATA misses = 55. Winner = DATA
[DUEL] Epoch ended. INSTR misses = 60, DATA misses = 50. Winner = DATA
[DUEL] Epoch ended. INSTR misses = 105, DATA misses = 105. Winner = INSTR
[DUEL] Epoch ended. INSTR misses = 68, DATA misses = 50. Winner = DATA
[DUEL] Epoch ended. INSTR misses = 50, DATA misses = 59. Winner = INSTR
[DUEL] Epoch ended. INSTR misses = 75, DATA misses = 70. Winner = DATA
[DUEL] Epoch ended. INSTR misses = 106, DATA misses = 98. Winner = DATA
Heartbeat CPU 0 instructions: 60000001 cycles: 23951468 heartbeat IPC: 1.716 cumulative IPC: 1.7 (Simulation time: 00 hr 04 min 20 sec)
[DUEL] Epoch ended. INSTR misses = 97, DATA misses = 91. Winner = DATA
[DUEL] Epoch ended. INSTR misses = 104, DATA misses = 79. Winner = DATA
[DUEL] Epoch ended. INSTR misses = 69, DATA misses = 68. Winner = DATA
[DUEL] Epoch ended. INSTR misses = 58, DATA misses = 67. Winner = INSTR
[DUEL] Epoch ended. INSTR misses = 56, DATA misses = 49. Winner = DATA
[DUEL] Epoch ended. INSTR misses = 38, DATA misses = 25. Winner = DATA
[DUEL] Epoch ended. INSTR misses = 66, DATA misses = 63. Winner = DATA
[DUEL] Epoch ended. INSTR misses = 66, DATA misses = 54. Winner = DATA
*** Reached end of trace: (0, "../traces/public_traces/srv/srv_37.champsimtrace.xz")
[DUEL] Epoch ended. INSTR misses = 56, DATA misses = 53. Winner = DATA
[DUEL] Epoch ended. INSTR misses = 65, DATA misses = 45. Winner = DATA
[DUEL] Epoch ended. INSTR misses = 76, DATA misses = 47. Winner = DATA
[DUEL] Epoch ended. INSTR misses = 47, DATA misses = 29. Winner = DATA
[DUEL] Epoch ended. INSTR misses = 70, DATA misses = 47. Winner = DATA
[DUEL] Epoch ended. INSTR misses = 86, DATA misses = 79. Winner = DATA
[DUEL] Epoch ended. INSTR misses = 69, DATA misses = 51. Winner = DATA
[DUEL] Epoch ended. INSTR misses = 69, DATA misses = 61. Winner = DATA
[DUEL] Epoch ended. INSTR misses = 98, DATA misses = 84. Winner = DATA
[DUEL] Epoch ended. INSTR misses = 91, DATA misses = 77. Winner = DATA
[DUEL] Epoch ended. INSTR misses = 64, DATA misses = 75. Winner = INSTR
Heartbeat CPU 0 instructions: 70000000 cycles: 29826457 heartbeat IPC: 1.702 cumulative IPC: 1.7 (Simulation time: 00 hr 05 min 17 sec)
[DUEL] Epoch ended. INSTR misses = 42, DATA misses = 43. Winner = INSTR
[DUEL] Epoch ended. INSTR misses = 91, DATA misses = 64. Winner = DATA
[DUEL] Epoch ended. INSTR misses = 108, DATA misses = 97. Winner = DATA
[DUEL] Epoch ended. INSTR misses = 110, DATA misses = 108. Winner = DATA
[DUEL] Epoch ended. INSTR misses = 83, DATA misses = 76. Winner = DATA
[DUEL] Epoch ended. INSTR misses = 47, DATA misses = 26. Winner = DATA
[DUEL] Epoch ended. INSTR misses = 111, DATA misses = 117. Winner = INSTR
[DUEL] Epoch ended. INSTR misses = 90, DATA misses = 69. Winner = DATA
[DUEL] Epoch ended. INSTR misses = 58, DATA misses = 61. Winner = INSTR
[DUEL] Epoch ended. INSTR misses = 86, DATA misses = 65. Winner = DATA
[DUEL] Epoch ended. INSTR misses = 42, DATA misses = 46. Winner = INSTR
[DUEL] Epoch ended. INSTR misses = 63, DATA misses = 62. Winner = DATA
[DUEL] Epoch ended. INSTR misses = 56, DATA misses = 45. Winner = DATA
[DUEL] Epoch ended. INSTR misses = 83, DATA misses = 77. Winner = DATA
[DUEL] Epoch ended. INSTR misses = 37, DATA misses = 37. Winner = INSTR
[DUEL] Epoch ended. INSTR misses = 96, DATA misses = 77. Winner = DATA
[DUEL] Epoch ended. INSTR misses = 72, DATA misses = 74. Winner = INSTR
[DUEL] Epoch ended. INSTR misses = 46, DATA misses = 37. Winner = DATA
[DUEL] Epoch ended. INSTR misses = 63, DATA misses = 56. Winner = DATA
[DUEL] Epoch ended. INSTR misses = 115, DATA misses = 108. Winner = DATA
Heartbeat CPU 0 instructions: 80000001 cycles: 35679746 heartbeat IPC: 1.708 cumulative IPC: 1.702 (Simulation time: 00 hr 06 min 15 sec)
[DUEL] Epoch ended. INSTR misses = 76, DATA misses = 50. Winner = DATA
[DUEL] Epoch ended. INSTR misses = 72, DATA misses = 49. Winner = DATA
[DUEL] Epoch ended. INSTR misses = 134, DATA misses = 140. Winner = INSTR
[DUEL] Epoch ended. INSTR misses = 68, DATA misses = 61. Winner = DATA
[DUEL] Epoch ended. INSTR misses = 48, DATA misses = 48. Winner = INSTR
[DUEL] Epoch ended. INSTR misses = 67, DATA misses = 62. Winner = DATA
[DUEL] Epoch ended. INSTR misses = 60, DATA misses = 46. Winner = DATA
[DUEL] Epoch ended. INSTR misses = 94, DATA misses = 90. Winner = DATA
[DUEL] Epoch ended. INSTR misses = 39, DATA misses = 25. Winner = DATA
[DUEL] Epoch ended. INSTR misses = 46, DATA misses = 53. Winner = INSTR
[DUEL] Epoch ended. INSTR misses = 85, DATA misses = 83. Winner = DATA
[DUEL] Epoch ended. INSTR misses = 78, DATA misses = 70. Winner = DATA
[DUEL] Epoch ended. INSTR misses = 71, DATA misses = 70. Winner = DATA
[DUEL] Epoch ended. INSTR misses = 60, DATA misses = 39. Winner = DATA
[DUEL] Epoch ended. INSTR misses = 129, DATA misses = 126. Winner = DATA
[DUEL] Epoch ended. INSTR misses = 75, DATA misses = 71. Winner = DATA
[DUEL] Epoch ended. INSTR misses = 58, DATA misses = 30. Winner = DATA
[DUEL] Epoch ended. INSTR misses = 53, DATA misses = 55. Winner = INSTR
[DUEL] Epoch ended. INSTR misses = 57, DATA misses = 51. Winner = DATA
Heartbeat CPU 0 instructions: 90000010 cycles: 41561859 heartbeat IPC: 1.7 cumulative IPC: 1.702 (Simulation time: 00 hr 07 min 13 sec)
[DUEL] Epoch ended. INSTR misses = 108, DATA misses = 105. Winner = DATA
[DUEL] Epoch ended. INSTR misses = 71, DATA misses = 74. Winner = INSTR
[DUEL] Epoch ended. INSTR misses = 38, DATA misses = 34. Winner = DATA
[DUEL] Epoch ended. INSTR misses = 106, DATA misses = 119. Winner = INSTR
[DUEL] Epoch ended. INSTR misses = 71, DATA misses = 55. Winner = DATA
[DUEL] Epoch ended. INSTR misses = 89, DATA misses = 89. Winner = INSTR
[DUEL] Epoch ended. INSTR misses = 124, DATA misses = 107. Winner = DATA
[DUEL] Epoch ended. INSTR misses = 56, DATA misses = 43. Winner = DATA
[DUEL] Epoch ended. INSTR misses = 45, DATA misses = 61. Winner = INSTR
[DUEL] Epoch ended. INSTR misses = 51, DATA misses = 53. Winner = INSTR
[DUEL] Epoch ended. INSTR misses = 63, DATA misses = 55. Winner = DATA
[DUEL] Epoch ended. INSTR misses = 36, DATA misses = 29. Winner = DATA
[DUEL] Epoch ended. INSTR misses = 60, DATA misses = 54. Winner = DATA
*** Reached end of trace: (0, "../traces/public_traces/srv/srv_37.champsimtrace.xz")
[DUEL] Epoch ended. INSTR misses = 76, DATA misses = 71. Winner = DATA
[DUEL] Epoch ended. INSTR misses = 63, DATA misses = 45. Winner = DATA
[DUEL] Epoch ended. INSTR misses = 61, DATA misses = 32. Winner = DATA
[DUEL] Epoch ended. INSTR misses = 85, DATA misses = 46. Winner = DATA
[DUEL] Epoch ended. INSTR misses = 73, DATA misses = 62. Winner = DATA
[DUEL] Epoch ended. INSTR misses = 66, DATA misses = 49. Winner = DATA
[DUEL] Epoch ended. INSTR misses = 70, DATA misses = 48. Winner = DATA
Heartbeat CPU 0 instructions: 100000001 cycles: 47401344 heartbeat IPC: 1.712 cumulative IPC: 1.703 (Simulation time: 00 hr 08 min 10 sec)
[DUEL] Epoch ended. INSTR misses = 96, DATA misses = 75. Winner = DATA
[DUEL] Epoch ended. INSTR misses = 96, DATA misses = 102. Winner = INSTR
[DUEL] Epoch ended. INSTR misses = 72, DATA misses = 47. Winner = DATA
[DUEL] Epoch ended. INSTR misses = 59, DATA misses = 74. Winner = INSTR
[DUEL] Epoch ended. INSTR misses = 63, DATA misses = 60. Winner = DATA
[DUEL] Epoch ended. INSTR misses = 90, DATA misses = 70. Winner = DATA
[DUEL] Epoch ended. INSTR misses = 100, DATA misses = 78. Winner = DATA
[DUEL] Epoch ended. INSTR misses = 102, DATA misses = 106. Winner = INSTR
[DUEL] Epoch ended. INSTR misses = 86, DATA misses = 79. Winner = DATA
[DUEL] Epoch ended. INSTR misses = 75, DATA misses = 51. Winner = DATA
[DUEL] Epoch ended. INSTR misses = 106, DATA misses = 91. Winner = DATA
[DUEL] Epoch ended. INSTR misses = 74, DATA misses = 67. Winner = DATA
[DUEL] Epoch ended. INSTR misses = 110, DATA misses = 105. Winner = DATA
[DUEL] Epoch ended. INSTR misses = 48, DATA misses = 34. Winner = DATA
[DUEL] Epoch ended. INSTR misses = 54, DATA misses = 34. Winner = DATA
[DUEL] Epoch ended. INSTR misses = 68, DATA misses = 66. Winner = DATA
[DUEL] Epoch ended. INSTR misses = 57, DATA misses = 46. Winner = DATA
[DUEL] Epoch ended. INSTR misses = 93, DATA misses = 80. Winner = DATA
[DUEL] Epoch ended. INSTR misses = 36, DATA misses = 31. Winner = DATA
Heartbeat CPU 0 instructions: 110000005 cycles: 53257974 heartbeat IPC: 1.707 cumulative IPC: 1.704 (Simulation time: 00 hr 09 min 07 sec)
[DUEL] Epoch ended. INSTR misses = 92, DATA misses = 76. Winner = DATA
[DUEL] Epoch ended. INSTR misses = 73, DATA misses = 74. Winner = INSTR
[DUEL] Epoch ended. INSTR misses = 46, DATA misses = 37. Winner = DATA
[DUEL] Epoch ended. INSTR misses = 65, DATA misses = 56. Winner = DATA
[DUEL] Epoch ended. INSTR misses = 115, DATA misses = 107. Winner = DATA
[DUEL] Epoch ended. INSTR misses = 119, DATA misses = 88. Winner = DATA
[DUEL] Epoch ended. INSTR misses = 73, DATA misses = 60. Winner = DATA
[DUEL] Epoch ended. INSTR misses = 95, DATA misses = 93. Winner = DATA
[DUEL] Epoch ended. INSTR misses = 71, DATA misses = 62. Winner = DATA
[DUEL] Epoch ended. INSTR misses = 76, DATA misses = 73. Winner = DATA
[DUEL] Epoch ended. INSTR misses = 47, DATA misses = 37. Winner = DATA
[DUEL] Epoch ended. INSTR misses = 52, DATA misses = 47. Winner = DATA
[DUEL] Epoch ended. INSTR misses = 100, DATA misses = 89. Winner = DATA
[DUEL] Epoch ended. INSTR misses = 63, DATA misses = 49. Winner = DATA
[DUEL] Epoch ended. INSTR misses = 57, DATA misses = 51. Winner = DATA
[DUEL] Epoch ended. INSTR misses = 56, DATA misses = 61. Winner = INSTR
[DUEL] Epoch ended. INSTR misses = 90, DATA misses = 70. Winner = DATA
[DUEL] Epoch ended. INSTR misses = 85, DATA misses = 85. Winner = INSTR
[DUEL] Epoch ended. INSTR misses = 89, DATA misses = 73. Winner = DATA
[DUEL] Epoch ended. INSTR misses = 77, DATA misses = 77. Winner = INSTR
Heartbeat CPU 0 instructions: 120000007 cycles: 58948225 heartbeat IPC: 1.757 cumulative IPC: 1.71 (Simulation time: 00 hr 10 min 03 sec)
[DUEL] Epoch ended. INSTR misses = 87, DATA misses = 78. Winner = DATA
[DUEL] Epoch ended. INSTR misses = 74, DATA misses = 41. Winner = DATA
[DUEL] Epoch ended. INSTR misses = 58, DATA misses = 52. Winner = DATA
[DUEL] Epoch ended. INSTR misses = 74, DATA misses = 70. Winner = DATA
[DUEL] Epoch ended. INSTR misses = 77, DATA misses = 70. Winner = DATA
[DUEL] Epoch ended. INSTR misses = 67, DATA misses = 76. Winner = INSTR
[DUEL] Epoch ended. INSTR misses = 63, DATA misses = 57. Winner = DATA
[DUEL] Epoch ended. INSTR misses = 104, DATA misses = 113. Winner = INSTR
[DUEL] Epoch ended. INSTR misses = 87, DATA misses = 79. Winner = DATA
[DUEL] Epoch ended. INSTR misses = 71, DATA misses = 64. Winner = DATA
[DUEL] Epoch ended. INSTR misses = 107, DATA misses = 85. Winner = DATA
[DUEL] Epoch ended. INSTR misses = 61, DATA misses = 40. Winner = DATA
[DUEL] Epoch ended. INSTR misses = 46, DATA misses = 62. Winner = INSTR
[DUEL] Epoch ended. INSTR misses = 56, DATA misses = 53. Winner = DATA
[DUEL] Epoch ended. INSTR misses = 80, DATA misses = 65. Winner = DATA
[DUEL] Epoch ended. INSTR misses = 39, DATA misses = 34. Winner = DATA
[DUEL] Epoch ended. INSTR misses = 43, DATA misses = 33. Winner = DATA
*** Reached end of trace: (0, "../traces/public_traces/srv/srv_37.champsimtrace.xz")
[DUEL] Epoch ended. INSTR misses = 100, DATA misses = 89. Winner = DATA
[DUEL] Epoch ended. INSTR misses = 41, DATA misses = 28. Winner = DATA
Heartbeat CPU 0 instructions: 130000002 cycles: 64723404 heartbeat IPC: 1.732 cumulative IPC: 1.712 (Simulation time: 00 hr 10 min 59 sec)
Simulation finished CPU 0 instructions: 100000007 cycles: 58421081 cumulative IPC: 1.712 (Simulation time: 00 hr 10 min 59 sec)
Simulation complete CPU 0 instructions: 100000007 cycles: 58421081 cumulative IPC: 1.712 (Simulation time: 00 hr 10 min 59 sec)

ChampSim completed all CPUs

=== Simulation ===
CPU 0 runs ../traces/public_traces/srv/srv_37.champsimtrace.xz
Region of Interest Statistics

CPU 0 cumulative IPC: 1.712 instructions: 100000007 cycles: 58421081
CPU 0 Branch Prediction Accuracy: 99.87% MPKI: 0.2023 Average ROB Occupancy at Mispredict: 200.2
Branch type MPKI
BRANCH_DIRECT_JUMP: 0.00048
BRANCH_INDIRECT: 0.148
BRANCH_CONDITIONAL: 0.0494
BRANCH_DIRECT_CALL: 0.0015
BRANCH_INDIRECT_CALL: 0.00012
BRANCH_RETURN: 0.00245

LLC TOTAL        ACCESS:    4726422 HIT:    2000258 MISS:    2726164
LLC LOAD         ACCESS:     472428 HIT:     359998 MISS:     112430
LLC RFO          ACCESS:    1596447 HIT:     449083 MISS:    1147364
LLC PREFETCH     ACCESS:     819818 HIT:     368167 MISS:     451651
LLC WRITE        ACCESS:    1824056 HIT:     822261 MISS:    1001795
LLC TRANSLATION  ACCESS:      13673 HIT:        749 MISS:      12924
LLC PREFETCH REQUESTED:          0 ISSUED:          0 USEFUL:          0 USELESS:          0
LLC AVERAGE MISS LATENCY: 189.3 cycles
cpu0_DTLB TOTAL        ACCESS:   18616044 HIT:   17575582 MISS:    1040462
cpu0_DTLB LOAD         ACCESS:   18616044 HIT:   17575582 MISS:    1040462
cpu0_DTLB RFO          ACCESS:          0 HIT:          0 MISS:          0
cpu0_DTLB PREFETCH     ACCESS:          0 HIT:          0 MISS:          0
cpu0_DTLB WRITE        ACCESS:          0 HIT:          0 MISS:          0
cpu0_DTLB TRANSLATION  ACCESS:          0 HIT:          0 MISS:          0
cpu0_DTLB PREFETCH REQUESTED:          0 ISSUED:          0 USEFUL:          0 USELESS:          0
cpu0_DTLB AVERAGE MISS LATENCY: 8.519 cycles
cpu0_ITLB TOTAL        ACCESS:   14560567 HIT:   14536894 MISS:      23673
cpu0_ITLB LOAD         ACCESS:   14560567 HIT:   14536894 MISS:      23673
cpu0_ITLB RFO          ACCESS:          0 HIT:          0 MISS:          0
cpu0_ITLB PREFETCH     ACCESS:          0 HIT:          0 MISS:          0
cpu0_ITLB WRITE        ACCESS:          0 HIT:          0 MISS:          0
cpu0_ITLB TRANSLATION  ACCESS:          0 HIT:          0 MISS:          0
cpu0_ITLB PREFETCH REQUESTED:          0 ISSUED:          0 USEFUL:          0 USELESS:          0
cpu0_ITLB AVERAGE MISS LATENCY: 26.24 cycles
cpu0_L1D TOTAL        ACCESS:   34158986 HIT:   21016897 MISS:   13142089
cpu0_L1D LOAD         ACCESS:   13335461 HIT:   10538679 MISS:    2796782
cpu0_L1D RFO          ACCESS:          0 HIT:          0 MISS:          0
cpu0_L1D PREFETCH     ACCESS:    3761986 HIT:    1491644 MISS:    2270342
cpu0_L1D WRITE        ACCESS:   17026747 HIT:    8973509 MISS:    8053238
cpu0_L1D TRANSLATION  ACCESS:      34792 HIT:      13065 MISS:      21727
cpu0_L1D PREFETCH REQUESTED:    9195646 ISSUED:    3761986 USEFUL:     383426 USELESS:      58013
cpu0_L1D AVERAGE MISS LATENCY: 38.81 cycles
cpu0_L1I TOTAL        ACCESS:   21138093 HIT:   14786582 MISS:    6351511
cpu0_L1I LOAD         ACCESS:   11142650 HIT:    6315666 MISS:    4826984
cpu0_L1I RFO          ACCESS:          0 HIT:          0 MISS:          0
cpu0_L1I PREFETCH     ACCESS:    9995443 HIT:    8470916 MISS:    1524527
cpu0_L1I WRITE        ACCESS:          0 HIT:          0 MISS:          0
cpu0_L1I TRANSLATION  ACCESS:          0 HIT:          0 MISS:          0
cpu0_L1I PREFETCH REQUESTED:   33349372 ISSUED:    9995448 USEFUL:    1219874 USELESS:     150642
cpu0_L1I AVERAGE MISS LATENCY: 9.646 cycles
cpu0_L2C TOTAL        ACCESS:   17097822 HIT:   12425766 MISS:    4672056
cpu0_L2C LOAD         ACCESS:    4512141 HIT:    3989077 MISS:     523064
cpu0_L2C RFO          ACCESS:    1835553 HIT:     238699 MISS:    1596854
cpu0_L2C PREFETCH     ACCESS:    8531331 HIT:    5992884 MISS:    2538447
cpu0_L2C WRITE        ACCESS:    2197240 HIT:    2197222 MISS:         18
cpu0_L2C TRANSLATION  ACCESS:      21557 HIT:       7884 MISS:      13673
cpu0_L2C PREFETCH REQUESTED:    7680614 ISSUED:    5366593 USEFUL:      97615 USELESS:     181798
cpu0_L2C AVERAGE MISS LATENCY: 121.8 cycles
cpu0_STLB TOTAL        ACCESS:     513527 HIT:     482588 MISS:      30939
cpu0_STLB LOAD         ACCESS:     513527 HIT:     482588 MISS:      30939
cpu0_STLB RFO          ACCESS:          0 HIT:          0 MISS:          0
cpu0_STLB PREFETCH     ACCESS:          0 HIT:          0 MISS:          0
cpu0_STLB WRITE        ACCESS:          0 HIT:          0 MISS:          0
cpu0_STLB TRANSLATION  ACCESS:          0 HIT:          0 MISS:          0
cpu0_STLB PREFETCH REQUESTED:          0 ISSUED:          0 USEFUL:          0 USELESS:          0
cpu0_STLB AVERAGE MISS LATENCY: 240.3 cycles

DRAM Statistics

Channel 0 RQ ROW_BUFFER_HIT:     390880
  ROW_BUFFER_MISS:     481154
 AVG DBUS CONGESTED CYCLE: 3.946
WQ ROW_BUFFER_HIT: Channel 0 
  ROW_BUFFER_MISS:      66036
  FULL:     527210

Channel 1 RQ ROW_BUFFER_HIT:     392068
  ROW_BUFFER_MISS:     460214
 AVG DBUS CONGESTED CYCLE: 3.941
WQ ROW_BUFFER_HIT: Channel 1 
  ROW_BUFFER_MISS:      71105
  FULL:     508242
BERTI TO_L1: 3938387 TO_L2: 8287073 TO_L2_BC_MSHR: 3837157
BERTI AVG_LAT: 69.0374 NUM_TRACK_LATENCY: 2144938 NUM_CANT_TRACK_LATENCY: 0
BERTI CROSS_PAGE 1558357 NO_CROSS_PAGE: 10667103
BERTI FOUND_BERTI: 3536032 NO_FOUND_BERTI: 15850483
BERTI AVERAGE_ISSUED: 4.82743
CPU 0 L1I Entangling prefetcher final stats
IP accesses: 5cd0 173400 136737 / 11248506
IP misses: 13dd 4f740 20286 / 4932840
IP hits: 0 0 0 / 0
IP late: 9cf1 273c40 8451 / 2082460
IP wrong: 5a3c 168f00 4352 / 144061
miss rate: 0.438533
coverage: 0
coverage_late: 0.422163
accuracy: 0
accuracy_late: 0.935298
discarded: 0
evicts entangled j table: 0
evicts entangled k table: 357726
max bb size: 13
formats: 63519 0 252703 85060 33577 53194 0 
hist_lookups: 48688 128189 230052 303527 295810 239529 175180 142351 134165 124468 98223 66649 43929 23571 6220 0 651 796778 
hist_lookups_evict: 0.0227784 %
hist_lookups_shortlat: 27.8791 %
bb_found_hist: 0 2502461 1166518 481439 252091 119683 61818 28080 8870 4911 0 558 0 4455 0 0 0 0 0 0 0 0 0 0 0 0 0 0 0 0 0 0 0 0 0 0 0 0 0 0 0 0 0 0 0 0 0 0 0 0 0 0 0 0 0 0 0 0 0 0 0 0 0 0 
bb_found_summary: 8633273 4630884 1.86429
entangled_found_hist: 0 1217945 747884 2316358 575986 68422 33971 0 
entangled_found_summary: 12512667 4960566 2.52243
bb_ent_found_hist: 0 3978298 2364219 1130691 584152 252643 170255 80280 27378 3524 0 3235 0 20728 0 0 0 0 0 0 0 0 0 0 0 0 0 0 0 0 0 0 0 0 0 0 0 0 0 0 0 0 0 0 0 0 0 0 0 0 0 0 0 0 0 0 0 0 0 0 0 0 0 0 
bb_ent_found_summary: 17837911 8615403 2.07047
