WARNING: physical memory size is smaller than virtual memory size.

*** ChampSim Multicore Out-of-Order Simulator ***
Warmup Instructions: 30000000
Simulation Instructions: 100000000
Number of CPUs: 1
Page size: 4096

BTB:
Basic BTB sets: 1024 ways: 8
Indirect:
history lengths: 0 0 10 16 27 44 60 96 109 219 449 487 714 1313 2146 3881 
ITTAGE tables: 64768 bytes;Region table: 240 bytes;IUM: 384 bytes;Total Storage= 65392 bytes;
RAS:
RAS size: 64
[LLC] INSTR Demand IPV: 1 2 2 1 4 Prefetch IPV: 1 2 1 1 4
[LLC] DATA  Demand IPV: 1 1 1 2 4 Prefetch IPV: 1 1 2 2 4
Berti Prefetcher
CPU 0 Entangling prefetcher
Off-chip DRAM Size: 8 GiB Channels: 2 Width: 64-bit Data Race: 6400 MT/s
[DUEL] Epoch ended. INSTR misses = 36, DATA misses = 56. Winner = INSTR
[DUEL] Epoch ended. INSTR misses = 2, DATA misses = 2. Winner = INSTR
[DUEL] Epoch ended. INSTR misses = 7, DATA misses = 2. Winner = DATA
[DUEL] Epoch ended. INSTR misses = 0, DATA misses = 3. Winner = INSTR
[DUEL] Epoch ended. INSTR misses = 0, DATA misses = 2. Winner = INSTR
[DUEL] Epoch ended. INSTR misses = 0, DATA misses = 2. Winner = INSTR
[DUEL] Epoch ended. INSTR misses = 0, DATA misses = 0. Winner = INSTR
[DUEL] Epoch ended. INSTR misses = 2, DATA misses = 0. Winner = DATA
[DUEL] Epoch ended. INSTR misses = 0, DATA misses = 0. Winner = INSTR
[DUEL] Epoch ended. INSTR misses = 0, DATA misses = 6. Winner = INSTR
[DUEL] Epoch ended. INSTR misses = 0, DATA misses = 3. Winner = INSTR
[DUEL] Epoch ended. INSTR misses = 3, DATA misses = 2. Winner = DATA
[DUEL] Epoch ended. INSTR misses = 0, DATA misses = 0. Winner = INSTR
[DUEL] Epoch ended. INSTR misses = 0, DATA misses = 0. Winner = INSTR
[DUEL] Epoch ended. INSTR misses = 0, DATA misses = 0. Winner = INSTR
[DUEL] Epoch ended. INSTR misses = 0, DATA misses = 0. Winner = INSTR
[DUEL] Epoch ended. INSTR misses = 0, DATA misses = 0. Winner = INSTR
[DUEL] Epoch ended. INSTR misses = 1, DATA misses = 1. Winner = INSTR
[DUEL] Epoch ended. INSTR misses = 0, DATA misses = 0. Winner = INSTR
[DUEL] Epoch ended. INSTR misses = 0, DATA misses = 0. Winner = INSTR
[DUEL] Epoch ended. INSTR misses = 0, DATA misses = 0. Winner = INSTR
[DUEL] Epoch ended. INSTR misses = 0, DATA misses = 0. Winner = INSTR
[DUEL] Epoch ended. INSTR misses = 8, DATA misses = 0. Winner = DATA
[DUEL] Epoch ended. INSTR misses = 0, DATA misses = 0. Winner = INSTR
[DUEL] Epoch ended. INSTR misses = 2, DATA misses = 0. Winner = DATA
[DUEL] Epoch ended. INSTR misses = 0, DATA misses = 0. Winner = INSTR
[DUEL] Epoch ended. INSTR misses = 0, DATA misses = 0. Winner = INSTR
[DUEL] Epoch ended. INSTR misses = 0, DATA misses = 7. Winner = INSTR
[DUEL] Epoch ended. INSTR misses = 16, DATA misses = 16. Winner = INSTR
[DUEL] Epoch ended. INSTR misses = 1, DATA misses = 0. Winner = DATA
[DUEL] Epoch ended. INSTR misses = 0, DATA misses = 4. Winner = INSTR
[DUEL] Epoch ended. INSTR misses = 2, DATA misses = 0. Winner = DATA
[DUEL] Epoch ended. INSTR misses = 0, DATA misses = 0. Winner = INSTR
[DUEL] Epoch ended. INSTR misses = 0, DATA misses = 2. Winner = INSTR
[DUEL] Epoch ended. INSTR misses = 0, DATA misses = 1. Winner = INSTR
[DUEL] Epoch ended. INSTR misses = 2, DATA misses = 0. Winner = DATA
[DUEL] Epoch ended. INSTR misses = 0, DATA misses = 0. Winner = INSTR
Heartbeat CPU 0 instructions: 10000002 cycles: 1722838 heartbeat IPC: 5.804 cumulative IPC: 5.804 (Simulation time: 00 hr 00 min 27 sec)
[DUEL] Epoch ended. INSTR misses = 0, DATA misses = 0. Winner = INSTR
[DUEL] Epoch ended. INSTR misses = 0, DATA misses = 0. Winner = INSTR
[DUEL] Epoch ended. INSTR misses = 0, DATA misses = 1. Winner = INSTR
[DUEL] Epoch ended. INSTR misses = 0, DATA misses = 0. Winner = INSTR
[DUEL] Epoch ended. INSTR misses = 0, DATA misses = 0. Winner = INSTR
[DUEL] Epoch ended. INSTR misses = 5, DATA misses = 0. Winner = DATA
[DUEL] Epoch ended. INSTR misses = 3, DATA misses = 0. Winner = DATA
[DUEL] Epoch ended. INSTR misses = 2, DATA misses = 0. Winner = DATA
[DUEL] Epoch ended. INSTR misses = 0, DATA misses = 0. Winner = INSTR
[DUEL] Epoch ended. INSTR misses = 0, DATA misses = 0. Winner = INSTR
[DUEL] Epoch ended. INSTR misses = 0, DATA misses = 0. Winner = INSTR
[DUEL] Epoch ended. INSTR misses = 0, DATA misses = 0. Winner = INSTR
[DUEL] Epoch ended. INSTR misses = 2, DATA misses = 7. Winner = INSTR
[DUEL] Epoch ended. INSTR misses = 1, DATA misses = 0. Winner = DATA
[DUEL] Epoch ended. INSTR misses = 0, DATA misses = 0. Winner = INSTR
[DUEL] Epoch ended. INSTR misses = 0, DATA misses = 0. Winner = INSTR
[DUEL] Epoch ended. INSTR misses = 0, DATA misses = 0. Winner = INSTR
[DUEL] Epoch ended. INSTR misses = 0, DATA misses = 0. Winner = INSTR
[DUEL] Epoch ended. INSTR misses = 0, DATA misses = 0. Winner = INSTR
[DUEL] Epoch ended. INSTR misses = 0, DATA misses = 1. Winner = INSTR
[DUEL] Epoch ended. INSTR misses = 0, DATA misses = 3. Winner = INSTR
[DUEL] Epoch ended. INSTR misses = 16, DATA misses = 6. Winner = DATA
[DUEL] Epoch ended. INSTR misses = 0, DATA misses = 0. Winner = INSTR
[DUEL] Epoch ended. INSTR misses = 0, DATA misses = 0. Winner = INSTR
[DUEL] Epoch ended. INSTR misses = 0, DATA misses = 0. Winner = INSTR
[DUEL] Epoch ended. INSTR misses = 0, DATA misses = 0. Winner = INSTR
[DUEL] Epoch ended. INSTR misses = 0, DATA misses = 4. Winner = INSTR
[DUEL] Epoch ended. INSTR misses = 0, DATA misses = 0. Winner = INSTR
[DUEL] Epoch ended. INSTR misses = 0, DATA misses = 0. Winner = INSTR
[DUEL] Epoch ended. INSTR misses = 0, DATA misses = 0. Winner = INSTR
[DUEL] Epoch ended. INSTR misses = 0, DATA misses = 0. Winner = INSTR
[DUEL] Epoch ended. INSTR misses = 0, DATA misses = 0. Winner = INSTR
[DUEL] Epoch ended. INSTR misses = 0, DATA misses = 0. Winner = INSTR
[DUEL] Epoch ended. INSTR misses = 0, DATA misses = 0. Winner = INSTR
[DUEL] Epoch ended. INSTR misses = 0, DATA misses = 0. Winner = INSTR
[DUEL] Epoch ended. INSTR misses = 0, DATA misses = 0. Winner = INSTR
[DUEL] Epoch ended. INSTR misses = 16, DATA misses = 3. Winner = DATA
[DUEL] Epoch ended. INSTR misses = 0, DATA misses = 0. Winner = INSTR
Heartbeat CPU 0 instructions: 20000001 cycles: 3446957 heartbeat IPC: 5.8 cumulative IPC: 5.802 (Simulation time: 00 hr 00 min 54 sec)
[DUEL] Epoch ended. INSTR misses = 0, DATA misses = 0. Winner = INSTR
[DUEL] Epoch ended. INSTR misses = 0, DATA misses = 0. Winner = INSTR
[DUEL] Epoch ended. INSTR misses = 0, DATA misses = 0. Winner = INSTR
[DUEL] Epoch ended. INSTR misses = 0, DATA misses = 0. Winner = INSTR
[DUEL] Epoch ended. INSTR misses = 0, DATA misses = 0. Winner = INSTR
[DUEL] Epoch ended. INSTR misses = 0, DATA misses = 0. Winner = INSTR
[DUEL] Epoch ended. INSTR misses = 0, DATA misses = 2. Winner = INSTR
[DUEL] Epoch ended. INSTR misses = 0, DATA misses = 0. Winner = INSTR
[DUEL] Epoch ended. INSTR misses = 0, DATA misses = 0. Winner = INSTR
[DUEL] Epoch ended. INSTR misses = 0, DATA misses = 0. Winner = INSTR
[DUEL] Epoch ended. INSTR misses = 0, DATA misses = 0. Winner = INSTR
[DUEL] Epoch ended. INSTR misses = 0, DATA misses = 0. Winner = INSTR
[DUEL] Epoch ended. INSTR misses = 0, DATA misses = 0. Winner = INSTR
[DUEL] Epoch ended. INSTR misses = 0, DATA misses = 0. Winner = INSTR
[DUEL] Epoch ended. INSTR misses = 0, DATA misses = 0. Winner = INSTR
[DUEL] Epoch ended. INSTR misses = 9, DATA misses = 0. Winner = DATA
[DUEL] Epoch ended. INSTR misses = 2, DATA misses = 0. Winner = DATA
[DUEL] Epoch ended. INSTR misses = 0, DATA misses = 0. Winner = INSTR
[DUEL] Epoch ended. INSTR misses = 1, DATA misses = 0. Winner = DATA
[DUEL] Epoch ended. INSTR misses = 0, DATA misses = 16. Winner = INSTR
[DUEL] Epoch ended. INSTR misses = 0, DATA misses = 0. Winner = INSTR
[DUEL] Epoch ended. INSTR misses = 0, DATA misses = 18. Winner = INSTR
[DUEL] Epoch ended. INSTR misses = 0, DATA misses = 0. Winner = INSTR
[DUEL] Epoch ended. INSTR misses = 0, DATA misses = 0. Winner = INSTR
[DUEL] Epoch ended. INSTR misses = 0, DATA misses = 0. Winner = INSTR
[DUEL] Epoch ended. INSTR misses = 0, DATA misses = 0. Winner = INSTR
[DUEL] Epoch ended. INSTR misses = 0, DATA misses = 0. Winner = INSTR
[DUEL] Epoch ended. INSTR misses = 0, DATA misses = 0. Winner = INSTR
[DUEL] Epoch ended. INSTR misses = 1, DATA misses = 1. Winner = INSTR
[DUEL] Epoch ended. INSTR misses = 0, DATA misses = 0. Winner = INSTR
[DUEL] Epoch ended. INSTR misses = 0, DATA misses = 0. Winner = INSTR
[DUEL] Epoch ended. INSTR misses = 0, DATA misses = 0. Winner = INSTR
[DUEL] Epoch ended. INSTR misses = 0, DATA misses = 1. Winner = INSTR
[DUEL] Epoch ended. INSTR misses = 0, DATA misses = 0. Winner = INSTR
[DUEL] Epoch ended. INSTR misses = 0, DATA misses = 0. Winner = INSTR
[DUEL] Epoch ended. INSTR misses = 0, DATA misses = 0. Winner = INSTR
[DUEL] Epoch ended. INSTR misses = 0, DATA misses = 0. Winner = INSTR
[DUEL] Epoch ended. INSTR misses = 1, DATA misses = 1. Winner = INSTR
Heartbeat CPU 0 instructions: 30000000 cycles: 5170687 heartbeat IPC: 5.801 cumulative IPC: 5.802 (Simulation time: 00 hr 01 min 22 sec)
Warmup finished CPU 0 instructions: 30000000 cycles: 5170688 cumulative IPC: 5.802 (Simulation time: 00 hr 01 min 22 sec)
Warmup complete CPU 0 instructions: 30000000 cycles: 5170688 cumulative IPC: 5.802 (Simulation time: 00 hr 01 min 22 sec)
[DUEL] Epoch ended. INSTR misses = 0, DATA misses = 0. Winner = INSTR
[DUEL] Epoch ended. INSTR misses = 3, DATA misses = 0. Winner = DATA
[DUEL] Epoch ended. INSTR misses = 0, DATA misses = 0. Winner = INSTR
[DUEL] Epoch ended. INSTR misses = 0, DATA misses = 0. Winner = INSTR
[DUEL] Epoch ended. INSTR misses = 0, DATA misses = 0. Winner = INSTR
*** Reached end of trace: (0, "../traces/public_traces/srv/srv_13.champsimtrace.xz")
[DUEL] Epoch ended. INSTR misses = 0, DATA misses = 0. Winner = INSTR
[DUEL] Epoch ended. INSTR misses = 0, DATA misses = 0. Winner = INSTR
[DUEL] Epoch ended. INSTR misses = 0, DATA misses = 0. Winner = INSTR
[DUEL] Epoch ended. INSTR misses = 0, DATA misses = 0. Winner = INSTR
[DUEL] Epoch ended. INSTR misses = 0, DATA misses = 0. Winner = INSTR
[DUEL] Epoch ended. INSTR misses = 0, DATA misses = 0. Winner = INSTR
[DUEL] Epoch ended. INSTR misses = 0, DATA misses = 0. Winner = INSTR
[DUEL] Epoch ended. INSTR misses = 0, DATA misses = 0. Winner = INSTR
[DUEL] Epoch ended. INSTR misses = 0, DATA misses = 0. Winner = INSTR
[DUEL] Epoch ended. INSTR misses = 0, DATA misses = 0. Winner = INSTR
[DUEL] Epoch ended. INSTR misses = 0, DATA misses = 0. Winner = INSTR
[DUEL] Epoch ended. INSTR misses = 0, DATA misses = 0. Winner = INSTR
[DUEL] Epoch ended. INSTR misses = 0, DATA misses = 0. Winner = INSTR
[DUEL] Epoch ended. INSTR misses = 0, DATA misses = 0. Winner = INSTR
[DUEL] Epoch ended. INSTR misses = 0, DATA misses = 0. Winner = INSTR
[DUEL] Epoch ended. INSTR misses = 0, DATA misses = 0. Winner = INSTR
[DUEL] Epoch ended. INSTR misses = 0, DATA misses = 0. Winner = INSTR
[DUEL] Epoch ended. INSTR misses = 0, DATA misses = 0. Winner = INSTR
[DUEL] Epoch ended. INSTR misses = 0, DATA misses = 0. Winner = INSTR
[DUEL] Epoch ended. INSTR misses = 0, DATA misses = 0. Winner = INSTR
[DUEL] Epoch ended. INSTR misses = 0, DATA misses = 0. Winner = INSTR
[DUEL] Epoch ended. INSTR misses = 0, DATA misses = 0. Winner = INSTR
[DUEL] Epoch ended. INSTR misses = 0, DATA misses = 0. Winner = INSTR
[DUEL] Epoch ended. INSTR misses = 0, DATA misses = 0. Winner = INSTR
[DUEL] Epoch ended. INSTR misses = 0, DATA misses = 0. Winner = INSTR
[DUEL] Epoch ended. INSTR misses = 0, DATA misses = 0. Winner = INSTR
[DUEL] Epoch ended. INSTR misses = 0, DATA misses = 0. Winner = INSTR
[DUEL] Epoch ended. INSTR misses = 0, DATA misses = 0. Winner = INSTR
[DUEL] Epoch ended. INSTR misses = 0, DATA misses = 0. Winner = INSTR
[DUEL] Epoch ended. INSTR misses = 0, DATA misses = 0. Winner = INSTR
[DUEL] Epoch ended. INSTR misses = 0, DATA misses = 0. Winner = INSTR
[DUEL] Epoch ended. INSTR misses = 0, DATA misses = 0. Winner = INSTR
[DUEL] Epoch ended. INSTR misses = 0, DATA misses = 0. Winner = INSTR
[DUEL] Epoch ended. INSTR misses = 0, DATA misses = 0. Winner = INSTR
Heartbeat CPU 0 instructions: 40000006 cycles: 8800882 heartbeat IPC: 2.755 cumulative IPC: 2.755 (Simulation time: 00 hr 02 min 00 sec)
[DUEL] Epoch ended. INSTR misses = 0, DATA misses = 0. Winner = INSTR
[DUEL] Epoch ended. INSTR misses = 0, DATA misses = 0. Winner = INSTR
[DUEL] Epoch ended. INSTR misses = 0, DATA misses = 0. Winner = INSTR
[DUEL] Epoch ended. INSTR misses = 0, DATA misses = 0. Winner = INSTR
[DUEL] Epoch ended. INSTR misses = 0, DATA misses = 0. Winner = INSTR
[DUEL] Epoch ended. INSTR misses = 0, DATA misses = 0. Winner = INSTR
[DUEL] Epoch ended. INSTR misses = 0, DATA misses = 0. Winner = INSTR
[DUEL] Epoch ended. INSTR misses = 0, DATA misses = 0. Winner = INSTR
[DUEL] Epoch ended. INSTR misses = 0, DATA misses = 0. Winner = INSTR
[DUEL] Epoch ended. INSTR misses = 0, DATA misses = 0. Winner = INSTR
[DUEL] Epoch ended. INSTR misses = 0, DATA misses = 0. Winner = INSTR
[DUEL] Epoch ended. INSTR misses = 0, DATA misses = 0. Winner = INSTR
[DUEL] Epoch ended. INSTR misses = 0, DATA misses = 0. Winner = INSTR
[DUEL] Epoch ended. INSTR misses = 0, DATA misses = 0. Winner = INSTR
[DUEL] Epoch ended. INSTR misses = 0, DATA misses = 0. Winner = INSTR
[DUEL] Epoch ended. INSTR misses = 0, DATA misses = 0. Winner = INSTR
[DUEL] Epoch ended. INSTR misses = 0, DATA misses = 0. Winner = INSTR
[DUEL] Epoch ended. INSTR misses = 0, DATA misses = 0. Winner = INSTR
[DUEL] Epoch ended. INSTR misses = 0, DATA misses = 0. Winner = INSTR
[DUEL] Epoch ended. INSTR misses = 0, DATA misses = 0. Winner = INSTR
[DUEL] Epoch ended. INSTR misses = 0, DATA misses = 0. Winner = INSTR
[DUEL] Epoch ended. INSTR misses = 0, DATA misses = 0. Winner = INSTR
[DUEL] Epoch ended. INSTR misses = 0, DATA misses = 0. Winner = INSTR
[DUEL] Epoch ended. INSTR misses = 0, DATA misses = 0. Winner = INSTR
[DUEL] Epoch ended. INSTR misses = 0, DATA misses = 0. Winner = INSTR
[DUEL] Epoch ended. INSTR misses = 0, DATA misses = 0. Winner = INSTR
[DUEL] Epoch ended. INSTR misses = 0, DATA misses = 0. Winner = INSTR
[DUEL] Epoch ended. INSTR misses = 0, DATA misses = 0. Winner = INSTR
[DUEL] Epoch ended. INSTR misses = 0, DATA misses = 0. Winner = INSTR
[DUEL] Epoch ended. INSTR misses = 0, DATA misses = 0. Winner = INSTR
[DUEL] Epoch ended. INSTR misses = 0, DATA misses = 0. Winner = INSTR
[DUEL] Epoch ended. INSTR misses = 0, DATA misses = 0. Winner = INSTR
[DUEL] Epoch ended. INSTR misses = 0, DATA misses = 0. Winner = INSTR
[DUEL] Epoch ended. INSTR misses = 0, DATA misses = 0. Winner = INSTR
[DUEL] Epoch ended. INSTR misses = 0, DATA misses = 0. Winner = INSTR
[DUEL] Epoch ended. INSTR misses = 0, DATA misses = 0. Winner = INSTR
[DUEL] Epoch ended. INSTR misses = 0, DATA misses = 0. Winner = INSTR
Heartbeat CPU 0 instructions: 50000009 cycles: 12535821 heartbeat IPC: 2.677 cumulative IPC: 2.715 (Simulation time: 00 hr 02 min 39 sec)
[DUEL] Epoch ended. INSTR misses = 0, DATA misses = 0. Winner = INSTR
[DUEL] Epoch ended. INSTR misses = 0, DATA misses = 0. Winner = INSTR
[DUEL] Epoch ended. INSTR misses = 0, DATA misses = 0. Winner = INSTR
[DUEL] Epoch ended. INSTR misses = 0, DATA misses = 0. Winner = INSTR
[DUEL] Epoch ended. INSTR misses = 0, DATA misses = 0. Winner = INSTR
[DUEL] Epoch ended. INSTR misses = 0, DATA misses = 0. Winner = INSTR
[DUEL] Epoch ended. INSTR misses = 0, DATA misses = 0. Winner = INSTR
[DUEL] Epoch ended. INSTR misses = 0, DATA misses = 0. Winner = INSTR
[DUEL] Epoch ended. INSTR misses = 0, DATA misses = 0. Winner = INSTR
[DUEL] Epoch ended. INSTR misses = 0, DATA misses = 0. Winner = INSTR
[DUEL] Epoch ended. INSTR misses = 0, DATA misses = 0. Winner = INSTR
[DUEL] Epoch ended. INSTR misses = 0, DATA misses = 0. Winner = INSTR
[DUEL] Epoch ended. INSTR misses = 0, DATA misses = 0. Winner = INSTR
[DUEL] Epoch ended. INSTR misses = 0, DATA misses = 0. Winner = INSTR
[DUEL] Epoch ended. INSTR misses = 0, DATA misses = 0. Winner = INSTR
[DUEL] Epoch ended. INSTR misses = 0, DATA misses = 0. Winner = INSTR
[DUEL] Epoch ended. INSTR misses = 0, DATA misses = 0. Winner = INSTR
[DUEL] Epoch ended. INSTR misses = 0, DATA misses = 0. Winner = INSTR
[DUEL] Epoch ended. INSTR misses = 0, DATA misses = 0. Winner = INSTR
[DUEL] Epoch ended. INSTR misses = 0, DATA misses = 0. Winner = INSTR
[DUEL] Epoch ended. INSTR misses = 0, DATA misses = 0. Winner = INSTR
[DUEL] Epoch ended. INSTR misses = 0, DATA misses = 0. Winner = INSTR
[DUEL] Epoch ended. INSTR misses = 0, DATA misses = 0. Winner = INSTR
[DUEL] Epoch ended. INSTR misses = 0, DATA misses = 0. Winner = INSTR
[DUEL] Epoch ended. INSTR misses = 0, DATA misses = 0. Winner = INSTR
[DUEL] Epoch ended. INSTR misses = 0, DATA misses = 1. Winner = INSTR
[DUEL] Epoch ended. INSTR misses = 0, DATA misses = 0. Winner = INSTR
[DUEL] Epoch ended. INSTR misses = 0, DATA misses = 0. Winner = INSTR
[DUEL] Epoch ended. INSTR misses = 0, DATA misses = 0. Winner = INSTR
[DUEL] Epoch ended. INSTR misses = 0, DATA misses = 0. Winner = INSTR
[DUEL] Epoch ended. INSTR misses = 0, DATA misses = 0. Winner = INSTR
[DUEL] Epoch ended. INSTR misses = 0, DATA misses = 0. Winner = INSTR
[DUEL] Epoch ended. INSTR misses = 0, DATA misses = 0. Winner = INSTR
[DUEL] Epoch ended. INSTR misses = 0, DATA misses = 0. Winner = INSTR
[DUEL] Epoch ended. INSTR misses = 0, DATA misses = 0. Winner = INSTR
[DUEL] Epoch ended. INSTR misses = 0, DATA misses = 0. Winner = INSTR
[DUEL] Epoch ended. INSTR misses = 0, DATA misses = 0. Winner = INSTR
[DUEL] Epoch ended. INSTR misses = 0, DATA misses = 0. Winner = INSTR
Heartbeat CPU 0 instructions: 60000000 cycles: 16295378 heartbeat IPC: 2.66 cumulative IPC: 2.697 (Simulation time: 00 hr 03 min 17 sec)
[DUEL] Epoch ended. INSTR misses = 0, DATA misses = 0. Winner = INSTR
[DUEL] Epoch ended. INSTR misses = 0, DATA misses = 0. Winner = INSTR
[DUEL] Epoch ended. INSTR misses = 0, DATA misses = 0. Winner = INSTR
[DUEL] Epoch ended. INSTR misses = 0, DATA misses = 0. Winner = INSTR
[DUEL] Epoch ended. INSTR misses = 0, DATA misses = 0. Winner = INSTR
[DUEL] Epoch ended. INSTR misses = 0, DATA misses = 0. Winner = INSTR
[DUEL] Epoch ended. INSTR misses = 0, DATA misses = 0. Winner = INSTR
[DUEL] Epoch ended. INSTR misses = 0, DATA misses = 0. Winner = INSTR
[DUEL] Epoch ended. INSTR misses = 0, DATA misses = 0. Winner = INSTR
*** Reached end of trace: (0, "../traces/public_traces/srv/srv_13.champsimtrace.xz")
[DUEL] Epoch ended. INSTR misses = 0, DATA misses = 0. Winner = INSTR
[DUEL] Epoch ended. INSTR misses = 0, DATA misses = 0. Winner = INSTR
[DUEL] Epoch ended. INSTR misses = 0, DATA misses = 0. Winner = INSTR
[DUEL] Epoch ended. INSTR misses = 0, DATA misses = 0. Winner = INSTR
[DUEL] Epoch ended. INSTR misses = 0, DATA misses = 0. Winner = INSTR
[DUEL] Epoch ended. INSTR misses = 0, DATA misses = 0. Winner = INSTR
[DUEL] Epoch ended. INSTR misses = 0, DATA misses = 0. Winner = INSTR
[DUEL] Epoch ended. INSTR misses = 0, DATA misses = 0. Winner = INSTR
[DUEL] Epoch ended. INSTR misses = 0, DATA misses = 0. Winner = INSTR
[DUEL] Epoch ended. INSTR misses = 0, DATA misses = 0. Winner = INSTR
[DUEL] Epoch ended. INSTR misses = 0, DATA misses = 0. Winner = INSTR
[DUEL] Epoch ended. INSTR misses = 0, DATA misses = 0. Winner = INSTR
[DUEL] Epoch ended. INSTR misses = 0, DATA misses = 0. Winner = INSTR
[DUEL] Epoch ended. INSTR misses = 0, DATA misses = 0. Winner = INSTR
[DUEL] Epoch ended. INSTR misses = 0, DATA misses = 0. Winner = INSTR
[DUEL] Epoch ended. INSTR misses = 0, DATA misses = 0. Winner = INSTR
[DUEL] Epoch ended. INSTR misses = 0, DATA misses = 0. Winner = INSTR
[DUEL] Epoch ended. INSTR misses = 0, DATA misses = 0. Winner = INSTR
[DUEL] Epoch ended. INSTR misses = 0, DATA misses = 0. Winner = INSTR
[DUEL] Epoch ended. INSTR misses = 0, DATA misses = 0. Winner = INSTR
[DUEL] Epoch ended. INSTR misses = 0, DATA misses = 0. Winner = INSTR
[DUEL] Epoch ended. INSTR misses = 0, DATA misses = 0. Winner = INSTR
[DUEL] Epoch ended. INSTR misses = 0, DATA misses = 0. Winner = INSTR
[DUEL] Epoch ended. INSTR misses = 0, DATA misses = 0. Winner = INSTR
[DUEL] Epoch ended. INSTR misses = 0, DATA misses = 0. Winner = INSTR
[DUEL] Epoch ended. INSTR misses = 0, DATA misses = 0. Winner = INSTR
[DUEL] Epoch ended. INSTR misses = 0, DATA misses = 0. Winner = INSTR
[DUEL] Epoch ended. INSTR misses = 0, DATA misses = 0. Winner = INSTR
[DUEL] Epoch ended. INSTR misses = 0, DATA misses = 0. Winner = INSTR
Heartbeat CPU 0 instructions: 70000000 cycles: 19857311 heartbeat IPC: 2.807 cumulative IPC: 2.724 (Simulation time: 00 hr 03 min 55 sec)
[DUEL] Epoch ended. INSTR misses = 0, DATA misses = 0. Winner = INSTR
[DUEL] Epoch ended. INSTR misses = 0, DATA misses = 0. Winner = INSTR
[DUEL] Epoch ended. INSTR misses = 0, DATA misses = 0. Winner = INSTR
[DUEL] Epoch ended. INSTR misses = 0, DATA misses = 0. Winner = INSTR
[DUEL] Epoch ended. INSTR misses = 0, DATA misses = 0. Winner = INSTR
[DUEL] Epoch ended. INSTR misses = 0, DATA misses = 0. Winner = INSTR
[DUEL] Epoch ended. INSTR misses = 0, DATA misses = 0. Winner = INSTR
[DUEL] Epoch ended. INSTR misses = 0, DATA misses = 0. Winner = INSTR
[DUEL] Epoch ended. INSTR misses = 0, DATA misses = 0. Winner = INSTR
[DUEL] Epoch ended. INSTR misses = 0, DATA misses = 0. Winner = INSTR
[DUEL] Epoch ended. INSTR misses = 0, DATA misses = 0. Winner = INSTR
[DUEL] Epoch ended. INSTR misses = 0, DATA misses = 0. Winner = INSTR
[DUEL] Epoch ended. INSTR misses = 0, DATA misses = 0. Winner = INSTR
[DUEL] Epoch ended. INSTR misses = 0, DATA misses = 0. Winner = INSTR
[DUEL] Epoch ended. INSTR misses = 0, DATA misses = 0. Winner = INSTR
[DUEL] Epoch ended. INSTR misses = 0, DATA misses = 0. Winner = INSTR
[DUEL] Epoch ended. INSTR misses = 0, DATA misses = 0. Winner = INSTR
[DUEL] Epoch ended. INSTR misses = 0, DATA misses = 0. Winner = INSTR
[DUEL] Epoch ended. INSTR misses = 0, DATA misses = 0. Winner = INSTR
[DUEL] Epoch ended. INSTR misses = 0, DATA misses = 0. Winner = INSTR
[DUEL] Epoch ended. INSTR misses = 0, DATA misses = 0. Winner = INSTR
[DUEL] Epoch ended. INSTR misses = 0, DATA misses = 0. Winner = INSTR
[DUEL] Epoch ended. INSTR misses = 0, DATA misses = 0. Winner = INSTR
[DUEL] Epoch ended. INSTR misses = 0, DATA misses = 0. Winner = INSTR
[DUEL] Epoch ended. INSTR misses = 0, DATA misses = 0. Winner = INSTR
[DUEL] Epoch ended. INSTR misses = 0, DATA misses = 0. Winner = INSTR
[DUEL] Epoch ended. INSTR misses = 0, DATA misses = 0. Winner = INSTR
[DUEL] Epoch ended. INSTR misses = 0, DATA misses = 0. Winner = INSTR
[DUEL] Epoch ended. INSTR misses = 0, DATA misses = 0. Winner = INSTR
[DUEL] Epoch ended. INSTR misses = 0, DATA misses = 0. Winner = INSTR
[DUEL] Epoch ended. INSTR misses = 0, DATA misses = 0. Winner = INSTR
[DUEL] Epoch ended. INSTR misses = 0, DATA misses = 0. Winner = INSTR
[DUEL] Epoch ended. INSTR misses = 0, DATA misses = 0. Winner = INSTR
[DUEL] Epoch ended. INSTR misses = 0, DATA misses = 0. Winner = INSTR
[DUEL] Epoch ended. INSTR misses = 0, DATA misses = 0. Winner = INSTR
[DUEL] Epoch ended. INSTR misses = 0, DATA misses = 0. Winner = INSTR
[DUEL] Epoch ended. INSTR misses = 0, DATA misses = 0. Winner = INSTR
[DUEL] Epoch ended. INSTR misses = 0, DATA misses = 0. Winner = INSTR
[DUEL] Epoch ended. INSTR misses = 0, DATA misses = 0. Winner = INSTR
Heartbeat CPU 0 instructions: 80000002 cycles: 23556535 heartbeat IPC: 2.703 cumulative IPC: 2.719 (Simulation time: 00 hr 04 min 33 sec)
[DUEL] Epoch ended. INSTR misses = 0, DATA misses = 0. Winner = INSTR
[DUEL] Epoch ended. INSTR misses = 0, DATA misses = 0. Winner = INSTR
[DUEL] Epoch ended. INSTR misses = 0, DATA misses = 0. Winner = INSTR
[DUEL] Epoch ended. INSTR misses = 0, DATA misses = 0. Winner = INSTR
[DUEL] Epoch ended. INSTR misses = 0, DATA misses = 0. Winner = INSTR
[DUEL] Epoch ended. INSTR misses = 0, DATA misses = 0. Winner = INSTR
[DUEL] Epoch ended. INSTR misses = 0, DATA misses = 0. Winner = INSTR
[DUEL] Epoch ended. INSTR misses = 0, DATA misses = 0. Winner = INSTR
[DUEL] Epoch ended. INSTR misses = 0, DATA misses = 0. Winner = INSTR
[DUEL] Epoch ended. INSTR misses = 0, DATA misses = 0. Winner = INSTR
[DUEL] Epoch ended. INSTR misses = 0, DATA misses = 0. Winner = INSTR
[DUEL] Epoch ended. INSTR misses = 0, DATA misses = 0. Winner = INSTR
[DUEL] Epoch ended. INSTR misses = 0, DATA misses = 0. Winner = INSTR
[DUEL] Epoch ended. INSTR misses = 0, DATA misses = 0. Winner = INSTR
[DUEL] Epoch ended. INSTR misses = 0, DATA misses = 0. Winner = INSTR
[DUEL] Epoch ended. INSTR misses = 0, DATA misses = 0. Winner = INSTR
[DUEL] Epoch ended. INSTR misses = 0, DATA misses = 0. Winner = INSTR
[DUEL] Epoch ended. INSTR misses = 0, DATA misses = 0. Winner = INSTR
[DUEL] Epoch ended. INSTR misses = 0, DATA misses = 0. Winner = INSTR
[DUEL] Epoch ended. INSTR misses = 0, DATA misses = 0. Winner = INSTR
[DUEL] Epoch ended. INSTR misses = 0, DATA misses = 0. Winner = INSTR
[DUEL] Epoch ended. INSTR misses = 0, DATA misses = 0. Winner = INSTR
[DUEL] Epoch ended. INSTR misses = 0, DATA misses = 0. Winner = INSTR
[DUEL] Epoch ended. INSTR misses = 0, DATA misses = 0. Winner = INSTR
[DUEL] Epoch ended. INSTR misses = 0, DATA misses = 0. Winner = INSTR
[DUEL] Epoch ended. INSTR misses = 0, DATA misses = 0. Winner = INSTR
[DUEL] Epoch ended. INSTR misses = 0, DATA misses = 0. Winner = INSTR
[DUEL] Epoch ended. INSTR misses = 0, DATA misses = 0. Winner = INSTR
[DUEL] Epoch ended. INSTR misses = 0, DATA misses = 0. Winner = INSTR
[DUEL] Epoch ended. INSTR misses = 0, DATA misses = 0. Winner = INSTR
[DUEL] Epoch ended. INSTR misses = 0, DATA misses = 0. Winner = INSTR
[DUEL] Epoch ended. INSTR misses = 0, DATA misses = 0. Winner = INSTR
[DUEL] Epoch ended. INSTR misses = 0, DATA misses = 0. Winner = INSTR
[DUEL] Epoch ended. INSTR misses = 0, DATA misses = 0. Winner = INSTR
[DUEL] Epoch ended. INSTR misses = 0, DATA misses = 0. Winner = INSTR
[DUEL] Epoch ended. INSTR misses = 0, DATA misses = 0. Winner = INSTR
[DUEL] Epoch ended. INSTR misses = 0, DATA misses = 0. Winner = INSTR
[DUEL] Epoch ended. INSTR misses = 0, DATA misses = 0. Winner = INSTR
Heartbeat CPU 0 instructions: 90000002 cycles: 27317738 heartbeat IPC: 2.659 cumulative IPC: 2.709 (Simulation time: 00 hr 05 min 12 sec)
[DUEL] Epoch ended. INSTR misses = 0, DATA misses = 0. Winner = INSTR
[DUEL] Epoch ended. INSTR misses = 0, DATA misses = 0. Winner = INSTR
[DUEL] Epoch ended. INSTR misses = 0, DATA misses = 0. Winner = INSTR
[DUEL] Epoch ended. INSTR misses = 0, DATA misses = 0. Winner = INSTR
[DUEL] Epoch ended. INSTR misses = 0, DATA misses = 0. Winner = INSTR
[DUEL] Epoch ended. INSTR misses = 0, DATA misses = 0. Winner = INSTR
[DUEL] Epoch ended. INSTR misses = 0, DATA misses = 0. Winner = INSTR
[DUEL] Epoch ended. INSTR misses = 0, DATA misses = 0. Winner = INSTR
[DUEL] Epoch ended. INSTR misses = 0, DATA misses = 0. Winner = INSTR
[DUEL] Epoch ended. INSTR misses = 0, DATA misses = 0. Winner = INSTR
[DUEL] Epoch ended. INSTR misses = 0, DATA misses = 0. Winner = INSTR
[DUEL] Epoch ended. INSTR misses = 0, DATA misses = 0. Winner = INSTR
*** Reached end of trace: (0, "../traces/public_traces/srv/srv_13.champsimtrace.xz")
[DUEL] Epoch ended. INSTR misses = 0, DATA misses = 0. Winner = INSTR
[DUEL] Epoch ended. INSTR misses = 0, DATA misses = 0. Winner = INSTR
[DUEL] Epoch ended. INSTR misses = 0, DATA misses = 0. Winner = INSTR
[DUEL] Epoch ended. INSTR misses = 0, DATA misses = 0. Winner = INSTR
[DUEL] Epoch ended. INSTR misses = 0, DATA misses = 0. Winner = INSTR
[DUEL] Epoch ended. INSTR misses = 0, DATA misses = 0. Winner = INSTR
[DUEL] Epoch ended. INSTR misses = 0, DATA misses = 0. Winner = INSTR
[DUEL] Epoch ended. INSTR misses = 0, DATA misses = 0. Winner = INSTR
[DUEL] Epoch ended. INSTR misses = 0, DATA misses = 0. Winner = INSTR
[DUEL] Epoch ended. INSTR misses = 0, DATA misses = 0. Winner = INSTR
[DUEL] Epoch ended. INSTR misses = 0, DATA misses = 0. Winner = INSTR
[DUEL] Epoch ended. INSTR misses = 0, DATA misses = 0. Winner = INSTR
[DUEL] Epoch ended. INSTR misses = 0, DATA misses = 0. Winner = INSTR
[DUEL] Epoch ended. INSTR misses = 0, DATA misses = 0. Winner = INSTR
[DUEL] Epoch ended. INSTR misses = 0, DATA misses = 0. Winner = INSTR
[DUEL] Epoch ended. INSTR misses = 0, DATA misses = 0. Winner = INSTR
[DUEL] Epoch ended. INSTR misses = 0, DATA misses = 0. Winner = INSTR
[DUEL] Epoch ended. INSTR misses = 0, DATA misses = 0. Winner = INSTR
[DUEL] Epoch ended. INSTR misses = 0, DATA misses = 0. Winner = INSTR
[DUEL] Epoch ended. INSTR misses = 0, DATA misses = 0. Winner = INSTR
[DUEL] Epoch ended. INSTR misses = 0, DATA misses = 0. Winner = INSTR
[DUEL] Epoch ended. INSTR misses = 0, DATA misses = 0. Winner = INSTR
[DUEL] Epoch ended. INSTR misses = 0, DATA misses = 0. Winner = INSTR
[DUEL] Epoch ended. INSTR misses = 0, DATA misses = 0. Winner = INSTR
[DUEL] Epoch ended. INSTR misses = 0, DATA misses = 0. Winner = INSTR
Heartbeat CPU 0 instructions: 100000000 cycles: 30906454 heartbeat IPC: 2.787 cumulative IPC: 2.72 (Simulation time: 00 hr 05 min 50 sec)
[DUEL] Epoch ended. INSTR misses = 0, DATA misses = 0. Winner = INSTR
[DUEL] Epoch ended. INSTR misses = 0, DATA misses = 0. Winner = INSTR
[DUEL] Epoch ended. INSTR misses = 0, DATA misses = 0. Winner = INSTR
[DUEL] Epoch ended. INSTR misses = 0, DATA misses = 0. Winner = INSTR
[DUEL] Epoch ended. INSTR misses = 0, DATA misses = 0. Winner = INSTR
[DUEL] Epoch ended. INSTR misses = 0, DATA misses = 0. Winner = INSTR
[DUEL] Epoch ended. INSTR misses = 0, DATA misses = 0. Winner = INSTR
[DUEL] Epoch ended. INSTR misses = 0, DATA misses = 0. Winner = INSTR
[DUEL] Epoch ended. INSTR misses = 0, DATA misses = 0. Winner = INSTR
[DUEL] Epoch ended. INSTR misses = 0, DATA misses = 0. Winner = INSTR
[DUEL] Epoch ended. INSTR misses = 0, DATA misses = 0. Winner = INSTR
[DUEL] Epoch ended. INSTR misses = 0, DATA misses = 0. Winner = INSTR
[DUEL] Epoch ended. INSTR misses = 0, DATA misses = 0. Winner = INSTR
[DUEL] Epoch ended. INSTR misses = 0, DATA misses = 0. Winner = INSTR
[DUEL] Epoch ended. INSTR misses = 0, DATA misses = 0. Winner = INSTR
[DUEL] Epoch ended. INSTR misses = 0, DATA misses = 0. Winner = INSTR
[DUEL] Epoch ended. INSTR misses = 0, DATA misses = 0. Winner = INSTR
[DUEL] Epoch ended. INSTR misses = 0, DATA misses = 0. Winner = INSTR
[DUEL] Epoch ended. INSTR misses = 0, DATA misses = 0. Winner = INSTR
[DUEL] Epoch ended. INSTR misses = 0, DATA misses = 0. Winner = INSTR
[DUEL] Epoch ended. INSTR misses = 0, DATA misses = 0. Winner = INSTR
[DUEL] Epoch ended. INSTR misses = 0, DATA misses = 0. Winner = INSTR
[DUEL] Epoch ended. INSTR misses = 0, DATA misses = 0. Winner = INSTR
[DUEL] Epoch ended. INSTR misses = 0, DATA misses = 0. Winner = INSTR
[DUEL] Epoch ended. INSTR misses = 0, DATA misses = 0. Winner = INSTR
[DUEL] Epoch ended. INSTR misses = 0, DATA misses = 0. Winner = INSTR
[DUEL] Epoch ended. INSTR misses = 0, DATA misses = 0. Winner = INSTR
[DUEL] Epoch ended. INSTR misses = 0, DATA misses = 0. Winner = INSTR
[DUEL] Epoch ended. INSTR misses = 0, DATA misses = 0. Winner = INSTR
[DUEL] Epoch ended. INSTR misses = 0, DATA misses = 0. Winner = INSTR
[DUEL] Epoch ended. INSTR misses = 0, DATA misses = 0. Winner = INSTR
[DUEL] Epoch ended. INSTR misses = 0, DATA misses = 0. Winner = INSTR
[DUEL] Epoch ended. INSTR misses = 0, DATA misses = 0. Winner = INSTR
[DUEL] Epoch ended. INSTR misses = 0, DATA misses = 0. Winner = INSTR
[DUEL] Epoch ended. INSTR misses = 0, DATA misses = 0. Winner = INSTR
[DUEL] Epoch ended. INSTR misses = 0, DATA misses = 0. Winner = INSTR
[DUEL] Epoch ended. INSTR misses = 0, DATA misses = 0. Winner = INSTR
[DUEL] Epoch ended. INSTR misses = 0, DATA misses = 0. Winner = INSTR
Heartbeat CPU 0 instructions: 110000000 cycles: 34524183 heartbeat IPC: 2.764 cumulative IPC: 2.725 (Simulation time: 00 hr 06 min 28 sec)
[DUEL] Epoch ended. INSTR misses = 0, DATA misses = 0. Winner = INSTR
[DUEL] Epoch ended. INSTR misses = 0, DATA misses = 0. Winner = INSTR
[DUEL] Epoch ended. INSTR misses = 0, DATA misses = 0. Winner = INSTR
[DUEL] Epoch ended. INSTR misses = 0, DATA misses = 0. Winner = INSTR
[DUEL] Epoch ended. INSTR misses = 0, DATA misses = 0. Winner = INSTR
[DUEL] Epoch ended. INSTR misses = 0, DATA misses = 0. Winner = INSTR
[DUEL] Epoch ended. INSTR misses = 0, DATA misses = 0. Winner = INSTR
[DUEL] Epoch ended. INSTR misses = 0, DATA misses = 0. Winner = INSTR
[DUEL] Epoch ended. INSTR misses = 0, DATA misses = 0. Winner = INSTR
[DUEL] Epoch ended. INSTR misses = 0, DATA misses = 0. Winner = INSTR
[DUEL] Epoch ended. INSTR misses = 0, DATA misses = 0. Winner = INSTR
[DUEL] Epoch ended. INSTR misses = 0, DATA misses = 0. Winner = INSTR
[DUEL] Epoch ended. INSTR misses = 0, DATA misses = 0. Winner = INSTR
[DUEL] Epoch ended. INSTR misses = 0, DATA misses = 0. Winner = INSTR
[DUEL] Epoch ended. INSTR misses = 0, DATA misses = 0. Winner = INSTR
[DUEL] Epoch ended. INSTR misses = 0, DATA misses = 0. Winner = INSTR
[DUEL] Epoch ended. INSTR misses = 0, DATA misses = 0. Winner = INSTR
[DUEL] Epoch ended. INSTR misses = 0, DATA misses = 0. Winner = INSTR
[DUEL] Epoch ended. INSTR misses = 0, DATA misses = 0. Winner = INSTR
[DUEL] Epoch ended. INSTR misses = 0, DATA misses = 0. Winner = INSTR
[DUEL] Epoch ended. INSTR misses = 0, DATA misses = 0. Winner = INSTR
[DUEL] Epoch ended. INSTR misses = 0, DATA misses = 0. Winner = INSTR
[DUEL] Epoch ended. INSTR misses = 0, DATA misses = 0. Winner = INSTR
[DUEL] Epoch ended. INSTR misses = 0, DATA misses = 0. Winner = INSTR
[DUEL] Epoch ended. INSTR misses = 0, DATA misses = 0. Winner = INSTR
[DUEL] Epoch ended. INSTR misses = 0, DATA misses = 0. Winner = INSTR
[DUEL] Epoch ended. INSTR misses = 0, DATA misses = 0. Winner = INSTR
[DUEL] Epoch ended. INSTR misses = 0, DATA misses = 0. Winner = INSTR
[DUEL] Epoch ended. INSTR misses = 0, DATA misses = 0. Winner = INSTR
[DUEL] Epoch ended. INSTR misses = 0, DATA misses = 0. Winner = INSTR
[DUEL] Epoch ended. INSTR misses = 0, DATA misses = 0. Winner = INSTR
[DUEL] Epoch ended. INSTR misses = 0, DATA misses = 0. Winner = INSTR
[DUEL] Epoch ended. INSTR misses = 0, DATA misses = 0. Winner = INSTR
[DUEL] Epoch ended. INSTR misses = 0, DATA misses = 0. Winner = INSTR
[DUEL] Epoch ended. INSTR misses = 0, DATA misses = 0. Winner = INSTR
[DUEL] Epoch ended. INSTR misses = 0, DATA misses = 0. Winner = INSTR
[DUEL] Epoch ended. INSTR misses = 0, DATA misses = 0. Winner = INSTR
[DUEL] Epoch ended. INSTR misses = 0, DATA misses = 0. Winner = INSTR
Heartbeat CPU 0 instructions: 120000010 cycles: 38313216 heartbeat IPC: 2.639 cumulative IPC: 2.716 (Simulation time: 00 hr 07 min 07 sec)
[DUEL] Epoch ended. INSTR misses = 0, DATA misses = 0. Winner = INSTR
[DUEL] Epoch ended. INSTR misses = 0, DATA misses = 0. Winner = INSTR
[DUEL] Epoch ended. INSTR misses = 0, DATA misses = 0. Winner = INSTR
[DUEL] Epoch ended. INSTR misses = 0, DATA misses = 0. Winner = INSTR
[DUEL] Epoch ended. INSTR misses = 0, DATA misses = 0. Winner = INSTR
[DUEL] Epoch ended. INSTR misses = 0, DATA misses = 0. Winner = INSTR
[DUEL] Epoch ended. INSTR misses = 0, DATA misses = 0. Winner = INSTR
[DUEL] Epoch ended. INSTR misses = 0, DATA misses = 0. Winner = INSTR
[DUEL] Epoch ended. INSTR misses = 0, DATA misses = 0. Winner = INSTR
[DUEL] Epoch ended. INSTR misses = 0, DATA misses = 0. Winner = INSTR
[DUEL] Epoch ended. INSTR misses = 0, DATA misses = 0. Winner = INSTR
[DUEL] Epoch ended. INSTR misses = 0, DATA misses = 0. Winner = INSTR
[DUEL] Epoch ended. INSTR misses = 0, DATA misses = 0. Winner = INSTR
[DUEL] Epoch ended. INSTR misses = 0, DATA misses = 0. Winner = INSTR
[DUEL] Epoch ended. INSTR misses = 0, DATA misses = 0. Winner = INSTR
[DUEL] Epoch ended. INSTR misses = 0, DATA misses = 0. Winner = INSTR
[DUEL] Epoch ended. INSTR misses = 0, DATA misses = 0. Winner = INSTR
[DUEL] Epoch ended. INSTR misses = 0, DATA misses = 0. Winner = INSTR
*** Reached end of trace: (0, "../traces/public_traces/srv/srv_13.champsimtrace.xz")
[DUEL] Epoch ended. INSTR misses = 0, DATA misses = 0. Winner = INSTR
[DUEL] Epoch ended. INSTR misses = 0, DATA misses = 0. Winner = INSTR
[DUEL] Epoch ended. INSTR misses = 0, DATA misses = 0. Winner = INSTR
[DUEL] Epoch ended. INSTR misses = 0, DATA misses = 0. Winner = INSTR
[DUEL] Epoch ended. INSTR misses = 0, DATA misses = 0. Winner = INSTR
[DUEL] Epoch ended. INSTR misses = 0, DATA misses = 0. Winner = INSTR
[DUEL] Epoch ended. INSTR misses = 0, DATA misses = 0. Winner = INSTR
[DUEL] Epoch ended. INSTR misses = 0, DATA misses = 0. Winner = INSTR
[DUEL] Epoch ended. INSTR misses = 0, DATA misses = 0. Winner = INSTR
[DUEL] Epoch ended. INSTR misses = 0, DATA misses = 0. Winner = INSTR
[DUEL] Epoch ended. INSTR misses = 0, DATA misses = 0. Winner = INSTR
[DUEL] Epoch ended. INSTR misses = 0, DATA misses = 0. Winner = INSTR
[DUEL] Epoch ended. INSTR misses = 0, DATA misses = 0. Winner = INSTR
[DUEL] Epoch ended. INSTR misses = 0, DATA misses = 0. Winner = INSTR
[DUEL] Epoch ended. INSTR misses = 0, DATA misses = 0. Winner = INSTR
[DUEL] Epoch ended. INSTR misses = 0, DATA misses = 0. Winner = INSTR
[DUEL] Epoch ended. INSTR misses = 0, DATA misses = 0. Winner = INSTR
[DUEL] Epoch ended. INSTR misses = 0, DATA misses = 0. Winner = INSTR
[DUEL] Epoch ended. INSTR misses = 0, DATA misses = 0. Winner = INSTR
[DUEL] Epoch ended. INSTR misses = 0, DATA misses = 0. Winner = INSTR
Heartbeat CPU 0 instructions: 130000009 cycles: 41872825 heartbeat IPC: 2.809 cumulative IPC: 2.725 (Simulation time: 00 hr 07 min 45 sec)
Simulation finished CPU 0 instructions: 100000009 cycles: 36702138 cumulative IPC: 2.725 (Simulation time: 00 hr 07 min 45 sec)
Simulation complete CPU 0 instructions: 100000009 cycles: 36702138 cumulative IPC: 2.725 (Simulation time: 00 hr 07 min 45 sec)

ChampSim completed all CPUs

=== Simulation ===
CPU 0 runs ../traces/public_traces/srv/srv_13.champsimtrace.xz
Region of Interest Statistics

CPU 0 cumulative IPC: 2.725 instructions: 100000009 cycles: 36702138
CPU 0 Branch Prediction Accuracy: 93.81% MPKI: 10.92 Average ROB Occupancy at Mispredict: 32.12
Branch type MPKI
BRANCH_DIRECT_JUMP: 0.845
BRANCH_INDIRECT: 4.56
BRANCH_CONDITIONAL: 1.52
BRANCH_DIRECT_CALL: 2.29
BRANCH_INDIRECT_CALL: 0.29
BRANCH_RETURN: 1.41

LLC TOTAL        ACCESS:     152845 HIT:     150669 MISS:       2176
LLC LOAD         ACCESS:      40436 HIT:      39803 MISS:        633
LLC RFO          ACCESS:      38429 HIT:      38073 MISS:        356
LLC PREFETCH     ACCESS:      27908 HIT:      26903 MISS:       1005
LLC WRITE        ACCESS:      45549 HIT:      45474 MISS:         75
LLC TRANSLATION  ACCESS:        523 HIT:        416 MISS:        107
LLC PREFETCH REQUESTED:          0 ISSUED:          0 USEFUL:          0 USELESS:          0
LLC AVERAGE MISS LATENCY: 139 cycles
cpu0_DTLB TOTAL        ACCESS:   19780379 HIT:   18880448 MISS:     899931
cpu0_DTLB LOAD         ACCESS:   19780379 HIT:   18880448 MISS:     899931
cpu0_DTLB RFO          ACCESS:          0 HIT:          0 MISS:          0
cpu0_DTLB PREFETCH     ACCESS:          0 HIT:          0 MISS:          0
cpu0_DTLB WRITE        ACCESS:          0 HIT:          0 MISS:          0
cpu0_DTLB TRANSLATION  ACCESS:          0 HIT:          0 MISS:          0
cpu0_DTLB PREFETCH REQUESTED:          0 ISSUED:          0 USEFUL:          0 USELESS:          0
cpu0_DTLB AVERAGE MISS LATENCY: 4.665 cycles
cpu0_ITLB TOTAL        ACCESS:   19986948 HIT:   19174268 MISS:     812680
cpu0_ITLB LOAD         ACCESS:   19986948 HIT:   19174268 MISS:     812680
cpu0_ITLB RFO          ACCESS:          0 HIT:          0 MISS:          0
cpu0_ITLB PREFETCH     ACCESS:          0 HIT:          0 MISS:          0
cpu0_ITLB WRITE        ACCESS:          0 HIT:          0 MISS:          0
cpu0_ITLB TRANSLATION  ACCESS:          0 HIT:          0 MISS:          0
cpu0_ITLB PREFETCH REQUESTED:          0 ISSUED:          0 USEFUL:          0 USELESS:          0
cpu0_ITLB AVERAGE MISS LATENCY: 3.735 cycles
cpu0_L1D TOTAL        ACCESS:   30408799 HIT:   26765353 MISS:    3643446
cpu0_L1D LOAD         ACCESS:   17213914 HIT:   15229159 MISS:    1984755
cpu0_L1D RFO          ACCESS:          0 HIT:          0 MISS:          0
cpu0_L1D PREFETCH     ACCESS:      74338 HIT:      31913 MISS:      42425
cpu0_L1D WRITE        ACCESS:   13119572 HIT:   11504218 MISS:    1615354
cpu0_L1D TRANSLATION  ACCESS:        975 HIT:         63 MISS:        912
cpu0_L1D PREFETCH REQUESTED:     419587 ISSUED:      74338 USEFUL:       2369 USELESS:        419
cpu0_L1D AVERAGE MISS LATENCY: 5.936 cycles
cpu0_L1I TOTAL        ACCESS:   29181576 HIT:   22551125 MISS:    6630451
cpu0_L1I LOAD         ACCESS:    9574183 HIT:    8196643 MISS:    1377540
cpu0_L1I RFO          ACCESS:          0 HIT:          0 MISS:          0
cpu0_L1I PREFETCH     ACCESS:   19607393 HIT:   14354482 MISS:    5252911
cpu0_L1I WRITE        ACCESS:          0 HIT:          0 MISS:          0
cpu0_L1I TRANSLATION  ACCESS:          0 HIT:          0 MISS:          0
cpu0_L1I PREFETCH REQUESTED:   29592193 ISSUED:   19607393 USEFUL:    4028912 USELESS:    1045570
cpu0_L1I AVERAGE MISS LATENCY: 10.37 cycles
cpu0_L2C TOTAL        ACCESS:   15715664 HIT:   15600127 MISS:     115537
cpu0_L2C LOAD         ACCESS:    2288801 HIT:    2248030 MISS:      40771
cpu0_L2C RFO          ACCESS:     528144 HIT:     489673 MISS:      38471
cpu0_L2C PREFETCH     ACCESS:   11999734 HIT:   11963976 MISS:      35758
cpu0_L2C WRITE        ACCESS:     898075 HIT:     898061 MISS:         14
cpu0_L2C TRANSLATION  ACCESS:        910 HIT:        387 MISS:        523
cpu0_L2C PREFETCH REQUESTED:    7380652 ISSUED:    6907887 USEFUL:       6602 USELESS:      12788
cpu0_L2C AVERAGE MISS LATENCY: 21.27 cycles
cpu0_STLB TOTAL        ACCESS:    1078060 HIT:    1077146 MISS:        914
cpu0_STLB LOAD         ACCESS:    1078060 HIT:    1077146 MISS:        914
cpu0_STLB RFO          ACCESS:          0 HIT:          0 MISS:          0
cpu0_STLB PREFETCH     ACCESS:          0 HIT:          0 MISS:          0
cpu0_STLB WRITE        ACCESS:          0 HIT:          0 MISS:          0
cpu0_STLB TRANSLATION  ACCESS:          0 HIT:          0 MISS:          0
cpu0_STLB PREFETCH REQUESTED:          0 ISSUED:          0 USEFUL:          0 USELESS:          0
cpu0_STLB AVERAGE MISS LATENCY: 56.52 cycles

DRAM Statistics

Channel 0 RQ ROW_BUFFER_HIT:        189
  ROW_BUFFER_MISS:        854
 AVG DBUS CONGESTED CYCLE: 3.429
WQ ROW_BUFFER_HIT: Channel 0 
  ROW_BUFFER_MISS:          2
  FULL:         70

Channel 1 RQ ROW_BUFFER_HIT:        246
  ROW_BUFFER_MISS:        812
 AVG DBUS CONGESTED CYCLE: 3.462
WQ ROW_BUFFER_HIT: Channel 1 
  ROW_BUFFER_MISS:          2
  FULL:         19
BERTI TO_L1: 59080 TO_L2: 678584 TO_L2_BC_MSHR: 294252
BERTI AVG_LAT: 11.8874 NUM_TRACK_LATENCY: 1816165 NUM_CANT_TRACK_LATENCY: 0
BERTI CROSS_PAGE 158064 NO_CROSS_PAGE: 579600
BERTI FOUND_BERTI: 1324932 NO_FOUND_BERTI: 20901723
BERTI AVERAGE_ISSUED: 2.23401
CPU 0 L1I Entangling prefetcher final stats
IP accesses: a3d2 28f480 38897 / 9595110
IP misses: 8fc6 23f180 8062 / 1398467
IP hits: 0 0 0 / 0
IP late: a3d3 28f4c0 2506 / 697866
IP wrong: 70f3 1c3cc0 5075 / 1039806
miss rate: 0.145748
coverage: 0
coverage_late: 0.499023
accuracy: 0
accuracy_late: 0.40161
discarded: 0
evicts entangled j table: 0
evicts entangled k table: 237951
max bb size: 13
formats: 86936 31698 141970 25718 10999 33761 0 
hist_lookups: 72039 107502 117012 124252 114019 96943 80944 65746 51131 37830 29515 22068 15033 8082 3415 0 69 237112 
hist_lookups_evict: 0.00583405 %
hist_lookups_shortlat: 20.0482 %
bb_found_hist: 0 2413631 986886 478366 215562 94238 79311 18369 14909 3774 8694 4680 0 1035 0 0 0 0 0 0 0 0 0 0 0 0 0 0 0 0 0 0 0 0 0 0 0 0 0 0 0 0 0 0 0 0 0 0 0 0 0 0 0 0 0 0 0 0 0 0 0 0 0 0 
bb_found_summary: 8065501 4319455 1.86725
entangled_found_hist: 0 1766715 1199036 1775472 244043 57910 34931 0 
entangled_found_summary: 10966511 5078107 2.15957
bb_ent_found_hist: 0 3442745 1815847 849343 460171 182943 176658 39391 24676 5768 22983 22900 0 6325 0 0 0 0 0 0 0 0 0 0 0 0 0 0 0 0 0 0 0 0 0 0 0 0 0 0 0 0 0 0 0 0 0 0 0 0 0 0 0 0 0 0 0 0 0 0 0 0 0 0 
bb_ent_found_summary: 14526827 7049750 2.06062
