WARNING: physical memory size is smaller than virtual memory size.

*** ChampSim Multicore Out-of-Order Simulator ***
Warmup Instructions: 25000000
Simulation Instructions: 100000000
Number of CPUs: 1
Page size: 4096

[L1D] Demand IPV: 1 2 2 1 4 Prefetch IPV: 1 2 1 1 4
[L1I] Demand IPV: 1 2 2 1 4 Prefetch IPV: 1 2 1 1 4
[L2C] Demand IPV: 1 2 2 1 4 Prefetch IPV: 1 2 1 1 4
[LLC] Demand IPV: 1 2 2 1 4 Prefetch IPV: 1 2 1 1 4
Off-chip DRAM Size: 4 GiB Channels: 1 Width: 64-bit Data Race: 3200 MT/s
Heartbeat CPU 0 instructions: 10000003 cycles: 2518887 heartbeat IPC: 3.97 cumulative IPC: 3.97 (Simulation time: 00 hr 00 min 19 sec)
Heartbeat CPU 0 instructions: 20000001 cycles: 5039849 heartbeat IPC: 3.967 cumulative IPC: 3.968 (Simulation time: 00 hr 00 min 39 sec)
Warmup finished CPU 0 instructions: 25000003 cycles: 6298211 cumulative IPC: 3.969 (Simulation time: 00 hr 00 min 49 sec)
Warmup complete CPU 0 instructions: 25000003 cycles: 6298211 cumulative IPC: 3.969 (Simulation time: 00 hr 00 min 49 sec)
Heartbeat CPU 0 instructions: 30000001 cycles: 9931648 heartbeat IPC: 2.044 cumulative IPC: 1.376 (Simulation time: 00 hr 01 min 06 sec)
*** Reached end of trace: (0, "../traces/public_traces/compute_int/compute_int_6.champsimtrace.xz")
Heartbeat CPU 0 instructions: 40000002 cycles: 17891005 heartbeat IPC: 1.256 cumulative IPC: 1.294 (Simulation time: 00 hr 01 min 43 sec)
Heartbeat CPU 0 instructions: 50000000 cycles: 26033701 heartbeat IPC: 1.228 cumulative IPC: 1.267 (Simulation time: 00 hr 02 min 21 sec)
Heartbeat CPU 0 instructions: 60000003 cycles: 33592614 heartbeat IPC: 1.323 cumulative IPC: 1.282 (Simulation time: 00 hr 02 min 56 sec)
*** Reached end of trace: (0, "../traces/public_traces/compute_int/compute_int_6.champsimtrace.xz")
Heartbeat CPU 0 instructions: 70000000 cycles: 41483173 heartbeat IPC: 1.267 cumulative IPC: 1.279 (Simulation time: 00 hr 03 min 33 sec)
Heartbeat CPU 0 instructions: 80000002 cycles: 49624304 heartbeat IPC: 1.228 cumulative IPC: 1.269 (Simulation time: 00 hr 04 min 11 sec)
Heartbeat CPU 0 instructions: 90000004 cycles: 57263500 heartbeat IPC: 1.309 cumulative IPC: 1.275 (Simulation time: 00 hr 04 min 47 sec)
*** Reached end of trace: (0, "../traces/public_traces/compute_int/compute_int_6.champsimtrace.xz")
Heartbeat CPU 0 instructions: 100000004 cycles: 65063443 heartbeat IPC: 1.282 cumulative IPC: 1.276 (Simulation time: 00 hr 05 min 24 sec)
Heartbeat CPU 0 instructions: 110000002 cycles: 73266464 heartbeat IPC: 1.219 cumulative IPC: 1.269 (Simulation time: 00 hr 06 min 02 sec)
Heartbeat CPU 0 instructions: 120000002 cycles: 80916771 heartbeat IPC: 1.307 cumulative IPC: 1.273 (Simulation time: 00 hr 06 min 38 sec)
*** Reached end of trace: (0, "../traces/public_traces/compute_int/compute_int_6.champsimtrace.xz")
Simulation finished CPU 0 instructions: 100000000 cycles: 78477602 cumulative IPC: 1.274 (Simulation time: 00 hr 06 min 56 sec)
Simulation complete CPU 0 instructions: 100000000 cycles: 78477602 cumulative IPC: 1.274 (Simulation time: 00 hr 06 min 56 sec)

ChampSim completed all CPUs

=== Simulation ===
CPU 0 runs ../traces/public_traces/compute_int/compute_int_6.champsimtrace.xz
Region of Interest Statistics

CPU 0 cumulative IPC: 1.274 instructions: 100000000 cycles: 78477602
CPU 0 Branch Prediction Accuracy: 83.23% MPKI: 32.16 Average ROB Occupancy at Mispredict: 8.363
Branch type MPKI
BRANCH_DIRECT_JUMP: 0.00201
BRANCH_INDIRECT: 17.5
BRANCH_CONDITIONAL: 14.6
BRANCH_DIRECT_CALL: 0.001
BRANCH_INDIRECT_CALL: 0.0762
BRANCH_RETURN: 0.00124

L1D TOTAL        ACCESS:   24180901 HIT:   22581813 MISS:    1599088
L1D LOAD         ACCESS:   17774836 HIT:   16972170 MISS:     802666
L1D RFO          ACCESS:          0 HIT:          0 MISS:          0
L1D PREFETCH     ACCESS:          0 HIT:          0 MISS:          0
L1D WRITE        ACCESS:    6401846 HIT:    5609471 MISS:     792375
L1D TRANSLATION  ACCESS:       4219 HIT:        172 MISS:       4047
L1D PREFETCH REQUESTED:          0 ISSUED:          0 USEFUL:          0 USELESS:          0
L1D AVERAGE MISS LATENCY: 6.368 cycles
L1I TOTAL        ACCESS:    5127265 HIT:    4546056 MISS:     581209
L1I LOAD         ACCESS:    5127265 HIT:    4546056 MISS:     581209
L1I RFO          ACCESS:          0 HIT:          0 MISS:          0
L1I PREFETCH     ACCESS:          0 HIT:          0 MISS:          0
L1I WRITE        ACCESS:          0 HIT:          0 MISS:          0
L1I TRANSLATION  ACCESS:          0 HIT:          0 MISS:          0
L1I PREFETCH REQUESTED:          0 ISSUED:          0 USEFUL:          0 USELESS:          0
L1I AVERAGE MISS LATENCY: 7.946 cycles
L2C TOTAL        ACCESS:    1417859 HIT:    1191493 MISS:     226366
L2C LOAD         ACCESS:     883377 HIT:     741125 MISS:     142252
L2C RFO          ACCESS:     246266 HIT:     172568 MISS:      73698
L2C PREFETCH     ACCESS:          0 HIT:          0 MISS:          0
L2C WRITE        ACCESS:     284169 HIT:     277198 MISS:       6971
L2C TRANSLATION  ACCESS:       4047 HIT:        602 MISS:       3445
L2C PREFETCH REQUESTED:          0 ISSUED:          0 USEFUL:          0 USELESS:          0
L2C AVERAGE MISS LATENCY: 20.44 cycles
LLC TOTAL        ACCESS:     310565 HIT:     309189 MISS:       1376
LLC LOAD         ACCESS:     142252 HIT:     141189 MISS:       1063
LLC RFO          ACCESS:      73698 HIT:      73505 MISS:        193
LLC PREFETCH     ACCESS:          0 HIT:          0 MISS:          0
LLC WRITE        ACCESS:      91170 HIT:      91074 MISS:         96
LLC TRANSLATION  ACCESS:       3445 HIT:       3421 MISS:         24
LLC PREFETCH REQUESTED:          0 ISSUED:          0 USEFUL:          0 USELESS:          0
LLC AVERAGE MISS LATENCY: 166.1 cycles
cpu0_DTLB TOTAL        ACCESS:   20399469 HIT:   20210903 MISS:     188566
cpu0_DTLB LOAD         ACCESS:   20399469 HIT:   20210903 MISS:     188566
cpu0_DTLB RFO          ACCESS:          0 HIT:          0 MISS:          0
cpu0_DTLB PREFETCH     ACCESS:          0 HIT:          0 MISS:          0
cpu0_DTLB WRITE        ACCESS:          0 HIT:          0 MISS:          0
cpu0_DTLB TRANSLATION  ACCESS:          0 HIT:          0 MISS:          0
cpu0_DTLB PREFETCH REQUESTED:          0 ISSUED:          0 USEFUL:          0 USELESS:          0
cpu0_DTLB AVERAGE MISS LATENCY: 4.676 cycles
cpu0_ITLB TOTAL        ACCESS:    4385497 HIT:    4380659 MISS:       4838
cpu0_ITLB LOAD         ACCESS:    4385497 HIT:    4380659 MISS:       4838
cpu0_ITLB RFO          ACCESS:          0 HIT:          0 MISS:          0
cpu0_ITLB PREFETCH     ACCESS:          0 HIT:          0 MISS:          0
cpu0_ITLB WRITE        ACCESS:          0 HIT:          0 MISS:          0
cpu0_ITLB TRANSLATION  ACCESS:          0 HIT:          0 MISS:          0
cpu0_ITLB PREFETCH REQUESTED:          0 ISSUED:          0 USEFUL:          0 USELESS:          0
cpu0_ITLB AVERAGE MISS LATENCY: 4.021 cycles
cpu0_STLB TOTAL        ACCESS:     115982 HIT:     111780 MISS:       4202
cpu0_STLB LOAD         ACCESS:     115982 HIT:     111780 MISS:       4202
cpu0_STLB RFO          ACCESS:          0 HIT:          0 MISS:          0
cpu0_STLB PREFETCH     ACCESS:          0 HIT:          0 MISS:          0
cpu0_STLB WRITE        ACCESS:          0 HIT:          0 MISS:          0
cpu0_STLB TRANSLATION  ACCESS:          0 HIT:          0 MISS:          0
cpu0_STLB PREFETCH REQUESTED:          0 ISSUED:          0 USEFUL:          0 USELESS:          0
cpu0_STLB AVERAGE MISS LATENCY: 37.56 cycles

DRAM Statistics

Channel 0 RQ ROW_BUFFER_HIT:        167
  ROW_BUFFER_MISS:       1113
 AVG DBUS CONGESTED CYCLE: 3.76
WQ ROW_BUFFER_HIT: Channel 0 
  ROW_BUFFER_MISS:         12
  FULL:        291
