WARNING: physical memory size is smaller than virtual memory size.

*** ChampSim Multicore Out-of-Order Simulator ***
Warmup Instructions: 25000000
Simulation Instructions: 100000000
Number of CPUs: 1
Page size: 4096

[L1D] Demand IPV: 1 2 2 1 4 Prefetch IPV: 1 2 1 1 4
[L1I] Demand IPV: 1 2 2 1 4 Prefetch IPV: 1 2 1 1 4
[L2C] Demand IPV: 1 2 2 1 4 Prefetch IPV: 1 2 1 1 4
[LLC] Demand IPV: 1 2 2 1 4 Prefetch IPV: 1 2 1 1 4
Off-chip DRAM Size: 4 GiB Channels: 1 Width: 64-bit Data Race: 3200 MT/s
Heartbeat CPU 0 instructions: 10000001 cycles: 2510952 heartbeat IPC: 3.983 cumulative IPC: 3.983 (Simulation time: 00 hr 00 min 19 sec)
Heartbeat CPU 0 instructions: 20000001 cycles: 5010982 heartbeat IPC: 4 cumulative IPC: 3.991 (Simulation time: 00 hr 00 min 40 sec)
Warmup finished CPU 0 instructions: 25000001 cycles: 6260983 cumulative IPC: 3.993 (Simulation time: 00 hr 00 min 50 sec)
Warmup complete CPU 0 instructions: 25000001 cycles: 6260983 cumulative IPC: 3.993 (Simulation time: 00 hr 00 min 50 sec)
Heartbeat CPU 0 instructions: 30000004 cycles: 9828449 heartbeat IPC: 2.076 cumulative IPC: 1.402 (Simulation time: 00 hr 01 min 08 sec)
*** Reached end of trace: (0, "../traces/public_traces/compute_int/compute_int_18.champsimtrace.xz")
Heartbeat CPU 0 instructions: 40000000 cycles: 17170833 heartbeat IPC: 1.362 cumulative IPC: 1.375 (Simulation time: 00 hr 01 min 44 sec)
Heartbeat CPU 0 instructions: 50000002 cycles: 25668938 heartbeat IPC: 1.177 cumulative IPC: 1.288 (Simulation time: 00 hr 02 min 24 sec)
Heartbeat CPU 0 instructions: 60000004 cycles: 33623579 heartbeat IPC: 1.257 cumulative IPC: 1.279 (Simulation time: 00 hr 03 min 03 sec)
*** Reached end of trace: (0, "../traces/public_traces/compute_int/compute_int_18.champsimtrace.xz")
Heartbeat CPU 0 instructions: 70000000 cycles: 40770527 heartbeat IPC: 1.399 cumulative IPC: 1.304 (Simulation time: 00 hr 03 min 38 sec)
Heartbeat CPU 0 instructions: 80000001 cycles: 49279500 heartbeat IPC: 1.175 cumulative IPC: 1.279 (Simulation time: 00 hr 04 min 18 sec)
Heartbeat CPU 0 instructions: 90000004 cycles: 57468627 heartbeat IPC: 1.221 cumulative IPC: 1.269 (Simulation time: 00 hr 04 min 57 sec)
*** Reached end of trace: (0, "../traces/public_traces/compute_int/compute_int_18.champsimtrace.xz")
Heartbeat CPU 0 instructions: 100000000 cycles: 64359384 heartbeat IPC: 1.451 cumulative IPC: 1.291 (Simulation time: 00 hr 05 min 32 sec)
Heartbeat CPU 0 instructions: 110000004 cycles: 72860287 heartbeat IPC: 1.176 cumulative IPC: 1.276 (Simulation time: 00 hr 06 min 12 sec)
Heartbeat CPU 0 instructions: 120000000 cycles: 81301865 heartbeat IPC: 1.185 cumulative IPC: 1.266 (Simulation time: 00 hr 06 min 52 sec)
*** Reached end of trace: (0, "../traces/public_traces/compute_int/compute_int_18.champsimtrace.xz")
Simulation finished CPU 0 instructions: 100000003 cycles: 78339084 cumulative IPC: 1.277 (Simulation time: 00 hr 07 min 08 sec)
Simulation complete CPU 0 instructions: 100000003 cycles: 78339084 cumulative IPC: 1.277 (Simulation time: 00 hr 07 min 08 sec)

ChampSim completed all CPUs

=== Simulation ===
CPU 0 runs ../traces/public_traces/compute_int/compute_int_18.champsimtrace.xz
Region of Interest Statistics

CPU 0 cumulative IPC: 1.277 instructions: 100000003 cycles: 78339084
CPU 0 Branch Prediction Accuracy: 87.33% MPKI: 28.28 Average ROB Occupancy at Mispredict: 10.76
Branch type MPKI
BRANCH_DIRECT_JUMP: 0.00238
BRANCH_INDIRECT: 12.8
BRANCH_CONDITIONAL: 15.1
BRANCH_DIRECT_CALL: 0.00392
BRANCH_INDIRECT_CALL: 0.332
BRANCH_RETURN: 0.00138

L1D TOTAL        ACCESS:   26362363 HIT:   25219821 MISS:    1142542
L1D LOAD         ACCESS:   16646383 HIT:   15698133 MISS:     948250
L1D RFO          ACCESS:          0 HIT:          0 MISS:          0
L1D PREFETCH     ACCESS:          0 HIT:          0 MISS:          0
L1D WRITE        ACCESS:    9714912 HIT:    9521607 MISS:     193305
L1D TRANSLATION  ACCESS:       1068 HIT:         81 MISS:        987
L1D PREFETCH REQUESTED:          0 ISSUED:          0 USEFUL:          0 USELESS:          0
L1D AVERAGE MISS LATENCY: 7.732 cycles
L1I TOTAL        ACCESS:    7819616 HIT:    6990354 MISS:     829262
L1I LOAD         ACCESS:    7819616 HIT:    6990354 MISS:     829262
L1I RFO          ACCESS:          0 HIT:          0 MISS:          0
L1I PREFETCH     ACCESS:          0 HIT:          0 MISS:          0
L1I WRITE        ACCESS:          0 HIT:          0 MISS:          0
L1I TRANSLATION  ACCESS:          0 HIT:          0 MISS:          0
L1I PREFETCH REQUESTED:          0 ISSUED:          0 USEFUL:          0 USELESS:          0
L1I AVERAGE MISS LATENCY: 8.49 cycles
L2C TOTAL        ACCESS:    1485311 HIT:    1299572 MISS:     185739
L2C LOAD         ACCESS:    1230102 HIT:    1086989 MISS:     143113
L2C RFO          ACCESS:      87164 HIT:      50747 MISS:      36417
L2C PREFETCH     ACCESS:          0 HIT:          0 MISS:          0
L2C WRITE        ACCESS:     167058 HIT:     161647 MISS:       5411
L2C TRANSLATION  ACCESS:        987 HIT:        189 MISS:        798
L2C PREFETCH REQUESTED:          0 ISSUED:          0 USEFUL:          0 USELESS:          0
L2C AVERAGE MISS LATENCY: 22.9 cycles
LLC TOTAL        ACCESS:     241399 HIT:     237405 MISS:       3994
LLC LOAD         ACCESS:     143113 HIT:     141034 MISS:       2079
LLC RFO          ACCESS:      36417 HIT:      34722 MISS:       1695
LLC PREFETCH     ACCESS:          0 HIT:          0 MISS:          0
LLC WRITE        ACCESS:      61071 HIT:      60979 MISS:         92
LLC TRANSLATION  ACCESS:        798 HIT:        670 MISS:        128
LLC PREFETCH REQUESTED:          0 ISSUED:          0 USEFUL:          0 USELESS:          0
LLC AVERAGE MISS LATENCY: 159.1 cycles
cpu0_DTLB TOTAL        ACCESS:   20858107 HIT:   20551403 MISS:     306704
cpu0_DTLB LOAD         ACCESS:   20858107 HIT:   20551403 MISS:     306704
cpu0_DTLB RFO          ACCESS:          0 HIT:          0 MISS:          0
cpu0_DTLB PREFETCH     ACCESS:          0 HIT:          0 MISS:          0
cpu0_DTLB WRITE        ACCESS:          0 HIT:          0 MISS:          0
cpu0_DTLB TRANSLATION  ACCESS:          0 HIT:          0 MISS:          0
cpu0_DTLB PREFETCH REQUESTED:          0 ISSUED:          0 USEFUL:          0 USELESS:          0
cpu0_DTLB AVERAGE MISS LATENCY: 4.877 cycles
cpu0_ITLB TOTAL        ACCESS:    6772892 HIT:    6754789 MISS:      18103
cpu0_ITLB LOAD         ACCESS:    6772892 HIT:    6754789 MISS:      18103
cpu0_ITLB RFO          ACCESS:          0 HIT:          0 MISS:          0
cpu0_ITLB PREFETCH     ACCESS:          0 HIT:          0 MISS:          0
cpu0_ITLB WRITE        ACCESS:          0 HIT:          0 MISS:          0
cpu0_ITLB TRANSLATION  ACCESS:          0 HIT:          0 MISS:          0
cpu0_ITLB PREFETCH REQUESTED:          0 ISSUED:          0 USEFUL:          0 USELESS:          0
cpu0_ITLB AVERAGE MISS LATENCY: 3.107 cycles
cpu0_STLB TOTAL        ACCESS:     215275 HIT:     214226 MISS:       1049
cpu0_STLB LOAD         ACCESS:     215275 HIT:     214226 MISS:       1049
cpu0_STLB RFO          ACCESS:          0 HIT:          0 MISS:          0
cpu0_STLB PREFETCH     ACCESS:          0 HIT:          0 MISS:          0
cpu0_STLB WRITE        ACCESS:          0 HIT:          0 MISS:          0
cpu0_STLB TRANSLATION  ACCESS:          0 HIT:          0 MISS:          0
cpu0_STLB PREFETCH REQUESTED:          0 ISSUED:          0 USEFUL:          0 USELESS:          0
cpu0_STLB AVERAGE MISS LATENCY: 102.2 cycles

DRAM Statistics

Channel 0 RQ ROW_BUFFER_HIT:       2732
  ROW_BUFFER_MISS:       1170
 AVG DBUS CONGESTED CYCLE: 3.962
WQ ROW_BUFFER_HIT: Channel 0 
  ROW_BUFFER_MISS:         16
  FULL:        236
