WARNING: physical memory size is smaller than virtual memory size.

*** ChampSim Multicore Out-of-Order Simulator ***
Warmup Instructions: 25000000
Simulation Instructions: 100000000
Number of CPUs: 1
Page size: 4096

[L1D] Demand IPV: 1 2 2 1 4 Prefetch IPV: 1 2 1 1 4
[L1I] Demand IPV: 1 2 2 1 4 Prefetch IPV: 1 2 1 1 4
[L2C] Demand IPV: 1 2 2 1 4 Prefetch IPV: 1 2 1 1 4
[LLC] Demand IPV: 1 2 2 1 4 Prefetch IPV: 1 2 1 1 4
Off-chip DRAM Size: 4 GiB Channels: 1 Width: 64-bit Data Race: 3200 MT/s
Heartbeat CPU 0 instructions: 10000003 cycles: 2505094 heartbeat IPC: 3.992 cumulative IPC: 3.992 (Simulation time: 00 hr 00 min 19 sec)
Heartbeat CPU 0 instructions: 20000002 cycles: 5011824 heartbeat IPC: 3.989 cumulative IPC: 3.991 (Simulation time: 00 hr 00 min 37 sec)
Warmup finished CPU 0 instructions: 25000003 cycles: 6262571 cumulative IPC: 3.992 (Simulation time: 00 hr 00 min 46 sec)
Warmup complete CPU 0 instructions: 25000003 cycles: 6262571 cumulative IPC: 3.992 (Simulation time: 00 hr 00 min 46 sec)
Heartbeat CPU 0 instructions: 30000001 cycles: 7857372 heartbeat IPC: 3.514 cumulative IPC: 3.135 (Simulation time: 00 hr 00 min 59 sec)
*** Reached end of trace: (0, "../traces/public_traces/compute_int/compute_int_24.champsimtrace.xz")
Heartbeat CPU 0 instructions: 40000001 cycles: 12261713 heartbeat IPC: 2.27 cumulative IPC: 2.5 (Simulation time: 00 hr 01 min 29 sec)
Heartbeat CPU 0 instructions: 50000000 cycles: 17006011 heartbeat IPC: 2.108 cumulative IPC: 2.327 (Simulation time: 00 hr 02 min 01 sec)
Heartbeat CPU 0 instructions: 60000002 cycles: 20598348 heartbeat IPC: 2.784 cumulative IPC: 2.441 (Simulation time: 00 hr 02 min 28 sec)
*** Reached end of trace: (0, "../traces/public_traces/compute_int/compute_int_24.champsimtrace.xz")
Heartbeat CPU 0 instructions: 70000000 cycles: 25027584 heartbeat IPC: 2.258 cumulative IPC: 2.398 (Simulation time: 00 hr 02 min 59 sec)
Heartbeat CPU 0 instructions: 80000001 cycles: 29679744 heartbeat IPC: 2.15 cumulative IPC: 2.349 (Simulation time: 00 hr 03 min 30 sec)
Heartbeat CPU 0 instructions: 90000001 cycles: 33264353 heartbeat IPC: 2.79 cumulative IPC: 2.407 (Simulation time: 00 hr 03 min 57 sec)
*** Reached end of trace: (0, "../traces/public_traces/compute_int/compute_int_24.champsimtrace.xz")
Heartbeat CPU 0 instructions: 100000000 cycles: 37648441 heartbeat IPC: 2.281 cumulative IPC: 2.39 (Simulation time: 00 hr 04 min 28 sec)
Heartbeat CPU 0 instructions: 110000000 cycles: 42281771 heartbeat IPC: 2.158 cumulative IPC: 2.36 (Simulation time: 00 hr 04 min 58 sec)
Heartbeat CPU 0 instructions: 120000000 cycles: 45904887 heartbeat IPC: 2.76 cumulative IPC: 2.396 (Simulation time: 00 hr 05 min 26 sec)
*** Reached end of trace: (0, "../traces/public_traces/compute_int/compute_int_24.champsimtrace.xz")
Simulation finished CPU 0 instructions: 100000002 cycles: 41745656 cumulative IPC: 2.395 (Simulation time: 00 hr 05 min 40 sec)
Simulation complete CPU 0 instructions: 100000002 cycles: 41745656 cumulative IPC: 2.395 (Simulation time: 00 hr 05 min 40 sec)

ChampSim completed all CPUs

=== Simulation ===
CPU 0 runs ../traces/public_traces/compute_int/compute_int_24.champsimtrace.xz
Region of Interest Statistics

CPU 0 cumulative IPC: 2.395 instructions: 100000002 cycles: 41745656
CPU 0 Branch Prediction Accuracy: 98.37% MPKI: 4.437 Average ROB Occupancy at Mispredict: 23.84
Branch type MPKI
BRANCH_DIRECT_JUMP: 0
BRANCH_INDIRECT: 2.61
BRANCH_CONDITIONAL: 1.19
BRANCH_DIRECT_CALL: 0
BRANCH_INDIRECT_CALL: 0.638
BRANCH_RETURN: 0.00012

L1D TOTAL        ACCESS:   21073690 HIT:   10363091 MISS:   10710599
L1D LOAD         ACCESS:   18510006 HIT:    8407972 MISS:   10102034
L1D RFO          ACCESS:          0 HIT:          0 MISS:          0
L1D PREFETCH     ACCESS:          0 HIT:          0 MISS:          0
L1D WRITE        ACCESS:    2490450 HIT:    1952886 MISS:     537564
L1D TRANSLATION  ACCESS:      73234 HIT:       2233 MISS:      71001
L1D PREFETCH REQUESTED:          0 ISSUED:          0 USEFUL:          0 USELESS:          0
L1D AVERAGE MISS LATENCY: 6.905 cycles
L1I TOTAL        ACCESS:    2162590 HIT:    2089320 MISS:      73270
L1I LOAD         ACCESS:    2162590 HIT:    2089320 MISS:      73270
L1I RFO          ACCESS:          0 HIT:          0 MISS:          0
L1I PREFETCH     ACCESS:          0 HIT:          0 MISS:          0
L1I WRITE        ACCESS:          0 HIT:          0 MISS:          0
L1I TRANSLATION  ACCESS:          0 HIT:          0 MISS:          0
L1I PREFETCH REQUESTED:          0 ISSUED:          0 USEFUL:          0 USELESS:          0
L1I AVERAGE MISS LATENCY: 15.87 cycles
L2C TOTAL        ACCESS:    3662094 HIT:    3306631 MISS:     355463
L2C LOAD         ACCESS:    3207069 HIT:    3044299 MISS:     162770
L2C RFO          ACCESS:     181005 HIT:      13325 MISS:     167680
L2C PREFETCH     ACCESS:          0 HIT:          0 MISS:          0
L2C WRITE        ACCESS:     203114 HIT:     193387 MISS:       9727
L2C TRANSLATION  ACCESS:      70906 HIT:      55620 MISS:      15286
L2C PREFETCH REQUESTED:          0 ISSUED:          0 USEFUL:          0 USELESS:          0
L2C AVERAGE MISS LATENCY: 140.2 cycles
LLC TOTAL        ACCESS:     524171 HIT:     319448 MISS:     204723
LLC LOAD         ACCESS:     162770 HIT:     138485 MISS:      24285
LLC RFO          ACCESS:     167680 HIT:      56706 MISS:     110974
LLC PREFETCH     ACCESS:          0 HIT:          0 MISS:          0
LLC WRITE        ACCESS:     178435 HIT:     115794 MISS:      62641
LLC TRANSLATION  ACCESS:      15286 HIT:       8463 MISS:       6823
LLC PREFETCH REQUESTED:          0 ISSUED:          0 USEFUL:          0 USELESS:          0
LLC AVERAGE MISS LATENCY: 208.8 cycles
cpu0_DTLB TOTAL        ACCESS:   19286560 HIT:   17465399 MISS:    1821161
cpu0_DTLB LOAD         ACCESS:   19286560 HIT:   17465399 MISS:    1821161
cpu0_DTLB RFO          ACCESS:          0 HIT:          0 MISS:          0
cpu0_DTLB PREFETCH     ACCESS:          0 HIT:          0 MISS:          0
cpu0_DTLB WRITE        ACCESS:          0 HIT:          0 MISS:          0
cpu0_DTLB TRANSLATION  ACCESS:          0 HIT:          0 MISS:          0
cpu0_DTLB PREFETCH REQUESTED:          0 ISSUED:          0 USEFUL:          0 USELESS:          0
cpu0_DTLB AVERAGE MISS LATENCY: 6.959 cycles
cpu0_ITLB TOTAL        ACCESS:    1929219 HIT:    1834886 MISS:      94333
cpu0_ITLB LOAD         ACCESS:    1929219 HIT:    1834886 MISS:      94333
cpu0_ITLB RFO          ACCESS:          0 HIT:          0 MISS:          0
cpu0_ITLB PREFETCH     ACCESS:          0 HIT:          0 MISS:          0
cpu0_ITLB WRITE        ACCESS:          0 HIT:          0 MISS:          0
cpu0_ITLB TRANSLATION  ACCESS:          0 HIT:          0 MISS:          0
cpu0_ITLB PREFETCH REQUESTED:          0 ISSUED:          0 USEFUL:          0 USELESS:          0
cpu0_ITLB AVERAGE MISS LATENCY: 3.054 cycles
cpu0_STLB TOTAL        ACCESS:    1000735 HIT:     929272 MISS:      71463
cpu0_STLB LOAD         ACCESS:    1000735 HIT:     929272 MISS:      71463
cpu0_STLB RFO          ACCESS:          0 HIT:          0 MISS:          0
cpu0_STLB PREFETCH     ACCESS:          0 HIT:          0 MISS:          0
cpu0_STLB WRITE        ACCESS:          0 HIT:          0 MISS:          0
cpu0_STLB TRANSLATION  ACCESS:          0 HIT:          0 MISS:          0
cpu0_STLB PREFETCH REQUESTED:          0 ISSUED:          0 USEFUL:          0 USELESS:          0
cpu0_STLB AVERAGE MISS LATENCY: 102.6 cycles

DRAM Statistics

Channel 0 RQ ROW_BUFFER_HIT:      82743
  ROW_BUFFER_MISS:      59336
 AVG DBUS CONGESTED CYCLE: 3.975
WQ ROW_BUFFER_HIT: Channel 0 
  ROW_BUFFER_MISS:       6109
  FULL:     109931
