WARNING: physical memory size is smaller than virtual memory size.

*** ChampSim Multicore Out-of-Order Simulator ***
Warmup Instructions: 25000000
Simulation Instructions: 100000000
Number of CPUs: 1
Page size: 4096

[L1D] Demand IPV: 1 1 1 2 4 Prefetch IPV: 1 1 2 2 4
[L1I] Demand IPV: 1 1 1 2 4 Prefetch IPV: 1 1 2 2 4
[L2C] Demand IPV: 1 1 1 2 4 Prefetch IPV: 1 1 2 2 4
[LLC] Demand IPV: 1 1 1 2 4 Prefetch IPV: 1 1 2 2 4
Off-chip DRAM Size: 4 GiB Channels: 1 Width: 64-bit Data Race: 3200 MT/s
Heartbeat CPU 0 instructions: 10000002 cycles: 2724723 heartbeat IPC: 3.67 cumulative IPC: 3.67 (Simulation time: 00 hr 00 min 21 sec)
Heartbeat CPU 0 instructions: 20000000 cycles: 5379992 heartbeat IPC: 3.766 cumulative IPC: 3.717 (Simulation time: 00 hr 00 min 43 sec)
Warmup finished CPU 0 instructions: 25000001 cycles: 6731580 cumulative IPC: 3.714 (Simulation time: 00 hr 00 min 53 sec)
Warmup complete CPU 0 instructions: 25000001 cycles: 6731580 cumulative IPC: 3.714 (Simulation time: 00 hr 00 min 53 sec)
Heartbeat CPU 0 instructions: 30000004 cycles: 24865938 heartbeat IPC: 0.5132 cumulative IPC: 0.2757 (Simulation time: 00 hr 01 min 58 sec)
*** Reached end of trace: (0, "../traces/public_traces/compute_fp/compute_fp_7.champsimtrace.xz")
Heartbeat CPU 0 instructions: 40000000 cycles: 66614509 heartbeat IPC: 0.2395 cumulative IPC: 0.2505 (Simulation time: 00 hr 04 min 27 sec)
Heartbeat CPU 0 instructions: 50000001 cycles: 91479845 heartbeat IPC: 0.4022 cumulative IPC: 0.295 (Simulation time: 00 hr 06 min 04 sec)
Heartbeat CPU 0 instructions: 60000004 cycles: 125212038 heartbeat IPC: 0.2965 cumulative IPC: 0.2954 (Simulation time: 00 hr 08 min 05 sec)
*** Reached end of trace: (0, "../traces/public_traces/compute_fp/compute_fp_7.champsimtrace.xz")
Heartbeat CPU 0 instructions: 70000002 cycles: 167551100 heartbeat IPC: 0.2362 cumulative IPC: 0.2798 (Simulation time: 00 hr 10 min 36 sec)
Heartbeat CPU 0 instructions: 80000004 cycles: 191301125 heartbeat IPC: 0.4211 cumulative IPC: 0.298 (Simulation time: 00 hr 12 min 08 sec)
Heartbeat CPU 0 instructions: 90000003 cycles: 225271499 heartbeat IPC: 0.2944 cumulative IPC: 0.2974 (Simulation time: 00 hr 14 min 12 sec)
*** Reached end of trace: (0, "../traces/public_traces/compute_fp/compute_fp_7.champsimtrace.xz")
Heartbeat CPU 0 instructions: 100000002 cycles: 268273909 heartbeat IPC: 0.2325 cumulative IPC: 0.2868 (Simulation time: 00 hr 16 min 44 sec)
Heartbeat CPU 0 instructions: 110000000 cycles: 292828703 heartbeat IPC: 0.4073 cumulative IPC: 0.2971 (Simulation time: 00 hr 18 min 18 sec)
Heartbeat CPU 0 instructions: 120000000 cycles: 327259058 heartbeat IPC: 0.2904 cumulative IPC: 0.2964 (Simulation time: 00 hr 20 min 24 sec)
*** Reached end of trace: (0, "../traces/public_traces/compute_fp/compute_fp_7.champsimtrace.xz")
Simulation finished CPU 0 instructions: 100000002 cycles: 335362544 cumulative IPC: 0.2982 (Simulation time: 00 hr 21 min 18 sec)
Simulation complete CPU 0 instructions: 100000002 cycles: 335362544 cumulative IPC: 0.2982 (Simulation time: 00 hr 21 min 18 sec)

ChampSim completed all CPUs

=== Simulation ===
CPU 0 runs ../traces/public_traces/compute_fp/compute_fp_7.champsimtrace.xz
Region of Interest Statistics

CPU 0 cumulative IPC: 0.2982 instructions: 100000002 cycles: 335362544
CPU 0 Branch Prediction Accuracy: 89.97% MPKI: 16.22 Average ROB Occupancy at Mispredict: 43.09
Branch type MPKI
BRANCH_DIRECT_JUMP: 0.00019
BRANCH_INDIRECT: 4.04
BRANCH_CONDITIONAL: 12.2
BRANCH_DIRECT_CALL: 5e-05
BRANCH_INDIRECT_CALL: 0.00182
BRANCH_RETURN: 8e-05

L1D TOTAL        ACCESS:   32016180 HIT:   16666685 MISS:   15349495
L1D LOAD         ACCESS:   21437065 HIT:   10730981 MISS:   10706084
L1D RFO          ACCESS:          0 HIT:          0 MISS:          0
L1D PREFETCH     ACCESS:          0 HIT:          0 MISS:          0
L1D WRITE        ACCESS:   10390918 HIT:    5913507 MISS:    4477411
L1D TRANSLATION  ACCESS:     188197 HIT:      22197 MISS:     166000
L1D PREFETCH REQUESTED:          0 ISSUED:          0 USEFUL:          0 USELESS:          0
L1D AVERAGE MISS LATENCY: 113.5 cycles
L1I TOTAL        ACCESS:      12304 HIT:       8229 MISS:       4075
L1I LOAD         ACCESS:      12304 HIT:       8229 MISS:       4075
L1I RFO          ACCESS:          0 HIT:          0 MISS:          0
L1I PREFETCH     ACCESS:          0 HIT:          0 MISS:          0
L1I WRITE        ACCESS:          0 HIT:          0 MISS:          0
L1I TRANSLATION  ACCESS:          0 HIT:          0 MISS:          0
L1I PREFETCH REQUESTED:          0 ISSUED:          0 USEFUL:          0 USELESS:          0
L1I AVERAGE MISS LATENCY: 219.4 cycles
L2C TOTAL        ACCESS:   10747426 HIT:    5275215 MISS:    5472211
L2C LOAD         ACCESS:    5537002 HIT:    1705481 MISS:    3831521
L2C RFO          ACCESS:    1720180 HIT:     717197 MISS:    1002983
L2C PREFETCH     ACCESS:          0 HIT:          0 MISS:          0
L2C WRITE        ACCESS:    3325345 HIT:    2763370 MISS:     561975
L2C TRANSLATION  ACCESS:     164899 HIT:      89167 MISS:      75732
L2C PREFETCH REQUESTED:          0 ISSUED:          0 USEFUL:          0 USELESS:          0
L2C AVERAGE MISS LATENCY: 328.6 cycles
LLC TOTAL        ACCESS:    6932273 HIT:    2637027 MISS:    4295246
LLC LOAD         ACCESS:    3831518 HIT:    1296752 MISS:    2534766
LLC RFO          ACCESS:    1002978 HIT:     240038 MISS:     762940
LLC PREFETCH     ACCESS:          0 HIT:          0 MISS:          0
LLC WRITE        ACCESS:    2022045 HIT:    1068400 MISS:     953645
LLC TRANSLATION  ACCESS:      75732 HIT:      31837 MISS:      43895
LLC PREFETCH REQUESTED:          0 ISSUED:          0 USEFUL:          0 USELESS:          0
LLC AVERAGE MISS LATENCY: 395 cycles
cpu0_DTLB TOTAL        ACCESS:   27407299 HIT:   25443004 MISS:    1964295
cpu0_DTLB LOAD         ACCESS:   27407299 HIT:   25443004 MISS:    1964295
cpu0_DTLB RFO          ACCESS:          0 HIT:          0 MISS:          0
cpu0_DTLB PREFETCH     ACCESS:          0 HIT:          0 MISS:          0
cpu0_DTLB WRITE        ACCESS:          0 HIT:          0 MISS:          0
cpu0_DTLB TRANSLATION  ACCESS:          0 HIT:          0 MISS:          0
cpu0_DTLB PREFETCH REQUESTED:          0 ISSUED:          0 USEFUL:          0 USELESS:          0
cpu0_DTLB AVERAGE MISS LATENCY: 19.46 cycles
cpu0_ITLB TOTAL        ACCESS:      10764 HIT:       9942 MISS:        822
cpu0_ITLB LOAD         ACCESS:      10764 HIT:       9942 MISS:        822
cpu0_ITLB RFO          ACCESS:          0 HIT:          0 MISS:          0
cpu0_ITLB PREFETCH     ACCESS:          0 HIT:          0 MISS:          0
cpu0_ITLB WRITE        ACCESS:          0 HIT:          0 MISS:          0
cpu0_ITLB TRANSLATION  ACCESS:          0 HIT:          0 MISS:          0
cpu0_ITLB PREFETCH REQUESTED:          0 ISSUED:          0 USEFUL:          0 USELESS:          0
cpu0_ITLB AVERAGE MISS LATENCY: 123.7 cycles
cpu0_STLB TOTAL        ACCESS:    1502686 HIT:    1315061 MISS:     187625
cpu0_STLB LOAD         ACCESS:    1502686 HIT:    1315061 MISS:     187625
cpu0_STLB RFO          ACCESS:          0 HIT:          0 MISS:          0
cpu0_STLB PREFETCH     ACCESS:          0 HIT:          0 MISS:          0
cpu0_STLB WRITE        ACCESS:          0 HIT:          0 MISS:          0
cpu0_STLB TRANSLATION  ACCESS:          0 HIT:          0 MISS:          0
cpu0_STLB PREFETCH REQUESTED:          0 ISSUED:          0 USEFUL:          0 USELESS:          0
cpu0_STLB AVERAGE MISS LATENCY: 157.1 cycles

DRAM Statistics

Channel 0 RQ ROW_BUFFER_HIT:     773270
  ROW_BUFFER_MISS:    2565092
 AVG DBUS CONGESTED CYCLE: 3.968
WQ ROW_BUFFER_HIT: Channel 0 
  ROW_BUFFER_MISS:      43119
  FULL:    1165289
