WARNING: physical memory size is smaller than virtual memory size.

*** ChampSim Multicore Out-of-Order Simulator ***
Warmup Instructions: 25000000
Simulation Instructions: 100000000
Number of CPUs: 1
Page size: 4096

[L1D] Demand IPV: 1 2 2 1 4 Prefetch IPV: 1 2 1 1 4
[L1I] Demand IPV: 1 2 2 1 4 Prefetch IPV: 1 2 1 1 4
[L2C] Demand IPV: 1 2 2 1 4 Prefetch IPV: 1 2 1 1 4
[LLC] Demand IPV: 1 2 2 1 4 Prefetch IPV: 1 2 1 1 4
Off-chip DRAM Size: 4 GiB Channels: 1 Width: 64-bit Data Race: 3200 MT/s
Heartbeat CPU 0 instructions: 10000002 cycles: 2500112 heartbeat IPC: 4 cumulative IPC: 4 (Simulation time: 00 hr 00 min 22 sec)
Heartbeat CPU 0 instructions: 20000002 cycles: 5000112 heartbeat IPC: 4 cumulative IPC: 4 (Simulation time: 00 hr 00 min 44 sec)
Warmup finished CPU 0 instructions: 25000002 cycles: 6250113 cumulative IPC: 4 (Simulation time: 00 hr 00 min 55 sec)
Warmup complete CPU 0 instructions: 25000002 cycles: 6250113 cumulative IPC: 4 (Simulation time: 00 hr 00 min 55 sec)
Heartbeat CPU 0 instructions: 30000000 cycles: 13632190 heartbeat IPC: 1.158 cumulative IPC: 0.6773 (Simulation time: 00 hr 01 min 25 sec)
*** Reached end of trace: (0, "../traces/public_traces/srv/srv_61.champsimtrace.xz")
Heartbeat CPU 0 instructions: 40000000 cycles: 27886082 heartbeat IPC: 0.7016 cumulative IPC: 0.6933 (Simulation time: 00 hr 02 min 23 sec)
Heartbeat CPU 0 instructions: 50000004 cycles: 41955188 heartbeat IPC: 0.7108 cumulative IPC: 0.7002 (Simulation time: 00 hr 03 min 21 sec)
Heartbeat CPU 0 instructions: 60000000 cycles: 56634718 heartbeat IPC: 0.6812 cumulative IPC: 0.6947 (Simulation time: 00 hr 04 min 20 sec)
*** Reached end of trace: (0, "../traces/public_traces/srv/srv_61.champsimtrace.xz")
Heartbeat CPU 0 instructions: 70000001 cycles: 71021707 heartbeat IPC: 0.6951 cumulative IPC: 0.6947 (Simulation time: 00 hr 05 min 19 sec)
Heartbeat CPU 0 instructions: 80000003 cycles: 84963104 heartbeat IPC: 0.7173 cumulative IPC: 0.6987 (Simulation time: 00 hr 06 min 17 sec)
Heartbeat CPU 0 instructions: 90000002 cycles: 99739997 heartbeat IPC: 0.6767 cumulative IPC: 0.6953 (Simulation time: 00 hr 07 min 16 sec)
*** Reached end of trace: (0, "../traces/public_traces/srv/srv_61.champsimtrace.xz")
Heartbeat CPU 0 instructions: 100000000 cycles: 114084469 heartbeat IPC: 0.6971 cumulative IPC: 0.6955 (Simulation time: 00 hr 08 min 15 sec)
Heartbeat CPU 0 instructions: 110000000 cycles: 128166370 heartbeat IPC: 0.7101 cumulative IPC: 0.6972 (Simulation time: 00 hr 09 min 13 sec)
Heartbeat CPU 0 instructions: 120000001 cycles: 142746196 heartbeat IPC: 0.6859 cumulative IPC: 0.696 (Simulation time: 00 hr 10 min 12 sec)
*** Reached end of trace: (0, "../traces/public_traces/srv/srv_61.champsimtrace.xz")
Simulation finished CPU 0 instructions: 100000000 cycles: 143833626 cumulative IPC: 0.6952 (Simulation time: 00 hr 10 min 42 sec)
Simulation complete CPU 0 instructions: 100000000 cycles: 143833626 cumulative IPC: 0.6952 (Simulation time: 00 hr 10 min 42 sec)

ChampSim completed all CPUs

=== Simulation ===
CPU 0 runs ../traces/public_traces/srv/srv_61.champsimtrace.xz
Region of Interest Statistics

CPU 0 cumulative IPC: 0.6952 instructions: 100000000 cycles: 143833626
CPU 0 Branch Prediction Accuracy: 82.04% MPKI: 32.49 Average ROB Occupancy at Mispredict: 14.77
Branch type MPKI
BRANCH_DIRECT_JUMP: 0.823
BRANCH_INDIRECT: 17.4
BRANCH_CONDITIONAL: 11.1
BRANCH_DIRECT_CALL: 1.51
BRANCH_INDIRECT_CALL: 0.661
BRANCH_RETURN: 1.05

L1D TOTAL        ACCESS:   27425678 HIT:   25110961 MISS:    2314717
L1D LOAD         ACCESS:   17004958 HIT:   15433385 MISS:    1571573
L1D RFO          ACCESS:          0 HIT:          0 MISS:          0
L1D PREFETCH     ACCESS:          0 HIT:          0 MISS:          0
L1D WRITE        ACCESS:   10137543 HIT:    9661531 MISS:     476012
L1D TRANSLATION  ACCESS:     283177 HIT:      16045 MISS:     267132
L1D PREFETCH REQUESTED:          0 ISSUED:          0 USEFUL:          0 USELESS:          0
L1D AVERAGE MISS LATENCY: 25.85 cycles
L1I TOTAL        ACCESS:   10845511 HIT:    7118283 MISS:    3727228
L1I LOAD         ACCESS:   10845511 HIT:    7118283 MISS:    3727228
L1I RFO          ACCESS:          0 HIT:          0 MISS:          0
L1I PREFETCH     ACCESS:          0 HIT:          0 MISS:          0
L1I WRITE        ACCESS:          0 HIT:          0 MISS:          0
L1I TRANSLATION  ACCESS:          0 HIT:          0 MISS:          0
L1I PREFETCH REQUESTED:          0 ISSUED:          0 USEFUL:          0 USELESS:          0
L1I AVERAGE MISS LATENCY: 14.81 cycles
L2C TOTAL        ACCESS:    5031891 HIT:    3066163 MISS:    1965728
L2C LOAD         ACCESS:    4055841 HIT:    2468164 MISS:    1587677
L2C RFO          ACCESS:     198703 HIT:     124323 MISS:      74380
L2C PREFETCH     ACCESS:          0 HIT:          0 MISS:          0
L2C WRITE        ACCESS:     511449 HIT:     415637 MISS:      95812
L2C TRANSLATION  ACCESS:     265898 HIT:      58039 MISS:     207859
L2C PREFETCH REQUESTED:          0 ISSUED:          0 USEFUL:          0 USELESS:          0
L2C AVERAGE MISS LATENCY: 37.15 cycles
LLC TOTAL        ACCESS:    2080321 HIT:    1831238 MISS:     249083
LLC LOAD         ACCESS:    1587676 HIT:    1436408 MISS:     151268
LLC RFO          ACCESS:      74380 HIT:      53343 MISS:      21037
LLC PREFETCH     ACCESS:          0 HIT:          0 MISS:          0
LLC WRITE        ACCESS:     210406 HIT:     184916 MISS:      25490
LLC TRANSLATION  ACCESS:     207859 HIT:     156571 MISS:      51288
LLC PREFETCH REQUESTED:          0 ISSUED:          0 USEFUL:          0 USELESS:          0
LLC AVERAGE MISS LATENCY: 142.1 cycles
cpu0_DTLB TOTAL        ACCESS:   22218411 HIT:   20670144 MISS:    1548267
cpu0_DTLB LOAD         ACCESS:   22218411 HIT:   20670144 MISS:    1548267
cpu0_DTLB RFO          ACCESS:          0 HIT:          0 MISS:          0
cpu0_DTLB PREFETCH     ACCESS:          0 HIT:          0 MISS:          0
cpu0_DTLB WRITE        ACCESS:          0 HIT:          0 MISS:          0
cpu0_DTLB TRANSLATION  ACCESS:          0 HIT:          0 MISS:          0
cpu0_DTLB PREFETCH REQUESTED:          0 ISSUED:          0 USEFUL:          0 USELESS:          0
cpu0_DTLB AVERAGE MISS LATENCY: 13.41 cycles
cpu0_ITLB TOTAL        ACCESS:    9575185 HIT:    8791809 MISS:     783376
cpu0_ITLB LOAD         ACCESS:    9575185 HIT:    8791809 MISS:     783376
cpu0_ITLB RFO          ACCESS:          0 HIT:          0 MISS:          0
cpu0_ITLB PREFETCH     ACCESS:          0 HIT:          0 MISS:          0
cpu0_ITLB WRITE        ACCESS:          0 HIT:          0 MISS:          0
cpu0_ITLB TRANSLATION  ACCESS:          0 HIT:          0 MISS:          0
cpu0_ITLB PREFETCH REQUESTED:          0 ISSUED:          0 USEFUL:          0 USELESS:          0
cpu0_ITLB AVERAGE MISS LATENCY: 10.28 cycles
cpu0_STLB TOTAL        ACCESS:    1619643 HIT:    1390765 MISS:     228878
cpu0_STLB LOAD         ACCESS:    1619643 HIT:    1390765 MISS:     228878
cpu0_STLB RFO          ACCESS:          0 HIT:          0 MISS:          0
cpu0_STLB PREFETCH     ACCESS:          0 HIT:          0 MISS:          0
cpu0_STLB WRITE        ACCESS:          0 HIT:          0 MISS:          0
cpu0_STLB TRANSLATION  ACCESS:          0 HIT:          0 MISS:          0
cpu0_STLB PREFETCH REQUESTED:          0 ISSUED:          0 USEFUL:          0 USELESS:          0
cpu0_STLB AVERAGE MISS LATENCY: 76.49 cycles

DRAM Statistics

Channel 0 RQ ROW_BUFFER_HIT:      35618
  ROW_BUFFER_MISS:     187969
 AVG DBUS CONGESTED CYCLE: 3.862
WQ ROW_BUFFER_HIT: Channel 0 
  ROW_BUFFER_MISS:      19691
  FULL:      83812
