WARNING: physical memory size is smaller than virtual memory size.

*** ChampSim Multicore Out-of-Order Simulator ***
Warmup Instructions: 25000000
Simulation Instructions: 100000000
Number of CPUs: 1
Page size: 4096

[L1D] Demand IPV: 1 2 2 1 4 Prefetch IPV: 1 2 1 1 4
[L1I] Demand IPV: 1 2 2 1 4 Prefetch IPV: 1 2 1 1 4
[L2C] Demand IPV: 1 2 2 1 4 Prefetch IPV: 1 2 1 1 4
[LLC] Demand IPV: 1 2 2 1 4 Prefetch IPV: 1 2 1 1 4
Off-chip DRAM Size: 4 GiB Channels: 1 Width: 64-bit Data Race: 3200 MT/s
Heartbeat CPU 0 instructions: 10000001 cycles: 2500134 heartbeat IPC: 4 cumulative IPC: 4 (Simulation time: 00 hr 00 min 21 sec)
Heartbeat CPU 0 instructions: 20000001 cycles: 5000134 heartbeat IPC: 4 cumulative IPC: 4 (Simulation time: 00 hr 00 min 43 sec)
Warmup finished CPU 0 instructions: 25000000 cycles: 6250143 cumulative IPC: 4 (Simulation time: 00 hr 00 min 54 sec)
Warmup complete CPU 0 instructions: 25000000 cycles: 6250143 cumulative IPC: 4 (Simulation time: 00 hr 00 min 54 sec)
Heartbeat CPU 0 instructions: 30000002 cycles: 12541603 heartbeat IPC: 1.326 cumulative IPC: 0.7947 (Simulation time: 00 hr 01 min 21 sec)
*** Reached end of trace: (0, "../traces/public_traces/srv/srv_6.champsimtrace.xz")
Heartbeat CPU 0 instructions: 40000004 cycles: 23984775 heartbeat IPC: 0.8739 cumulative IPC: 0.8458 (Simulation time: 00 hr 02 min 12 sec)
Heartbeat CPU 0 instructions: 50000000 cycles: 36144344 heartbeat IPC: 0.8224 cumulative IPC: 0.8363 (Simulation time: 00 hr 03 min 05 sec)
Heartbeat CPU 0 instructions: 60000004 cycles: 47858163 heartbeat IPC: 0.8537 cumulative IPC: 0.8412 (Simulation time: 00 hr 03 min 57 sec)
*** Reached end of trace: (0, "../traces/public_traces/srv/srv_6.champsimtrace.xz")
Heartbeat CPU 0 instructions: 70000004 cycles: 59463020 heartbeat IPC: 0.8617 cumulative IPC: 0.8457 (Simulation time: 00 hr 04 min 48 sec)
Heartbeat CPU 0 instructions: 80000001 cycles: 71447182 heartbeat IPC: 0.8344 cumulative IPC: 0.8436 (Simulation time: 00 hr 05 min 40 sec)
Heartbeat CPU 0 instructions: 90000002 cycles: 82781273 heartbeat IPC: 0.8823 cumulative IPC: 0.8493 (Simulation time: 00 hr 06 min 31 sec)
*** Reached end of trace: (0, "../traces/public_traces/srv/srv_6.champsimtrace.xz")
Heartbeat CPU 0 instructions: 100000004 cycles: 94834679 heartbeat IPC: 0.8296 cumulative IPC: 0.8466 (Simulation time: 00 hr 07 min 23 sec)
Heartbeat CPU 0 instructions: 110000000 cycles: 106699183 heartbeat IPC: 0.8428 cumulative IPC: 0.8462 (Simulation time: 00 hr 08 min 15 sec)
Heartbeat CPU 0 instructions: 120000001 cycles: 118310683 heartbeat IPC: 0.8612 cumulative IPC: 0.8478 (Simulation time: 00 hr 09 min 06 sec)
*** Reached end of trace: (0, "../traces/public_traces/srv/srv_6.champsimtrace.xz")
Simulation finished CPU 0 instructions: 100000002 cycles: 118295715 cumulative IPC: 0.8453 (Simulation time: 00 hr 09 min 33 sec)
Simulation complete CPU 0 instructions: 100000002 cycles: 118295715 cumulative IPC: 0.8453 (Simulation time: 00 hr 09 min 33 sec)

ChampSim completed all CPUs

=== Simulation ===
CPU 0 runs ../traces/public_traces/srv/srv_6.champsimtrace.xz
Region of Interest Statistics

CPU 0 cumulative IPC: 0.8453 instructions: 100000002 cycles: 118295715
CPU 0 Branch Prediction Accuracy: 85.79% MPKI: 25.37 Average ROB Occupancy at Mispredict: 18.61
Branch type MPKI
BRANCH_DIRECT_JUMP: 0.398
BRANCH_INDIRECT: 14.3
BRANCH_CONDITIONAL: 8.9
BRANCH_DIRECT_CALL: 0.747
BRANCH_INDIRECT_CALL: 0.481
BRANCH_RETURN: 0.539

L1D TOTAL        ACCESS:   27036156 HIT:   24823282 MISS:    2212874
L1D LOAD         ACCESS:   16691700 HIT:   15133595 MISS:    1558105
L1D RFO          ACCESS:          0 HIT:          0 MISS:          0
L1D PREFETCH     ACCESS:          0 HIT:          0 MISS:          0
L1D WRITE        ACCESS:   10115659 HIT:    9674234 MISS:     441425
L1D TRANSLATION  ACCESS:     228797 HIT:      15453 MISS:     213344
L1D PREFETCH REQUESTED:          0 ISSUED:          0 USEFUL:          0 USELESS:          0
L1D AVERAGE MISS LATENCY: 23.15 cycles
L1I TOTAL        ACCESS:   10650188 HIT:    6915169 MISS:    3735019
L1I LOAD         ACCESS:   10650188 HIT:    6915169 MISS:    3735019
L1I RFO          ACCESS:          0 HIT:          0 MISS:          0
L1I PREFETCH     ACCESS:          0 HIT:          0 MISS:          0
L1I WRITE        ACCESS:          0 HIT:          0 MISS:          0
L1I TRANSLATION  ACCESS:          0 HIT:          0 MISS:          0
L1I PREFETCH REQUESTED:          0 ISSUED:          0 USEFUL:          0 USELESS:          0
L1I AVERAGE MISS LATENCY: 12.4 cycles
L2C TOTAL        ACCESS:    4819801 HIT:    3347192 MISS:    1472609
L2C LOAD         ACCESS:    3912970 HIT:    2737582 MISS:    1175388
L2C RFO          ACCESS:     187035 HIT:     124944 MISS:      62091
L2C PREFETCH     ACCESS:          0 HIT:          0 MISS:          0
L2C WRITE        ACCESS:     507909 HIT:     429336 MISS:      78573
L2C TRANSLATION  ACCESS:     211887 HIT:      55330 MISS:     156557
L2C PREFETCH REQUESTED:          0 ISSUED:          0 USEFUL:          0 USELESS:          0
L2C AVERAGE MISS LATENCY: 39.65 cycles
LLC TOTAL        ACCESS:    1585482 HIT:    1370453 MISS:     215029
LLC LOAD         ACCESS:    1175388 HIT:    1036993 MISS:     138395
LLC RFO          ACCESS:      62091 HIT:      41294 MISS:      20797
LLC PREFETCH     ACCESS:          0 HIT:          0 MISS:          0
LLC WRITE        ACCESS:     191446 HIT:     168499 MISS:      22947
LLC TRANSLATION  ACCESS:     156557 HIT:     123667 MISS:      32890
LLC PREFETCH REQUESTED:          0 ISSUED:          0 USEFUL:          0 USELESS:          0
LLC AVERAGE MISS LATENCY: 141 cycles
cpu0_DTLB TOTAL        ACCESS:   21777360 HIT:   20207918 MISS:    1569442
cpu0_DTLB LOAD         ACCESS:   21777360 HIT:   20207918 MISS:    1569442
cpu0_DTLB RFO          ACCESS:          0 HIT:          0 MISS:          0
cpu0_DTLB PREFETCH     ACCESS:          0 HIT:          0 MISS:          0
cpu0_DTLB WRITE        ACCESS:          0 HIT:          0 MISS:          0
cpu0_DTLB TRANSLATION  ACCESS:          0 HIT:          0 MISS:          0
cpu0_DTLB PREFETCH REQUESTED:          0 ISSUED:          0 USEFUL:          0 USELESS:          0
cpu0_DTLB AVERAGE MISS LATENCY: 11.7 cycles
cpu0_ITLB TOTAL        ACCESS:    9442079 HIT:    8641264 MISS:     800815
cpu0_ITLB LOAD         ACCESS:    9442079 HIT:    8641264 MISS:     800815
cpu0_ITLB RFO          ACCESS:          0 HIT:          0 MISS:          0
cpu0_ITLB PREFETCH     ACCESS:          0 HIT:          0 MISS:          0
cpu0_ITLB WRITE        ACCESS:          0 HIT:          0 MISS:          0
cpu0_ITLB TRANSLATION  ACCESS:          0 HIT:          0 MISS:          0
cpu0_ITLB PREFETCH REQUESTED:          0 ISSUED:          0 USEFUL:          0 USELESS:          0
cpu0_ITLB AVERAGE MISS LATENCY: 6.969 cycles
cpu0_STLB TOTAL        ACCESS:    1616224 HIT:    1443659 MISS:     172565
cpu0_STLB LOAD         ACCESS:    1616224 HIT:    1443659 MISS:     172565
cpu0_STLB RFO          ACCESS:          0 HIT:          0 MISS:          0
cpu0_STLB PREFETCH     ACCESS:          0 HIT:          0 MISS:          0
cpu0_STLB WRITE        ACCESS:          0 HIT:          0 MISS:          0
cpu0_STLB TRANSLATION  ACCESS:          0 HIT:          0 MISS:          0
cpu0_STLB PREFETCH REQUESTED:          0 ISSUED:          0 USEFUL:          0 USELESS:          0
cpu0_STLB AVERAGE MISS LATENCY: 74.49 cycles

DRAM Statistics

Channel 0 RQ ROW_BUFFER_HIT:      44225
  ROW_BUFFER_MISS:     147856
 AVG DBUS CONGESTED CYCLE: 3.911
WQ ROW_BUFFER_HIT: Channel 0 
  ROW_BUFFER_MISS:      18093
  FULL:      78087
