WARNING: physical memory size is smaller than virtual memory size.

*** ChampSim Multicore Out-of-Order Simulator ***
Warmup Instructions: 25000000
Simulation Instructions: 100000000
Number of CPUs: 1
Page size: 4096

[L1D] Demand IPV: 1 2 2 1 4 Prefetch IPV: 1 2 1 1 4
[L1I] Demand IPV: 1 2 2 1 4 Prefetch IPV: 1 2 1 1 4
[L2C] Demand IPV: 1 2 2 1 4 Prefetch IPV: 1 2 1 1 4
[LLC] Demand IPV: 1 2 2 1 4 Prefetch IPV: 1 2 1 1 4
Off-chip DRAM Size: 4 GiB Channels: 1 Width: 64-bit Data Race: 3200 MT/s
Heartbeat CPU 0 instructions: 10000001 cycles: 2500123 heartbeat IPC: 4 cumulative IPC: 4 (Simulation time: 00 hr 00 min 21 sec)
Heartbeat CPU 0 instructions: 20000003 cycles: 5000124 heartbeat IPC: 4 cumulative IPC: 4 (Simulation time: 00 hr 00 min 43 sec)
Warmup finished CPU 0 instructions: 25000003 cycles: 6250125 cumulative IPC: 4 (Simulation time: 00 hr 00 min 54 sec)
Warmup complete CPU 0 instructions: 25000003 cycles: 6250125 cumulative IPC: 4 (Simulation time: 00 hr 00 min 54 sec)
Heartbeat CPU 0 instructions: 30000002 cycles: 13335525 heartbeat IPC: 1.2 cumulative IPC: 0.7057 (Simulation time: 00 hr 01 min 23 sec)
*** Reached end of trace: (0, "../traces/public_traces/srv/srv_69.champsimtrace.xz")
Heartbeat CPU 0 instructions: 40000004 cycles: 27594653 heartbeat IPC: 0.7013 cumulative IPC: 0.7028 (Simulation time: 00 hr 02 min 21 sec)
Heartbeat CPU 0 instructions: 50000001 cycles: 42800932 heartbeat IPC: 0.6576 cumulative IPC: 0.684 (Simulation time: 00 hr 03 min 22 sec)
Heartbeat CPU 0 instructions: 60000000 cycles: 56966130 heartbeat IPC: 0.706 cumulative IPC: 0.6901 (Simulation time: 00 hr 04 min 20 sec)
*** Reached end of trace: (0, "../traces/public_traces/srv/srv_69.champsimtrace.xz")
Heartbeat CPU 0 instructions: 70000002 cycles: 71121111 heartbeat IPC: 0.7065 cumulative IPC: 0.6937 (Simulation time: 00 hr 05 min 18 sec)
Heartbeat CPU 0 instructions: 80000002 cycles: 85407786 heartbeat IPC: 0.7 cumulative IPC: 0.6948 (Simulation time: 00 hr 06 min 16 sec)
Heartbeat CPU 0 instructions: 90000002 cycles: 100473499 heartbeat IPC: 0.6638 cumulative IPC: 0.6899 (Simulation time: 00 hr 07 min 16 sec)
*** Reached end of trace: (0, "../traces/public_traces/srv/srv_69.champsimtrace.xz")
Heartbeat CPU 0 instructions: 100000000 cycles: 114857838 heartbeat IPC: 0.6952 cumulative IPC: 0.6906 (Simulation time: 00 hr 08 min 15 sec)
Heartbeat CPU 0 instructions: 110000004 cycles: 129012376 heartbeat IPC: 0.7065 cumulative IPC: 0.6924 (Simulation time: 00 hr 09 min 13 sec)
Heartbeat CPU 0 instructions: 120000000 cycles: 143990414 heartbeat IPC: 0.6676 cumulative IPC: 0.6897 (Simulation time: 00 hr 10 min 13 sec)
*** Reached end of trace: (0, "../traces/public_traces/srv/srv_69.champsimtrace.xz")
Simulation finished CPU 0 instructions: 100000000 cycles: 144909381 cumulative IPC: 0.6901 (Simulation time: 00 hr 10 min 42 sec)
Simulation complete CPU 0 instructions: 100000000 cycles: 144909381 cumulative IPC: 0.6901 (Simulation time: 00 hr 10 min 42 sec)

ChampSim completed all CPUs

=== Simulation ===
CPU 0 runs ../traces/public_traces/srv/srv_69.champsimtrace.xz
Region of Interest Statistics

CPU 0 cumulative IPC: 0.6901 instructions: 100000000 cycles: 144909381
CPU 0 Branch Prediction Accuracy: 82.1% MPKI: 32.27 Average ROB Occupancy at Mispredict: 14.48
Branch type MPKI
BRANCH_DIRECT_JUMP: 0.775
BRANCH_INDIRECT: 17.5
BRANCH_CONDITIONAL: 10.8
BRANCH_DIRECT_CALL: 1.46
BRANCH_INDIRECT_CALL: 0.663
BRANCH_RETURN: 1.13

L1D TOTAL        ACCESS:   27674215 HIT:   25409011 MISS:    2265204
L1D LOAD         ACCESS:   17275753 HIT:   15742827 MISS:    1532926
L1D RFO          ACCESS:          0 HIT:          0 MISS:          0
L1D PREFETCH     ACCESS:          0 HIT:          0 MISS:          0
L1D WRITE        ACCESS:   10117836 HIT:    9647605 MISS:     470231
L1D TRANSLATION  ACCESS:     280626 HIT:      18579 MISS:     262047
L1D PREFETCH REQUESTED:          0 ISSUED:          0 USEFUL:          0 USELESS:          0
L1D AVERAGE MISS LATENCY: 27.51 cycles
L1I TOTAL        ACCESS:   10430538 HIT:    6898525 MISS:    3532013
L1I LOAD         ACCESS:   10430538 HIT:    6898525 MISS:    3532013
L1I RFO          ACCESS:          0 HIT:          0 MISS:          0
L1I PREFETCH     ACCESS:          0 HIT:          0 MISS:          0
L1I WRITE        ACCESS:          0 HIT:          0 MISS:          0
L1I TRANSLATION  ACCESS:          0 HIT:          0 MISS:          0
L1I PREFETCH REQUESTED:          0 ISSUED:          0 USEFUL:          0 USELESS:          0
L1I AVERAGE MISS LATENCY: 15.19 cycles
L2C TOTAL        ACCESS:    4822272 HIT:    2934423 MISS:    1887849
L2C LOAD         ACCESS:    3874747 HIT:    2359542 MISS:    1515205
L2C RFO          ACCESS:     193261 HIT:     119488 MISS:      73773
L2C PREFETCH     ACCESS:          0 HIT:          0 MISS:          0
L2C WRITE        ACCESS:     493420 HIT:     403053 MISS:      90367
L2C TRANSLATION  ACCESS:     260844 HIT:      52340 MISS:     208504
L2C PREFETCH REQUESTED:          0 ISSUED:          0 USEFUL:          0 USELESS:          0
L2C AVERAGE MISS LATENCY: 40.11 cycles
LLC TOTAL        ACCESS:    2003350 HIT:    1723220 MISS:     280130
LLC LOAD         ACCESS:    1515205 HIT:    1345955 MISS:     169250
LLC RFO          ACCESS:      73773 HIT:      50244 MISS:      23529
LLC PREFETCH     ACCESS:          0 HIT:          0 MISS:          0
LLC WRITE        ACCESS:     205868 HIT:     176384 MISS:      29484
LLC TRANSLATION  ACCESS:     208504 HIT:     150637 MISS:      57867
LLC PREFETCH REQUESTED:          0 ISSUED:          0 USEFUL:          0 USELESS:          0
LLC AVERAGE MISS LATENCY: 141.1 cycles
cpu0_DTLB TOTAL        ACCESS:   22436973 HIT:   20929710 MISS:    1507263
cpu0_DTLB LOAD         ACCESS:   22436973 HIT:   20929710 MISS:    1507263
cpu0_DTLB RFO          ACCESS:          0 HIT:          0 MISS:          0
cpu0_DTLB PREFETCH     ACCESS:          0 HIT:          0 MISS:          0
cpu0_DTLB WRITE        ACCESS:          0 HIT:          0 MISS:          0
cpu0_DTLB TRANSLATION  ACCESS:          0 HIT:          0 MISS:          0
cpu0_DTLB PREFETCH REQUESTED:          0 ISSUED:          0 USEFUL:          0 USELESS:          0
cpu0_DTLB AVERAGE MISS LATENCY: 14.22 cycles
cpu0_ITLB TOTAL        ACCESS:    9287663 HIT:    8494100 MISS:     793563
cpu0_ITLB LOAD         ACCESS:    9287663 HIT:    8494100 MISS:     793563
cpu0_ITLB RFO          ACCESS:          0 HIT:          0 MISS:          0
cpu0_ITLB PREFETCH     ACCESS:          0 HIT:          0 MISS:          0
cpu0_ITLB WRITE        ACCESS:          0 HIT:          0 MISS:          0
cpu0_ITLB TRANSLATION  ACCESS:          0 HIT:          0 MISS:          0
cpu0_ITLB PREFETCH REQUESTED:          0 ISSUED:          0 USEFUL:          0 USELESS:          0
cpu0_ITLB AVERAGE MISS LATENCY: 10.27 cycles
cpu0_STLB TOTAL        ACCESS:    1584020 HIT:    1357711 MISS:     226309
cpu0_STLB LOAD         ACCESS:    1584020 HIT:    1357711 MISS:     226309
cpu0_STLB RFO          ACCESS:          0 HIT:          0 MISS:          0
cpu0_STLB PREFETCH     ACCESS:          0 HIT:          0 MISS:          0
cpu0_STLB WRITE        ACCESS:          0 HIT:          0 MISS:          0
cpu0_STLB TRANSLATION  ACCESS:          0 HIT:          0 MISS:          0
cpu0_STLB PREFETCH REQUESTED:          0 ISSUED:          0 USEFUL:          0 USELESS:          0
cpu0_STLB AVERAGE MISS LATENCY: 82.54 cycles

DRAM Statistics

Channel 0 RQ ROW_BUFFER_HIT:      38722
  ROW_BUFFER_MISS:     211917
 AVG DBUS CONGESTED CYCLE: 3.883
WQ ROW_BUFFER_HIT: Channel 0 
  ROW_BUFFER_MISS:      21721
  FULL:      83198
