WARNING: physical memory size is smaller than virtual memory size.

*** ChampSim Multicore Out-of-Order Simulator ***
Warmup Instructions: 25000000
Simulation Instructions: 100000000
Number of CPUs: 1
Page size: 4096

[L1D] Demand IPV: 1 2 2 1 4 Prefetch IPV: 1 2 1 1 4
[L1I] Demand IPV: 1 2 2 1 4 Prefetch IPV: 1 2 1 1 4
[L2C] Demand IPV: 1 2 2 1 4 Prefetch IPV: 1 2 1 1 4
[LLC] Demand IPV: 1 2 2 1 4 Prefetch IPV: 1 2 1 1 4
Off-chip DRAM Size: 4 GiB Channels: 1 Width: 64-bit Data Race: 3200 MT/s
Heartbeat CPU 0 instructions: 10000001 cycles: 2500125 heartbeat IPC: 4 cumulative IPC: 4 (Simulation time: 00 hr 00 min 22 sec)
Heartbeat CPU 0 instructions: 20000002 cycles: 5000140 heartbeat IPC: 4 cumulative IPC: 4 (Simulation time: 00 hr 00 min 44 sec)
Warmup finished CPU 0 instructions: 25000002 cycles: 6250141 cumulative IPC: 4 (Simulation time: 00 hr 00 min 55 sec)
Warmup complete CPU 0 instructions: 25000002 cycles: 6250141 cumulative IPC: 4 (Simulation time: 00 hr 00 min 55 sec)
Heartbeat CPU 0 instructions: 30000000 cycles: 13216056 heartbeat IPC: 1.217 cumulative IPC: 0.7178 (Simulation time: 00 hr 01 min 24 sec)
*** Reached end of trace: (0, "../traces/public_traces/srv/srv_63.champsimtrace.xz")
Heartbeat CPU 0 instructions: 40000001 cycles: 25591379 heartbeat IPC: 0.8081 cumulative IPC: 0.7755 (Simulation time: 00 hr 02 min 17 sec)
Heartbeat CPU 0 instructions: 50000000 cycles: 38340660 heartbeat IPC: 0.7844 cumulative IPC: 0.779 (Simulation time: 00 hr 03 min 12 sec)
Heartbeat CPU 0 instructions: 60000004 cycles: 51254479 heartbeat IPC: 0.7744 cumulative IPC: 0.7777 (Simulation time: 00 hr 04 min 07 sec)
*** Reached end of trace: (0, "../traces/public_traces/srv/srv_63.champsimtrace.xz")
Heartbeat CPU 0 instructions: 70000004 cycles: 63660981 heartbeat IPC: 0.806 cumulative IPC: 0.7838 (Simulation time: 00 hr 05 min 00 sec)
Heartbeat CPU 0 instructions: 80000001 cycles: 76421430 heartbeat IPC: 0.7837 cumulative IPC: 0.7838 (Simulation time: 00 hr 05 min 55 sec)
Heartbeat CPU 0 instructions: 90000002 cycles: 89209801 heartbeat IPC: 0.782 cumulative IPC: 0.7835 (Simulation time: 00 hr 06 min 49 sec)
*** Reached end of trace: (0, "../traces/public_traces/srv/srv_63.champsimtrace.xz")
Heartbeat CPU 0 instructions: 100000003 cycles: 101778233 heartbeat IPC: 0.7956 cumulative IPC: 0.7851 (Simulation time: 00 hr 07 min 44 sec)
Heartbeat CPU 0 instructions: 110000001 cycles: 114423369 heartbeat IPC: 0.7908 cumulative IPC: 0.7858 (Simulation time: 00 hr 08 min 38 sec)
Heartbeat CPU 0 instructions: 120000000 cycles: 126945324 heartbeat IPC: 0.7986 cumulative IPC: 0.7871 (Simulation time: 00 hr 09 min 32 sec)
*** Reached end of trace: (0, "../traces/public_traces/srv/srv_63.champsimtrace.xz")
Simulation finished CPU 0 instructions: 100000001 cycles: 126822876 cumulative IPC: 0.7885 (Simulation time: 00 hr 09 min 58 sec)
Simulation complete CPU 0 instructions: 100000001 cycles: 126822876 cumulative IPC: 0.7885 (Simulation time: 00 hr 09 min 58 sec)

ChampSim completed all CPUs

=== Simulation ===
CPU 0 runs ../traces/public_traces/srv/srv_63.champsimtrace.xz
Region of Interest Statistics

CPU 0 cumulative IPC: 0.7885 instructions: 100000001 cycles: 126822876
CPU 0 Branch Prediction Accuracy: 84.66% MPKI: 27.48 Average ROB Occupancy at Mispredict: 17.48
Branch type MPKI
BRANCH_DIRECT_JUMP: 0.5
BRANCH_INDIRECT: 15.1
BRANCH_CONDITIONAL: 9.77
BRANCH_DIRECT_CALL: 0.927
BRANCH_INDIRECT_CALL: 0.506
BRANCH_RETURN: 0.694

L1D TOTAL        ACCESS:   27100249 HIT:   24901417 MISS:    2198832
L1D LOAD         ACCESS:   16739547 HIT:   15194172 MISS:    1545375
L1D RFO          ACCESS:          0 HIT:          0 MISS:          0
L1D PREFETCH     ACCESS:          0 HIT:          0 MISS:          0
L1D WRITE        ACCESS:   10128578 HIT:    9692347 MISS:     436231
L1D TRANSLATION  ACCESS:     232124 HIT:      14898 MISS:     217226
L1D PREFETCH REQUESTED:          0 ISSUED:          0 USEFUL:          0 USELESS:          0
L1D AVERAGE MISS LATENCY: 25.26 cycles
L1I TOTAL        ACCESS:   10752339 HIT:    7009059 MISS:    3743280
L1I LOAD         ACCESS:   10752339 HIT:    7009059 MISS:    3743280
L1I RFO          ACCESS:          0 HIT:          0 MISS:          0
L1I PREFETCH     ACCESS:          0 HIT:          0 MISS:          0
L1I WRITE        ACCESS:          0 HIT:          0 MISS:          0
L1I TRANSLATION  ACCESS:          0 HIT:          0 MISS:          0
L1I PREFETCH REQUESTED:          0 ISSUED:          0 USEFUL:          0 USELESS:          0
L1I AVERAGE MISS LATENCY: 13.12 cycles
L2C TOTAL        ACCESS:    4868928 HIT:    3312281 MISS:    1556647
L2C LOAD         ACCESS:    3949539 HIT:    2697804 MISS:    1251735
L2C RFO          ACCESS:     189370 HIT:     127359 MISS:      62011
L2C PREFETCH     ACCESS:          0 HIT:          0 MISS:          0
L2C WRITE        ACCESS:     514108 HIT:     434203 MISS:      79905
L2C TRANSLATION  ACCESS:     215911 HIT:      52915 MISS:     162996
L2C PREFETCH REQUESTED:          0 ISSUED:          0 USEFUL:          0 USELESS:          0
L2C AVERAGE MISS LATENCY: 41.67 cycles
LLC TOTAL        ACCESS:    1667414 HIT:    1419989 MISS:     247425
LLC LOAD         ACCESS:    1251735 HIT:    1094625 MISS:     157110
LLC RFO          ACCESS:      62011 HIT:      40323 MISS:      21688
LLC PREFETCH     ACCESS:          0 HIT:          0 MISS:          0
LLC WRITE        ACCESS:     190672 HIT:     165703 MISS:      24969
LLC TRANSLATION  ACCESS:     162996 HIT:     119338 MISS:      43658
LLC PREFETCH REQUESTED:          0 ISSUED:          0 USEFUL:          0 USELESS:          0
LLC AVERAGE MISS LATENCY: 141.9 cycles
cpu0_DTLB TOTAL        ACCESS:   21876206 HIT:   20270134 MISS:    1606072
cpu0_DTLB LOAD         ACCESS:   21876206 HIT:   20270134 MISS:    1606072
cpu0_DTLB RFO          ACCESS:          0 HIT:          0 MISS:          0
cpu0_DTLB PREFETCH     ACCESS:          0 HIT:          0 MISS:          0
cpu0_DTLB WRITE        ACCESS:          0 HIT:          0 MISS:          0
cpu0_DTLB TRANSLATION  ACCESS:          0 HIT:          0 MISS:          0
cpu0_DTLB PREFETCH REQUESTED:          0 ISSUED:          0 USEFUL:          0 USELESS:          0
cpu0_DTLB AVERAGE MISS LATENCY: 12.39 cycles
cpu0_ITLB TOTAL        ACCESS:    9592208 HIT:    8796942 MISS:     795266
cpu0_ITLB LOAD         ACCESS:    9592208 HIT:    8796942 MISS:     795266
cpu0_ITLB RFO          ACCESS:          0 HIT:          0 MISS:          0
cpu0_ITLB PREFETCH     ACCESS:          0 HIT:          0 MISS:          0
cpu0_ITLB WRITE        ACCESS:          0 HIT:          0 MISS:          0
cpu0_ITLB TRANSLATION  ACCESS:          0 HIT:          0 MISS:          0
cpu0_ITLB PREFETCH REQUESTED:          0 ISSUED:          0 USEFUL:          0 USELESS:          0
cpu0_ITLB AVERAGE MISS LATENCY: 7.61 cycles
cpu0_STLB TOTAL        ACCESS:    1632278 HIT:    1454301 MISS:     177977
cpu0_STLB LOAD         ACCESS:    1632278 HIT:    1454301 MISS:     177977
cpu0_STLB RFO          ACCESS:          0 HIT:          0 MISS:          0
cpu0_STLB PREFETCH     ACCESS:          0 HIT:          0 MISS:          0
cpu0_STLB WRITE        ACCESS:          0 HIT:          0 MISS:          0
cpu0_STLB TRANSLATION  ACCESS:          0 HIT:          0 MISS:          0
cpu0_STLB PREFETCH REQUESTED:          0 ISSUED:          0 USEFUL:          0 USELESS:          0
cpu0_STLB AVERAGE MISS LATENCY: 83.45 cycles

DRAM Statistics

Channel 0 RQ ROW_BUFFER_HIT:      48521
  ROW_BUFFER_MISS:     173933
 AVG DBUS CONGESTED CYCLE: 3.902
WQ ROW_BUFFER_HIT: Channel 0 
  ROW_BUFFER_MISS:      20128
  FULL:      82147
