WARNING: physical memory size is smaller than virtual memory size.

*** ChampSim Multicore Out-of-Order Simulator ***
Warmup Instructions: 30000000
Simulation Instructions: 100000000
Number of CPUs: 1
Page size: 4096

BTB:
Basic BTB sets: 1024 ways: 8
Indirect:
history lengths: 0 0 10 16 27 44 60 96 109 219 449 487 714 1313 2146 3881 
ITTAGE tables: 64768 bytes;Region table: 240 bytes;IUM: 384 bytes;Total Storage= 65392 bytes;
RAS:
RAS size: 64
Berti Prefetcher
CPU 0 Entangling prefetcher
Off-chip DRAM Size: 8 GiB Channels: 2 Width: 64-bit Data Race: 6400 MT/s
Heartbeat CPU 0 instructions: 10000009 cycles: 2055560 heartbeat IPC: 4.865 cumulative IPC: 4.865 (Simulation time: 00 hr 01 min 01 sec)
Heartbeat CPU 0 instructions: 20000006 cycles: 3870603 heartbeat IPC: 5.51 cumulative IPC: 5.167 (Simulation time: 00 hr 02 min 02 sec)
Heartbeat CPU 0 instructions: 30000005 cycles: 5585488 heartbeat IPC: 5.831 cumulative IPC: 5.371 (Simulation time: 00 hr 02 min 59 sec)
Warmup finished CPU 0 instructions: 30000005 cycles: 5585489 cumulative IPC: 5.371 (Simulation time: 00 hr 02 min 59 sec)
Warmup complete CPU 0 instructions: 30000005 cycles: 5585489 cumulative IPC: 5.371 (Simulation time: 00 hr 02 min 59 sec)
*** Reached end of trace: (0, "../traces/public_traces/compute_fp/compute_fp_1.champsimtrace.xz")
Heartbeat CPU 0 instructions: 40000002 cycles: 12485891 heartbeat IPC: 1.449 cumulative IPC: 1.449 (Simulation time: 00 hr 04 min 47 sec)
Heartbeat CPU 0 instructions: 50000011 cycles: 25731200 heartbeat IPC: 0.755 cumulative IPC: 0.9928 (Simulation time: 00 hr 08 min 29 sec)
Heartbeat CPU 0 instructions: 60000002 cycles: 45675366 heartbeat IPC: 0.5014 cumulative IPC: 0.7483 (Simulation time: 00 hr 14 min 36 sec)
*** Reached end of trace: (0, "../traces/public_traces/compute_fp/compute_fp_1.champsimtrace.xz")
Heartbeat CPU 0 instructions: 70000002 cycles: 52490584 heartbeat IPC: 1.467 cumulative IPC: 0.8528 (Simulation time: 00 hr 16 min 23 sec)
Heartbeat CPU 0 instructions: 80000005 cycles: 65608557 heartbeat IPC: 0.7623 cumulative IPC: 0.833 (Simulation time: 00 hr 19 min 51 sec)
Heartbeat CPU 0 instructions: 90000000 cycles: 85666040 heartbeat IPC: 0.4986 cumulative IPC: 0.7492 (Simulation time: 00 hr 24 min 49 sec)
*** Reached end of trace: (0, "../traces/public_traces/compute_fp/compute_fp_1.champsimtrace.xz")
Heartbeat CPU 0 instructions: 100000001 cycles: 92457532 heartbeat IPC: 1.472 cumulative IPC: 0.8058 (Simulation time: 00 hr 26 min 19 sec)
Heartbeat CPU 0 instructions: 110000011 cycles: 105291118 heartbeat IPC: 0.7792 cumulative IPC: 0.8024 (Simulation time: 00 hr 29 min 24 sec)
Heartbeat CPU 0 instructions: 120000007 cycles: 125573188 heartbeat IPC: 0.493 cumulative IPC: 0.7501 (Simulation time: 00 hr 34 min 21 sec)
*** Reached end of trace: (0, "../traces/public_traces/compute_fp/compute_fp_1.champsimtrace.xz")
Heartbeat CPU 0 instructions: 130000001 cycles: 132325861 heartbeat IPC: 1.481 cumulative IPC: 0.789 (Simulation time: 00 hr 35 min 52 sec)
Simulation finished CPU 0 instructions: 100000002 cycles: 126740375 cumulative IPC: 0.789 (Simulation time: 00 hr 35 min 52 sec)
Simulation complete CPU 0 instructions: 100000002 cycles: 126740375 cumulative IPC: 0.789 (Simulation time: 00 hr 35 min 52 sec)

ChampSim completed all CPUs

=== Simulation ===
CPU 0 runs ../traces/public_traces/compute_fp/compute_fp_1.champsimtrace.xz
Region of Interest Statistics

CPU 0 cumulative IPC: 0.789 instructions: 100000002 cycles: 126740375
CPU 0 Branch Prediction Accuracy: 95.94% MPKI: 6.03 Average ROB Occupancy at Mispredict: 37.47
Branch type MPKI
BRANCH_DIRECT_JUMP: 0
BRANCH_INDIRECT: 0.158
BRANCH_CONDITIONAL: 5.87
BRANCH_DIRECT_CALL: 0
BRANCH_INDIRECT_CALL: 3e-05
BRANCH_RETURN: 4e-05

LLC TOTAL        ACCESS:    7137990 HIT:    2047359 MISS:    5090631
LLC LOAD         ACCESS:    1305100 HIT:     233808 MISS:    1071292
LLC RFO          ACCESS:      32000 HIT:       9607 MISS:      22393
LLC PREFETCH     ACCESS:    4231287 HIT:     269320 MISS:    3961967
LLC WRITE        ACCESS:    1545044 HIT:    1530127 MISS:      14917
LLC TRANSLATION  ACCESS:      24559 HIT:       4497 MISS:      20062
LLC PREFETCH REQUESTED:          0 ISSUED:          0 USEFUL:          0 USELESS:          0
LLC AVERAGE MISS LATENCY: 464.5 cycles
cpu0_DTLB TOTAL        ACCESS:   26575638 HIT:   25805945 MISS:     769693
cpu0_DTLB LOAD         ACCESS:   26575638 HIT:   25805945 MISS:     769693
cpu0_DTLB RFO          ACCESS:          0 HIT:          0 MISS:          0
cpu0_DTLB PREFETCH     ACCESS:          0 HIT:          0 MISS:          0
cpu0_DTLB WRITE        ACCESS:          0 HIT:          0 MISS:          0
cpu0_DTLB TRANSLATION  ACCESS:          0 HIT:          0 MISS:          0
cpu0_DTLB PREFETCH REQUESTED:          0 ISSUED:          0 USEFUL:          0 USELESS:          0
cpu0_DTLB AVERAGE MISS LATENCY: 24.72 cycles
cpu0_ITLB TOTAL        ACCESS:      13156 HIT:      13156 MISS:          0
cpu0_ITLB LOAD         ACCESS:      13156 HIT:      13156 MISS:          0
cpu0_ITLB RFO          ACCESS:          0 HIT:          0 MISS:          0
cpu0_ITLB PREFETCH     ACCESS:          0 HIT:          0 MISS:          0
cpu0_ITLB WRITE        ACCESS:          0 HIT:          0 MISS:          0
cpu0_ITLB TRANSLATION  ACCESS:          0 HIT:          0 MISS:          0
cpu0_ITLB PREFETCH REQUESTED:          0 ISSUED:          0 USEFUL:          0 USELESS:          0
cpu0_ITLB AVERAGE MISS LATENCY: -nan cycles
cpu0_L1D TOTAL        ACCESS:   57110604 HIT:   40043907 MISS:   17066697
cpu0_L1D LOAD         ACCESS:   17157204 HIT:    9679354 MISS:    7477850
cpu0_L1D RFO          ACCESS:          0 HIT:          0 MISS:          0
cpu0_L1D PREFETCH     ACCESS:   33136609 HIT:   23876681 MISS:    9259928
cpu0_L1D WRITE        ACCESS:    6730561 HIT:    6441301 MISS:     289260
cpu0_L1D TRANSLATION  ACCESS:      86230 HIT:      46571 MISS:      39659
cpu0_L1D PREFETCH REQUESTED:  202984260 ISSUED:   33136618 USEFUL:    1691100 USELESS:     224808
cpu0_L1D AVERAGE MISS LATENCY: 81.38 cycles
cpu0_L1I TOTAL        ACCESS:      19175 HIT:      15640 MISS:       3535
cpu0_L1I LOAD         ACCESS:       8858 HIT:       7390 MISS:       1468
cpu0_L1I RFO          ACCESS:          0 HIT:          0 MISS:          0
cpu0_L1I PREFETCH     ACCESS:      10317 HIT:       8250 MISS:       2067
cpu0_L1I WRITE        ACCESS:          0 HIT:          0 MISS:          0
cpu0_L1I TRANSLATION  ACCESS:          0 HIT:          0 MISS:          0
cpu0_L1I PREFETCH REQUESTED:      12079 ISSUED:      10317 USEFUL:       1734 USELESS:         29
cpu0_L1I AVERAGE MISS LATENCY: 237.5 cycles
cpu0_L2C TOTAL        ACCESS:   22277100 HIT:    6244453 MISS:   16032647
cpu0_L2C LOAD         ACCESS:    3103910 HIT:     848918 MISS:    2254992
cpu0_L2C RFO          ACCESS:      53111 HIT:      21107 MISS:      32004
cpu0_L2C PREFETCH     ACCESS:   17279464 HIT:    3558372 MISS:   13721092
cpu0_L2C WRITE        ACCESS:    1801272 HIT:    1801272 MISS:          0
cpu0_L2C TRANSLATION  ACCESS:      39343 HIT:      14784 MISS:      24559
cpu0_L2C PREFETCH REQUESTED:   10651187 ISSUED:    9987706 USEFUL:    1192945 USELESS:    1390402
cpu0_L2C AVERAGE MISS LATENCY: 144.1 cycles
cpu0_STLB TOTAL        ACCESS:     368911 HIT:     284265 MISS:      84646
cpu0_STLB LOAD         ACCESS:     368911 HIT:     284265 MISS:      84646
cpu0_STLB RFO          ACCESS:          0 HIT:          0 MISS:          0
cpu0_STLB PREFETCH     ACCESS:          0 HIT:          0 MISS:          0
cpu0_STLB WRITE        ACCESS:          0 HIT:          0 MISS:          0
cpu0_STLB TRANSLATION  ACCESS:          0 HIT:          0 MISS:          0
cpu0_STLB PREFETCH REQUESTED:          0 ISSUED:          0 USEFUL:          0 USELESS:          0
cpu0_STLB AVERAGE MISS LATENCY: 251.1 cycles

DRAM Statistics

Channel 0 RQ ROW_BUFFER_HIT:    1140191
  ROW_BUFFER_MISS:    1402055
 AVG DBUS CONGESTED CYCLE: 3.96
WQ ROW_BUFFER_HIT: Channel 0 
  ROW_BUFFER_MISS:      18591
  FULL:     638788

Channel 1 RQ ROW_BUFFER_HIT:    1144383
  ROW_BUFFER_MISS:    1386314
 AVG DBUS CONGESTED CYCLE: 3.956
WQ ROW_BUFFER_HIT: Channel 1 
  ROW_BUFFER_MISS:      18950
  FULL:     639742
BERTI TO_L1: 62159584 TO_L2: 171260009 TO_L2_BC_MSHR: 84168188
BERTI AVG_LAT: 281.895 NUM_TRACK_LATENCY: 6559117 NUM_CANT_TRACK_LATENCY: 540
BERTI CROSS_PAGE 29684876 NO_CROSS_PAGE: 203734717
BERTI FOUND_BERTI: 71159885 NO_FOUND_BERTI: 1169370
BERTI AVERAGE_ISSUED: 3.61707
CPU 0 L1I Entangling prefetcher final stats
IP accesses: 30bc c2f00 452 / 10103
IP misses: 30bc c2f00 452 / 2713
IP hits: 0 0 0 / 0
IP late: f6 3d80 7 / 715
IP wrong: d8a 36280 4 / 29
miss rate: 0.268535
coverage: 0
coverage_late: 0.263546
accuracy: 0
accuracy_late: 0.961022
discarded: 0
evicts entangled j table: 0
evicts entangled k table: 42
max bb size: 19
formats: 7 0 36 33 18 15 0 
hist_lookups: 10 9 9 11 29 29 26 14 18 19 18 16 8 5 3 0 3 969 
hist_lookups_evict: 0.250837 %
hist_lookups_shortlat: 81.0201 %
bb_found_hist: 0 1382 423 196 74 125 50 4 6 43 26 7 8 7 38 5 0 0 0 7 0 0 0 0 0 0 0 0 0 0 0 0 0 0 0 0 0 0 0 0 0 0 0 0 0 0 0 0 0 0 0 0 0 0 0 0 0 0 0 0 0 0 0 0 
bb_found_summary: 5764 2401 2.40067
entangled_found_hist: 0 623 330 272 163 26 0 0 
entangled_found_summary: 2881 1414 2.03749
bb_ent_found_hist: 0 893 501 263 129 13 66 8 12 21 23 7 7 0 46 0 0 0 0 14 0 0 0 0 0 0 0 0 0 0 0 0 0 0 0 0 0 0 0 0 0 0 0 0 0 0 0 0 0 0 0 0 0 0 0 0 0 0 0 0 0 0 0 0 
bb_ent_found_summary: 5303 2003 2.64753
