WARNING: physical memory size is smaller than virtual memory size.

*** ChampSim Multicore Out-of-Order Simulator ***
Warmup Instructions: 30000000
Simulation Instructions: 100000000
Number of CPUs: 1
Page size: 4096

BTB:
Basic BTB sets: 1024 ways: 8
Indirect:
history lengths: 0 0 10 16 27 44 60 96 109 219 449 487 714 1313 2146 3881 
ITTAGE tables: 64768 bytes;Region table: 240 bytes;IUM: 384 bytes;Total Storage= 65392 bytes;
RAS:
RAS size: 64
Berti Prefetcher
CPU 0 Entangling prefetcher
Off-chip DRAM Size: 8 GiB Channels: 2 Width: 64-bit Data Race: 6400 MT/s
Heartbeat CPU 0 instructions: 10000004 cycles: 1666751 heartbeat IPC: 6 cumulative IPC: 6 (Simulation time: 00 hr 00 min 38 sec)
Heartbeat CPU 0 instructions: 20000006 cycles: 3333418 heartbeat IPC: 6 cumulative IPC: 6 (Simulation time: 00 hr 01 min 16 sec)
Heartbeat CPU 0 instructions: 30000002 cycles: 5000084 heartbeat IPC: 6 cumulative IPC: 6 (Simulation time: 00 hr 01 min 55 sec)
Warmup finished CPU 0 instructions: 30000002 cycles: 5000085 cumulative IPC: 6 (Simulation time: 00 hr 01 min 55 sec)
Warmup complete CPU 0 instructions: 30000002 cycles: 5000085 cumulative IPC: 6 (Simulation time: 00 hr 01 min 55 sec)
*** Reached end of trace: (0, "../traces/public_traces/compute_fp/compute_fp_3.champsimtrace.xz")
Heartbeat CPU 0 instructions: 40000006 cycles: 7451706 heartbeat IPC: 4.079 cumulative IPC: 4.079 (Simulation time: 00 hr 02 min 51 sec)
Heartbeat CPU 0 instructions: 50000000 cycles: 9893275 heartbeat IPC: 4.096 cumulative IPC: 4.087 (Simulation time: 00 hr 03 min 48 sec)
Heartbeat CPU 0 instructions: 60000005 cycles: 12330810 heartbeat IPC: 4.103 cumulative IPC: 4.092 (Simulation time: 00 hr 04 min 46 sec)
*** Reached end of trace: (0, "../traces/public_traces/compute_fp/compute_fp_3.champsimtrace.xz")
Heartbeat CPU 0 instructions: 70000001 cycles: 14777128 heartbeat IPC: 4.088 cumulative IPC: 4.091 (Simulation time: 00 hr 05 min 43 sec)
Heartbeat CPU 0 instructions: 80000003 cycles: 17212356 heartbeat IPC: 4.106 cumulative IPC: 4.094 (Simulation time: 00 hr 06 min 40 sec)
Heartbeat CPU 0 instructions: 90000007 cycles: 19650559 heartbeat IPC: 4.101 cumulative IPC: 4.095 (Simulation time: 00 hr 07 min 37 sec)
*** Reached end of trace: (0, "../traces/public_traces/compute_fp/compute_fp_3.champsimtrace.xz")
Heartbeat CPU 0 instructions: 100000009 cycles: 22102273 heartbeat IPC: 4.079 cumulative IPC: 4.093 (Simulation time: 00 hr 08 min 34 sec)
Heartbeat CPU 0 instructions: 110000011 cycles: 24542361 heartbeat IPC: 4.098 cumulative IPC: 4.094 (Simulation time: 00 hr 09 min 31 sec)
Heartbeat CPU 0 instructions: 120000008 cycles: 26995017 heartbeat IPC: 4.077 cumulative IPC: 4.092 (Simulation time: 00 hr 10 min 28 sec)
*** Reached end of trace: (0, "../traces/public_traces/compute_fp/compute_fp_3.champsimtrace.xz")
Heartbeat CPU 0 instructions: 130000003 cycles: 29442122 heartbeat IPC: 4.086 cumulative IPC: 4.091 (Simulation time: 00 hr 11 min 24 sec)
Simulation finished CPU 0 instructions: 100000001 cycles: 24442038 cumulative IPC: 4.091 (Simulation time: 00 hr 11 min 24 sec)
Simulation complete CPU 0 instructions: 100000001 cycles: 24442038 cumulative IPC: 4.091 (Simulation time: 00 hr 11 min 24 sec)

ChampSim completed all CPUs

=== Simulation ===
CPU 0 runs ../traces/public_traces/compute_fp/compute_fp_3.champsimtrace.xz
Region of Interest Statistics

CPU 0 cumulative IPC: 4.091 instructions: 100000001 cycles: 24442038
CPU 0 Branch Prediction Accuracy: 99.99% MPKI: 0.00546 Average ROB Occupancy at Mispredict: 409.9
Branch type MPKI
BRANCH_DIRECT_JUMP: 0
BRANCH_INDIRECT: 0.00546
BRANCH_CONDITIONAL: 0
BRANCH_DIRECT_CALL: 0
BRANCH_INDIRECT_CALL: 0
BRANCH_RETURN: 0

LLC TOTAL        ACCESS:    3153104 HIT:       1020 MISS:    3152084
LLC LOAD         ACCESS:       6400 HIT:          0 MISS:       6400
LLC RFO          ACCESS:        200 HIT:          0 MISS:        200
LLC PREFETCH     ACCESS:    3144461 HIT:          0 MISS:    3144461
LLC WRITE        ACCESS:        800 HIT:        800 MISS:          0
LLC TRANSLATION  ACCESS:       1243 HIT:        220 MISS:       1023
LLC PREFETCH REQUESTED:          0 ISSUED:          0 USEFUL:          0 USELESS:          0
LLC AVERAGE MISS LATENCY: 241.4 cycles
cpu0_DTLB TOTAL        ACCESS:    8946307 HIT:    8838028 MISS:     108279
cpu0_DTLB LOAD         ACCESS:    8946307 HIT:    8838028 MISS:     108279
cpu0_DTLB RFO          ACCESS:          0 HIT:          0 MISS:          0
cpu0_DTLB PREFETCH     ACCESS:          0 HIT:          0 MISS:          0
cpu0_DTLB WRITE        ACCESS:          0 HIT:          0 MISS:          0
cpu0_DTLB TRANSLATION  ACCESS:          0 HIT:          0 MISS:          0
cpu0_DTLB PREFETCH REQUESTED:          0 ISSUED:          0 USEFUL:          0 USELESS:          0
cpu0_DTLB AVERAGE MISS LATENCY: 13.1 cycles
cpu0_ITLB TOTAL        ACCESS:       8779 HIT:       8779 MISS:          0
cpu0_ITLB LOAD         ACCESS:       8779 HIT:       8779 MISS:          0
cpu0_ITLB RFO          ACCESS:          0 HIT:          0 MISS:          0
cpu0_ITLB PREFETCH     ACCESS:          0 HIT:          0 MISS:          0
cpu0_ITLB WRITE        ACCESS:          0 HIT:          0 MISS:          0
cpu0_ITLB TRANSLATION  ACCESS:          0 HIT:          0 MISS:          0
cpu0_ITLB PREFETCH REQUESTED:          0 ISSUED:          0 USEFUL:          0 USELESS:          0
cpu0_ITLB AVERAGE MISS LATENCY: -nan cycles
cpu0_L1D TOTAL        ACCESS:   19556883 HIT:    5848755 MISS:   13708128
cpu0_L1D LOAD         ACCESS:    5206464 HIT:    2919470 MISS:    2286994
cpu0_L1D RFO          ACCESS:          0 HIT:          0 MISS:          0
cpu0_L1D PREFETCH     ACCESS:   14296501 HIT:    2880536 MISS:   11415965
cpu0_L1D WRITE        ACCESS:       4235 HIT:       3285 MISS:        950
cpu0_L1D TRANSLATION  ACCESS:      49683 HIT:      45464 MISS:       4219
cpu0_L1D PREFETCH REQUESTED:   56965259 ISSUED:   14296495 USEFUL:    1891331 USELESS:        131
cpu0_L1D AVERAGE MISS LATENCY: 22.53 cycles
cpu0_L1I TOTAL        ACCESS:      12670 HIT:      12670 MISS:          0
cpu0_L1I LOAD         ACCESS:       6377 HIT:       6377 MISS:          0
cpu0_L1I RFO          ACCESS:          0 HIT:          0 MISS:          0
cpu0_L1I PREFETCH     ACCESS:       6293 HIT:       6293 MISS:          0
cpu0_L1I WRITE        ACCESS:          0 HIT:          0 MISS:          0
cpu0_L1I TRANSLATION  ACCESS:          0 HIT:          0 MISS:          0
cpu0_L1I PREFETCH REQUESTED:       7341 ISSUED:       6293 USEFUL:          0 USELESS:          0
cpu0_L1I AVERAGE MISS LATENCY: -nan cycles
cpu0_L2C TOTAL        ACCESS:   16546189 HIT:    5690236 MISS:   10855953
cpu0_L2C LOAD         ACCESS:    1258366 HIT:    1017869 MISS:     240497
cpu0_L2C RFO          ACCESS:        230 HIT:         30 MISS:        200
cpu0_L2C PREFETCH     ACCESS:   15282578 HIT:    4668565 MISS:   10614013
cpu0_L2C WRITE        ACCESS:        800 HIT:        800 MISS:          0
cpu0_L2C TRANSLATION  ACCESS:       4215 HIT:       2972 MISS:       1243
cpu0_L2C PREFETCH REQUESTED:   11189809 ISSUED:    5793132 USEFUL:     517980 USELESS:     317625
cpu0_L2C AVERAGE MISS LATENCY: 70.83 cycles
cpu0_STLB TOTAL        ACCESS:      49585 HIT:          2 MISS:      49583
cpu0_STLB LOAD         ACCESS:      49585 HIT:          2 MISS:      49583
cpu0_STLB RFO          ACCESS:          0 HIT:          0 MISS:          0
cpu0_STLB PREFETCH     ACCESS:          0 HIT:          0 MISS:          0
cpu0_STLB WRITE        ACCESS:          0 HIT:          0 MISS:          0
cpu0_STLB TRANSLATION  ACCESS:          0 HIT:          0 MISS:          0
cpu0_STLB PREFETCH REQUESTED:          0 ISSUED:          0 USEFUL:          0 USELESS:          0
cpu0_STLB AVERAGE MISS LATENCY: 29.34 cycles

DRAM Statistics

Channel 0 RQ ROW_BUFFER_HIT:    1548030
  ROW_BUFFER_MISS:      28035
 AVG DBUS CONGESTED CYCLE: 3.992
WQ ROW_BUFFER_HIT: Channel 0 
  ROW_BUFFER_MISS:         75
  FULL:        268

Channel 1 RQ ROW_BUFFER_HIT:    1549635
  ROW_BUFFER_MISS:      26180
 AVG DBUS CONGESTED CYCLE: 3.991
WQ ROW_BUFFER_HIT: Channel 1 
  ROW_BUFFER_MISS:         58
  FULL:        262
BERTI TO_L1: 24102398 TO_L2: 56675862 TO_L2_BC_MSHR: 33777606
BERTI AVG_LAT: 123.093 NUM_TRACK_LATENCY: 4086649 NUM_CANT_TRACK_LATENCY: 0
BERTI CROSS_PAGE 49355749 NO_CROSS_PAGE: 31422511
BERTI FOUND_BERTI: 10930033 NO_FOUND_BERTI: 240419
BERTI AVERAGE_ISSUED: 5.91873
CPU 0 L1I Entangling prefetcher final stats
IP accesses: f802 3e0080 85 / 6377
IP misses: 0 0 0 / 0
IP hits: 0 0 0 / 0
IP late: 0 0 0 / 0
IP wrong: 0 0 0 / 0
miss rate: 0
coverage: -nan
coverage_late: -nan
accuracy: -nan
accuracy_late: -nan
discarded: 0
evicts entangled j table: 0
evicts entangled k table: 0
max bb size: 11
formats: 0 0 0 0 0 0 0 
hist_lookups: 0 0 0 0 0 0 0 0 0 0 0 0 0 0 0 0 0 115 
hist_lookups_evict: 0 %
hist_lookups_shortlat: 100 %
bb_found_hist: 0 1212 445 185 40 64 50 0 0 0 0 10 0 0 0 0 0 0 0 0 0 0 0 0 0 0 0 0 0 0 0 0 0 0 0 0 0 0 0 0 0 0 0 0 0 0 0 0 0 0 0 0 0 0 0 0 0 0 0 0 0 0 0 0 
bb_found_summary: 3547 2006 1.7682
entangled_found_hist: 0 509 278 134 50 10 0 0 
entangled_found_summary: 1717 981 1.75026
bb_ent_found_hist: 0 593 247 106 30 20 57 0 0 0 0 10 0 0 0 0 0 0 0 0 0 0 0 0 0 0 0 0 0 0 0 0 0 0 0 0 0 0 0 0 0 0 0 0 0 0 0 0 0 0 0 0 0 0 0 0 0 0 0 0 0 0 0 0 
bb_ent_found_summary: 2077 1063 1.95391
