WARNING: physical memory size is smaller than virtual memory size.

*** ChampSim Multicore Out-of-Order Simulator ***
Warmup Instructions: 30000000
Simulation Instructions: 100000000
Number of CPUs: 1
Page size: 4096

BTB:
Basic BTB sets: 1024 ways: 8
Indirect:
history lengths: 0 0 10 16 27 44 60 96 109 219 449 487 714 1313 2146 3881 
ITTAGE tables: 64768 bytes;Region table: 240 bytes;IUM: 384 bytes;Total Storage= 65392 bytes;
RAS:
RAS size: 64
Berti Prefetcher
CPU 0 Entangling prefetcher
Off-chip DRAM Size: 8 GiB Channels: 2 Width: 64-bit Data Race: 6400 MT/s
Heartbeat CPU 0 instructions: 10000004 cycles: 1666774 heartbeat IPC: 6 cumulative IPC: 6 (Simulation time: 00 hr 00 min 33 sec)
Heartbeat CPU 0 instructions: 20000004 cycles: 3333444 heartbeat IPC: 6 cumulative IPC: 6 (Simulation time: 00 hr 01 min 07 sec)
Heartbeat CPU 0 instructions: 30000004 cycles: 5000108 heartbeat IPC: 6 cumulative IPC: 6 (Simulation time: 00 hr 01 min 40 sec)
Warmup finished CPU 0 instructions: 30000004 cycles: 5000109 cumulative IPC: 6 (Simulation time: 00 hr 01 min 40 sec)
Warmup complete CPU 0 instructions: 30000004 cycles: 5000109 cumulative IPC: 6 (Simulation time: 00 hr 01 min 40 sec)
*** Reached end of trace: (0, "../traces/public_traces/compute_fp/compute_fp_13.champsimtrace.xz")
Heartbeat CPU 0 instructions: 40000000 cycles: 6935754 heartbeat IPC: 5.166 cumulative IPC: 5.166 (Simulation time: 00 hr 02 min 22 sec)
Heartbeat CPU 0 instructions: 50000000 cycles: 8883252 heartbeat IPC: 5.135 cumulative IPC: 5.15 (Simulation time: 00 hr 03 min 04 sec)
Heartbeat CPU 0 instructions: 60000002 cycles: 10830728 heartbeat IPC: 5.135 cumulative IPC: 5.145 (Simulation time: 00 hr 03 min 44 sec)
*** Reached end of trace: (0, "../traces/public_traces/compute_fp/compute_fp_13.champsimtrace.xz")
Heartbeat CPU 0 instructions: 70000004 cycles: 12766719 heartbeat IPC: 5.165 cumulative IPC: 5.15 (Simulation time: 00 hr 04 min 20 sec)
Heartbeat CPU 0 instructions: 80000009 cycles: 14715761 heartbeat IPC: 5.131 cumulative IPC: 5.146 (Simulation time: 00 hr 05 min 00 sec)
Heartbeat CPU 0 instructions: 90000006 cycles: 16665383 heartbeat IPC: 5.129 cumulative IPC: 5.143 (Simulation time: 00 hr 05 min 39 sec)
*** Reached end of trace: (0, "../traces/public_traces/compute_fp/compute_fp_13.champsimtrace.xz")
Heartbeat CPU 0 instructions: 100000009 cycles: 18599108 heartbeat IPC: 5.171 cumulative IPC: 5.147 (Simulation time: 00 hr 06 min 16 sec)
Heartbeat CPU 0 instructions: 110000000 cycles: 20546217 heartbeat IPC: 5.136 cumulative IPC: 5.146 (Simulation time: 00 hr 06 min 53 sec)
Heartbeat CPU 0 instructions: 120000001 cycles: 22496368 heartbeat IPC: 5.128 cumulative IPC: 5.144 (Simulation time: 00 hr 07 min 33 sec)
*** Reached end of trace: (0, "../traces/public_traces/compute_fp/compute_fp_13.champsimtrace.xz")
Heartbeat CPU 0 instructions: 130000005 cycles: 24431010 heartbeat IPC: 5.169 cumulative IPC: 5.146 (Simulation time: 00 hr 08 min 21 sec)
Simulation finished CPU 0 instructions: 100000001 cycles: 19430902 cumulative IPC: 5.146 (Simulation time: 00 hr 08 min 21 sec)
Simulation complete CPU 0 instructions: 100000001 cycles: 19430902 cumulative IPC: 5.146 (Simulation time: 00 hr 08 min 21 sec)

ChampSim completed all CPUs

=== Simulation ===
CPU 0 runs ../traces/public_traces/compute_fp/compute_fp_13.champsimtrace.xz
Region of Interest Statistics

CPU 0 cumulative IPC: 5.146 instructions: 100000001 cycles: 19430902
CPU 0 Branch Prediction Accuracy: 99.46% MPKI: 0.1205 Average ROB Occupancy at Mispredict: 207.9
Branch type MPKI
BRANCH_DIRECT_JUMP: 0
BRANCH_INDIRECT: 0.12
BRANCH_CONDITIONAL: 2e-05
BRANCH_DIRECT_CALL: 0
BRANCH_INDIRECT_CALL: 0
BRANCH_RETURN: 0

LLC TOTAL        ACCESS:     236106 HIT:      50050 MISS:     186056
LLC LOAD         ACCESS:      69102 HIT:        361 MISS:      68741
LLC RFO          ACCESS:         72 HIT:          0 MISS:         72
LLC PREFETCH     ACCESS:     117389 HIT:        146 MISS:     117243
LLC WRITE        ACCESS:      49543 HIT:      49543 MISS:          0
LLC TRANSLATION  ACCESS:          0 HIT:          0 MISS:          0
LLC PREFETCH REQUESTED:          0 ISSUED:          0 USEFUL:          0 USELESS:          0
LLC AVERAGE MISS LATENCY: 172 cycles
cpu0_DTLB TOTAL        ACCESS:   11435175 HIT:   11390433 MISS:      44742
cpu0_DTLB LOAD         ACCESS:   11435175 HIT:   11390433 MISS:      44742
cpu0_DTLB RFO          ACCESS:          0 HIT:          0 MISS:          0
cpu0_DTLB PREFETCH     ACCESS:          0 HIT:          0 MISS:          0
cpu0_DTLB WRITE        ACCESS:          0 HIT:          0 MISS:          0
cpu0_DTLB TRANSLATION  ACCESS:          0 HIT:          0 MISS:          0
cpu0_DTLB PREFETCH REQUESTED:          0 ISSUED:          0 USEFUL:          0 USELESS:          0
cpu0_DTLB AVERAGE MISS LATENCY: 5.298 cycles
cpu0_ITLB TOTAL        ACCESS:       6440 HIT:       6440 MISS:          0
cpu0_ITLB LOAD         ACCESS:       6440 HIT:       6440 MISS:          0
cpu0_ITLB RFO          ACCESS:          0 HIT:          0 MISS:          0
cpu0_ITLB PREFETCH     ACCESS:          0 HIT:          0 MISS:          0
cpu0_ITLB WRITE        ACCESS:          0 HIT:          0 MISS:          0
cpu0_ITLB TRANSLATION  ACCESS:          0 HIT:          0 MISS:          0
cpu0_ITLB PREFETCH REQUESTED:          0 ISSUED:          0 USEFUL:          0 USELESS:          0
cpu0_ITLB AVERAGE MISS LATENCY: -nan cycles
cpu0_L1D TOTAL        ACCESS:   17049983 HIT:   16545841 MISS:     504142
cpu0_L1D LOAD         ACCESS:   10029319 HIT:    9576326 MISS:     452993
cpu0_L1D RFO          ACCESS:          0 HIT:          0 MISS:          0
cpu0_L1D PREFETCH     ACCESS:      57626 HIT:       9180 MISS:      48446
cpu0_L1D WRITE        ACCESS:    6963038 HIT:    6960335 MISS:       2703
cpu0_L1D TRANSLATION  ACCESS:          0 HIT:          0 MISS:          0
cpu0_L1D PREFETCH REQUESTED:      57626 ISSUED:      57626 USEFUL:        607 USELESS:          0
cpu0_L1D AVERAGE MISS LATENCY: 19.3 cycles
cpu0_L1I TOTAL        ACCESS:       9567 HIT:       9219 MISS:        348
cpu0_L1I LOAD         ACCESS:       4868 HIT:       4652 MISS:        216
cpu0_L1I RFO          ACCESS:          0 HIT:          0 MISS:          0
cpu0_L1I PREFETCH     ACCESS:       4699 HIT:       4567 MISS:        132
cpu0_L1I WRITE        ACCESS:          0 HIT:          0 MISS:          0
cpu0_L1I TRANSLATION  ACCESS:          0 HIT:          0 MISS:          0
cpu0_L1I PREFETCH REQUESTED:       7163 ISSUED:       4699 USEFUL:         84 USELESS:          0
cpu0_L1I AVERAGE MISS LATENCY: 78.36 cycles
cpu0_L2C TOTAL        ACCESS:     520248 HIT:     275278 MISS:     244970
cpu0_L2C LOAD         ACCESS:     186329 HIT:     114606 MISS:      71723
cpu0_L2C RFO          ACCESS:        516 HIT:        441 MISS:         75
cpu0_L2C PREFETCH     ACCESS:     283224 HIT:     110052 MISS:     173172
cpu0_L2C WRITE        ACCESS:      50179 HIT:      50179 MISS:          0
cpu0_L2C TRANSLATION  ACCESS:          0 HIT:          0 MISS:          0
cpu0_L2C PREFETCH REQUESTED:     234859 ISSUED:     234694 USEFUL:     115194 USELESS:        400
cpu0_L2C AVERAGE MISS LATENCY: 145.8 cycles
cpu0_STLB TOTAL        ACCESS:      32253 HIT:      32253 MISS:          0
cpu0_STLB LOAD         ACCESS:      32253 HIT:      32253 MISS:          0
cpu0_STLB RFO          ACCESS:          0 HIT:          0 MISS:          0
cpu0_STLB PREFETCH     ACCESS:          0 HIT:          0 MISS:          0
cpu0_STLB WRITE        ACCESS:          0 HIT:          0 MISS:          0
cpu0_STLB TRANSLATION  ACCESS:          0 HIT:          0 MISS:          0
cpu0_STLB PREFETCH REQUESTED:          0 ISSUED:          0 USEFUL:          0 USELESS:          0
cpu0_STLB AVERAGE MISS LATENCY: -nan cycles

DRAM Statistics

Channel 0 RQ ROW_BUFFER_HIT:      63461
  ROW_BUFFER_MISS:      29608
 AVG DBUS CONGESTED CYCLE: 3.845
WQ ROW_BUFFER_HIT: Channel 0 
  ROW_BUFFER_MISS:       6447
  FULL:      18120

Channel 1 RQ ROW_BUFFER_HIT:      63552
  ROW_BUFFER_MISS:      29431
 AVG DBUS CONGESTED CYCLE: 3.846
WQ ROW_BUFFER_HIT: Channel 1 
  ROW_BUFFER_MISS:       6752
  FULL:      17730
BERTI TO_L1: 15494 TO_L2: 58950 TO_L2_BC_MSHR: 0
BERTI AVG_LAT: 52.3843 NUM_TRACK_LATENCY: 242653 NUM_CANT_TRACK_LATENCY: 0
BERTI CROSS_PAGE 3956 NO_CROSS_PAGE: 70488
BERTI FOUND_BERTI: 4741410 NO_FOUND_BERTI: 8641218
BERTI AVERAGE_ISSUED: 3.92319
CPU 0 L1I Entangling prefetcher final stats
IP accesses: 4119 104640 78 / 4868
IP misses: 4f00 13c000 18 / 216
IP hits: 0 0 0 / 0
IP late: 341c d0700 7 / 125
IP wrong: 0 0 0 / 0
miss rate: 0.0443715
coverage: 0
coverage_late: 0.578704
accuracy: 0
accuracy_late: 1
discarded: 0
evicts entangled j table: 0
evicts entangled k table: 1
max bb size: 12
formats: 3 0 10 3 4 0 0 
hist_lookups: 6 5 1 2 11 4 6 1 2 3 0 3 0 0 0 0 0 223 
hist_lookups_evict: 0 %
hist_lookups_shortlat: 83.5206 %
bb_found_hist: 0 908 445 165 42 49 14 0 0 7 0 7 10 0 0 0 0 0 0 0 0 0 0 0 0 0 0 0 0 0 0 0 0 0 0 0 0 0 0 0 0 0 0 0 0 0 0 0 0 0 0 0 0 0 0 0 0 0 0 0 0 0 0 0 
bb_found_summary: 3050 1647 1.85186
entangled_found_hist: 0 481 234 252 21 0 0 0 
entangled_found_summary: 1789 988 1.81073
bb_ent_found_hist: 0 548 339 227 7 14 41 0 0 5 0 20 0 0 0 0 0 0 0 0 0 0 0 0 0 0 0 0 0 0 0 0 0 0 0 0 0 0 0 0 0 0 0 0 0 0 0 0 0 0 0 0 0 0 0 0 0 0 0 0 0 0 0 0 
bb_ent_found_summary: 2516 1201 2.09493
