WARNING: physical memory size is smaller than virtual memory size.

*** ChampSim Multicore Out-of-Order Simulator ***
Warmup Instructions: 30000000
Simulation Instructions: 100000000
Number of CPUs: 1
Page size: 4096

BTB:
Basic BTB sets: 1024 ways: 8
Indirect:
history lengths: 0 0 10 16 27 44 60 96 109 219 449 487 714 1313 2146 3881 
ITTAGE tables: 64768 bytes;Region table: 240 bytes;IUM: 384 bytes;Total Storage= 65392 bytes;
RAS:
RAS size: 64
Berti Prefetcher
CPU 0 Entangling prefetcher
Off-chip DRAM Size: 8 GiB Channels: 2 Width: 64-bit Data Race: 6400 MT/s
Heartbeat CPU 0 instructions: 10000003 cycles: 2119131 heartbeat IPC: 4.719 cumulative IPC: 4.719 (Simulation time: 00 hr 00 min 48 sec)
Heartbeat CPU 0 instructions: 20000000 cycles: 4139897 heartbeat IPC: 4.949 cumulative IPC: 4.831 (Simulation time: 00 hr 01 min 38 sec)
Heartbeat CPU 0 instructions: 30000009 cycles: 6270034 heartbeat IPC: 4.695 cumulative IPC: 4.785 (Simulation time: 00 hr 02 min 30 sec)
Warmup finished CPU 0 instructions: 30000009 cycles: 6270035 cumulative IPC: 4.785 (Simulation time: 00 hr 02 min 30 sec)
Warmup complete CPU 0 instructions: 30000009 cycles: 6270035 cumulative IPC: 4.785 (Simulation time: 00 hr 02 min 30 sec)
*** Reached end of trace: (0, "../traces/public_traces/compute_fp/compute_fp_7.champsimtrace.xz")
[cpu0_PTW_MSHR] entry:   0 address: 0xa2e000 v_addr: 0x8d0f000 translation_level: 0 event_cycle: 18446744073709551615

DRAM Channel 0
[RQ] entry:   0 empty
[RQ] entry:   1 empty
[RQ] entry:   2 empty
[RQ] entry:   3 empty
[RQ] entry:   4 empty
[RQ] entry:   5 empty
[RQ] entry:   6 empty
[RQ] entry:   7 empty
[RQ] entry:   8 empty
[RQ] entry:   9 empty
[RQ] entry:  10 empty
[RQ] entry:  11 empty
[RQ] entry:  12 empty
[RQ] entry:  13 empty
[RQ] entry:  14 empty
[RQ] entry:  15 empty
[RQ] entry:  16 empty
[RQ] entry:  17 empty
[RQ] entry:  18 empty
[RQ] entry:  19 empty
[RQ] entry:  20 empty
[RQ] entry:  21 empty
[RQ] entry:  22 empty
[RQ] entry:  23 empty
[RQ] entry:  24 empty
[RQ] entry:  25 empty
[RQ] entry:  26 empty
[RQ] entry:  27 empty
[RQ] entry:  28 empty
[RQ] entry:  29 empty
[RQ] entry:  30 empty
[RQ] entry:  31 empty
[RQ] entry:  32 empty
[RQ] entry:  33 empty
[RQ] entry:  34 empty
[RQ] entry:  35 empty
[RQ] entry:  36 empty
[RQ] entry:  37 empty
[RQ] entry:  38 empty
[RQ] entry:  39 empty
[RQ] entry:  40 empty
[RQ] entry:  41 empty
[RQ] entry:  42 empty
[RQ] entry:  43 empty
[RQ] entry:  44 empty
[RQ] entry:  45 empty
[RQ] entry:  46 empty
[RQ] entry:  47 empty
[RQ] entry:  48 empty
[RQ] entry:  49 empty
[RQ] entry:  50 empty
[RQ] entry:  51 empty
[RQ] entry:  52 empty
[RQ] entry:  53 empty
[RQ] entry:  54 empty
[RQ] entry:  55 empty
[RQ] entry:  56 empty
[RQ] entry:  57 empty
[RQ] entry:  58 empty
[RQ] entry:  59 empty
[RQ] entry:  60 empty
[RQ] entry:  61 empty
[RQ] entry:  62 empty
[RQ] entry:  63 empty

[WQ] entry:   0 empty
[WQ] entry:   1 empty
[WQ] entry:   2 empty
[WQ] entry:   3 empty
[WQ] entry:   4 empty
[WQ] entry:   5 empty
[WQ] entry:   6 empty
[WQ] entry:   7 empty
[WQ] entry:   8 empty
[WQ] entry:   9 empty
[WQ] entry:  10 empty
[WQ] entry:  11 empty
[WQ] entry:  12 empty
[WQ] entry:  13 empty
[WQ] entry:  14 empty
[WQ] entry:  15 empty
[WQ] entry:  16 empty
[WQ] entry:  17 empty
[WQ] entry:  18 empty
[WQ] entry:  19 empty
[WQ] entry:  20 empty
[WQ] entry:  21 empty
[WQ] entry:  22 empty
[WQ] entry:  23 empty
[WQ] entry:  24 empty
[WQ] entry:  25 empty
[WQ] entry:  26 empty
[WQ] entry:  27 empty
[WQ] entry:  28 empty
[WQ] entry:  29 empty
[WQ] entry:  30 empty
[WQ] entry:  31 empty
[WQ] entry:  32 empty
[WQ] entry:  33 empty
[WQ] entry:  34 empty
[WQ] entry:  35 empty
[WQ] entry:  36 empty
[WQ] entry:  37 empty
[WQ] entry:  38 empty
[WQ] entry:  39 empty
[WQ] entry:  40 empty
[WQ] entry:  41 empty
[WQ] entry:  42 empty
[WQ] entry:  43 empty
[WQ] entry:  44 empty
[WQ] entry:  45 empty
[WQ] entry:  46 empty
[WQ] entry:  47 empty
[WQ] entry:  48 empty
[WQ] entry:  49 empty
[WQ] entry:  50 empty
[WQ] entry:  51 empty
[WQ] entry:  52 empty
[WQ] entry:  53 empty
[WQ] entry:  54 empty
[WQ] entry:  55 empty
[WQ] entry:  56 empty
[WQ] entry:  57 empty
[WQ] entry:  58 empty
[WQ] entry:  59 empty
[WQ] entry:  60 empty
[WQ] entry:  61 empty
[WQ] entry:  62 empty
[WQ] entry:  63 empty

DRAM Channel 1
[RQ] entry:   0 empty
[RQ] entry:   1 empty
[RQ] entry:   2 empty
[RQ] entry:   3 empty
[RQ] entry:   4 empty
[RQ] entry:   5 empty
[RQ] entry:   6 empty
[RQ] entry:   7 empty
[RQ] entry:   8 empty
[RQ] entry:   9 empty
[RQ] entry:  10 empty
[RQ] entry:  11 empty
[RQ] entry:  12 empty
[RQ] entry:  13 empty
[RQ] entry:  14 empty
[RQ] entry:  15 empty
[RQ] entry:  16 empty
[RQ] entry:  17 empty
[RQ] entry:  18 empty
[RQ] entry:  19 empty
[RQ] entry:  20 empty
[RQ] entry:  21 empty
[RQ] entry:  22 empty
[RQ] entry:  23 empty
[RQ] entry:  24 empty
[RQ] entry:  25 empty
[RQ] entry:  26 empty
[RQ] entry:  27 empty
[RQ] entry:  28 empty
[RQ] entry:  29 empty
[RQ] entry:  30 empty
[RQ] entry:  31 empty
[RQ] entry:  32 empty
[RQ] entry:  33 empty
[RQ] entry:  34 empty
[RQ] entry:  35 empty
[RQ] entry:  36 empty
[RQ] entry:  37 empty
[RQ] entry:  38 empty
[RQ] entry:  39 empty
[RQ] entry:  40 empty
[RQ] entry:  41 empty
[RQ] entry:  42 empty
[RQ] entry:  43 empty
[RQ] entry:  44 empty
[RQ] entry:  45 empty
[RQ] entry:  46 empty
[RQ] entry:  47 empty
[RQ] entry:  48 empty
[RQ] entry:  49 empty
[RQ] entry:  50 empty
[RQ] entry:  51 empty
[RQ] entry:  52 empty
[RQ] entry:  53 empty
[RQ] entry:  54 empty
[RQ] entry:  55 empty
[RQ] entry:  56 empty
[RQ] entry:  57 empty
[RQ] entry:  58 empty
[RQ] entry:  59 empty
[RQ] entry:  60 empty
[RQ] entry:  61 empty
[RQ] entry:  62 empty
[RQ] entry:  63 empty

[WQ] entry:   0 empty
[WQ] entry:   1 empty
[WQ] entry:   2 empty
[WQ] entry:   3 empty
[WQ] entry:   4 empty
[WQ] entry:   5 empty
[WQ] entry:   6 empty
[WQ] entry:   7 empty
[WQ] entry:   8 empty
[WQ] entry:   9 empty
[WQ] entry:  10 empty
[WQ] entry:  11 empty
[WQ] entry:  12 empty
[WQ] entry:  13 empty
[WQ] entry:  14 empty
[WQ] entry:  15 empty
[WQ] entry:  16 empty
[WQ] entry:  17 empty
[WQ] entry:  18 empty
[WQ] entry:  19 empty
[WQ] entry:  20 empty
[WQ] entry:  21 empty
[WQ] entry:  22 empty
[WQ] entry:  23 empty
[WQ] entry:  24 empty
[WQ] entry:  25 empty
[WQ] entry:  26 empty
[WQ] entry:  27 empty
[WQ] entry:  28 empty
[WQ] entry:  29 empty
[WQ] entry:  30 empty
[WQ] entry:  31 empty
[WQ] entry:  32 empty
[WQ] entry:  33 empty
[WQ] entry:  34 empty
[WQ] entry:  35 empty
[WQ] entry:  36 empty
[WQ] entry:  37 empty
[WQ] entry:  38 empty
[WQ] entry:  39 empty
[WQ] entry:  40 empty
[WQ] entry:  41 empty
[WQ] entry:  42 empty
[WQ] entry:  43 empty
[WQ] entry:  44 empty
[WQ] entry:  45 empty
[WQ] entry:  46 empty
[WQ] entry:  47 empty
[WQ] entry:  48 empty
[WQ] entry:  49 empty
[WQ] entry:  50 empty
[WQ] entry:  51 empty
[WQ] entry:  52 empty
[WQ] entry:  53 empty
[WQ] entry:  54 empty
[WQ] entry:  55 empty
[WQ] entry:  56 empty
[WQ] entry:  57 empty
[WQ] entry:  58 empty
[WQ] entry:  59 empty
[WQ] entry:  60 empty
[WQ] entry:  61 empty
[WQ] entry:  62 empty
[WQ] entry:  63 empty

DEADLOCK! CPU 0 cycle 18289972
cpu0_IFETCH empty

cpu0_DECODE empty

cpu0_DISPATCH empty

[cpu0_ROB] entry:   0 instr_id: 36915583 fetched: 2 scheduled: 2 executed: 1 num_reg_dependent: 0 num_mem_ops: 1 event: 18287058
[cpu0_ROB] entry:   1 instr_id: 36915584 fetched: 2 scheduled: 2 executed: 2 num_reg_dependent: 0 num_mem_ops: 0 event: 18287060
[cpu0_ROB] entry:   2 instr_id: 36915585 fetched: 2 scheduled: 2 executed: 2 num_reg_dependent: 0 num_mem_ops: 0 event: 18286235
[cpu0_ROB] entry:   3 instr_id: 36915586 fetched: 2 scheduled: 2 executed: 2 num_reg_dependent: 0 num_mem_ops: 0 event: 18287057
[cpu0_ROB] entry:   4 instr_id: 36915587 fetched: 2 scheduled: 2 executed: 2 num_reg_dependent: 0 num_mem_ops: 0 event: 18286356
[cpu0_ROB] entry:   5 instr_id: 36915588 fetched: 2 scheduled: 2 executed: 1 num_reg_dependent: 0 num_mem_ops: 1 event: 18286235
[cpu0_ROB] entry:   6 instr_id: 36915589 fetched: 2 scheduled: 2 executed: 0 num_reg_dependent: 1 num_mem_ops: 0 event: 18286234
[cpu0_ROB] entry:   7 instr_id: 36915590 fetched: 2 scheduled: 2 executed: 0 num_reg_dependent: 2 num_mem_ops: 0 event: 18286234
[cpu0_ROB] entry:   8 instr_id: 36915591 fetched: 2 scheduled: 2 executed: 1 num_reg_dependent: 0 num_mem_ops: 1 event: 18286235
[cpu0_ROB] entry:   9 instr_id: 36915592 fetched: 2 scheduled: 2 executed: 0 num_reg_dependent: 2 num_mem_ops: 0 event: 18286234
[cpu0_ROB] entry:  10 instr_id: 36915593 fetched: 2 scheduled: 2 executed: 1 num_reg_dependent: 0 num_mem_ops: 1 event: 18286236
[cpu0_ROB] entry:  11 instr_id: 36915594 fetched: 2 scheduled: 2 executed: 2 num_reg_dependent: 0 num_mem_ops: 0 event: 18286236
[cpu0_ROB] entry:  12 instr_id: 36915595 fetched: 2 scheduled: 2 executed: 0 num_reg_dependent: 1 num_mem_ops: 0 event: 18286235
[cpu0_ROB] entry:  13 instr_id: 36915596 fetched: 2 scheduled: 2 executed: 0 num_reg_dependent: 1 num_mem_ops: 0 event: 18286235
[cpu0_ROB] entry:  14 instr_id: 36915597 fetched: 2 scheduled: 2 executed: 2 num_reg_dependent: 0 num_mem_ops: 0 event: 18286357
[cpu0_ROB] entry:  15 instr_id: 36915598 fetched: 2 scheduled: 2 executed: 2 num_reg_dependent: 0 num_mem_ops: 0 event: 18287056
[cpu0_ROB] entry:  16 instr_id: 36915599 fetched: 2 scheduled: 2 executed: 2 num_reg_dependent: 0 num_mem_ops: 0 event: 18287057
[cpu0_ROB] entry:  17 instr_id: 36915600 fetched: 2 scheduled: 2 executed: 0 num_reg_dependent: 1 num_mem_ops: 0 event: 18286236
[cpu0_ROB] entry:  18 instr_id: 36915601 fetched: 2 scheduled: 2 executed: 1 num_reg_dependent: 0 num_mem_ops: 1 event: 18287057
[cpu0_ROB] entry:  19 instr_id: 36915602 fetched: 2 scheduled: 2 executed: 0 num_reg_dependent: 1 num_mem_ops: 0 event: 18286237
[cpu0_ROB] entry:  20 instr_id: 36915603 fetched: 2 scheduled: 2 executed: 0 num_reg_dependent: 1 num_mem_ops: 0 event: 18286237
[cpu0_ROB] entry:  21 instr_id: 36915604 fetched: 2 scheduled: 2 executed: 0 num_reg_dependent: 2 num_mem_ops: 0 event: 18286237
[cpu0_ROB] entry:  22 instr_id: 36915605 fetched: 2 scheduled: 2 executed: 1 num_reg_dependent: 0 num_mem_ops: 1 event: 18287057
[cpu0_ROB] entry:  23 instr_id: 36915606 fetched: 2 scheduled: 2 executed: 2 num_reg_dependent: 0 num_mem_ops: 0 event: 18286240
[cpu0_ROB] entry:  24 instr_id: 36915607 fetched: 2 scheduled: 2 executed: 0 num_reg_dependent: 1 num_mem_ops: 0 event: 18286241
[cpu0_ROB] entry:  25 instr_id: 36915608 fetched: 2 scheduled: 2 executed: 0 num_reg_dependent: 1 num_mem_ops: 1 event: 18286352
[cpu0_ROB] entry:  26 instr_id: 36915609 fetched: 2 scheduled: 2 executed: 0 num_reg_dependent: 1 num_mem_ops: 0 event: 18286352
[cpu0_ROB] entry:  27 instr_id: 36915610 fetched: 2 scheduled: 2 executed: 0 num_reg_dependent: 1 num_mem_ops: 1 event: 18286352
[cpu0_ROB] entry:  28 instr_id: 36915611 fetched: 2 scheduled: 2 executed: 0 num_reg_dependent: 2 num_mem_ops: 0 event: 18286353
[cpu0_ROB] entry:  29 instr_id: 36915612 fetched: 2 scheduled: 2 executed: 2 num_reg_dependent: 0 num_mem_ops: 0 event: 18286355
[cpu0_ROB] entry:  30 instr_id: 36915613 fetched: 2 scheduled: 2 executed: 0 num_reg_dependent: 1 num_mem_ops: 0 event: 18286353
[cpu0_ROB] entry:  31 instr_id: 36915614 fetched: 2 scheduled: 2 executed: 2 num_reg_dependent: 0 num_mem_ops: 0 event: 18286358
[cpu0_ROB] entry:  32 instr_id: 36915615 fetched: 2 scheduled: 2 executed: 1 num_reg_dependent: 0 num_mem_ops: 1 event: 18286355
[cpu0_ROB] entry:  33 instr_id: 36915616 fetched: 2 scheduled: 2 executed: 0 num_reg_dependent: 2 num_mem_ops: 0 event: 18286353
[cpu0_ROB] entry:  34 instr_id: 36915617 fetched: 2 scheduled: 2 executed: 0 num_reg_dependent: 2 num_mem_ops: 0 event: 18286354
[cpu0_ROB] entry:  35 instr_id: 36915618 fetched: 2 scheduled: 2 executed: 1 num_reg_dependent: 0 num_mem_ops: 1 event: 18286355
[cpu0_ROB] entry:  36 instr_id: 36915619 fetched: 2 scheduled: 2 executed: 0 num_reg_dependent: 3 num_mem_ops: 0 event: 18286354
[cpu0_ROB] entry:  37 instr_id: 36915620 fetched: 2 scheduled: 2 executed: 1 num_reg_dependent: 0 num_mem_ops: 1 event: 18286355
[cpu0_ROB] entry:  38 instr_id: 36915621 fetched: 2 scheduled: 2 executed: 2 num_reg_dependent: 0 num_mem_ops: 0 event: 18287056
[cpu0_ROB] entry:  39 instr_id: 36915622 fetched: 2 scheduled: 2 executed: 0 num_reg_dependent: 2 num_mem_ops: 0 event: 18286354
[cpu0_ROB] entry:  40 instr_id: 36915623 fetched: 2 scheduled: 2 executed: 0 num_reg_dependent: 2 num_mem_ops: 0 event: 18286354
[cpu0_ROB] entry:  41 instr_id: 36915624 fetched: 2 scheduled: 2 executed: 2 num_reg_dependent: 0 num_mem_ops: 0 event: 18286359
[cpu0_ROB] entry:  42 instr_id: 36915625 fetched: 2 scheduled: 2 executed: 2 num_reg_dependent: 0 num_mem_ops: 0 event: 18287057
[cpu0_ROB] entry:  43 instr_id: 36915626 fetched: 2 scheduled: 2 executed: 2 num_reg_dependent: 0 num_mem_ops: 0 event: 18287058
[cpu0_ROB] entry:  44 instr_id: 36915627 fetched: 2 scheduled: 2 executed: 0 num_reg_dependent: 1 num_mem_ops: 0 event: 18286355
[cpu0_ROB] entry:  45 instr_id: 36915628 fetched: 2 scheduled: 2 executed: 2 num_reg_dependent: 0 num_mem_ops: 0 event: 18287057
[cpu0_ROB] entry:  46 instr_id: 36915629 fetched: 2 scheduled: 2 executed: 0 num_reg_dependent: 1 num_mem_ops: 0 event: 18286355
[cpu0_ROB] entry:  47 instr_id: 36915630 fetched: 2 scheduled: 2 executed: 2 num_reg_dependent: 0 num_mem_ops: 0 event: 18286356
[cpu0_ROB] entry:  48 instr_id: 36915631 fetched: 2 scheduled: 2 executed: 2 num_reg_dependent: 0 num_mem_ops: 0 event: 18286356
[cpu0_ROB] entry:  49 instr_id: 36915632 fetched: 2 scheduled: 2 executed: 2 num_reg_dependent: 0 num_mem_ops: 0 event: 18287057
[cpu0_ROB] entry:  50 instr_id: 36915633 fetched: 2 scheduled: 2 executed: 2 num_reg_dependent: 0 num_mem_ops: 0 event: 18286356
[cpu0_ROB] entry:  51 instr_id: 36915634 fetched: 2 scheduled: 2 executed: 2 num_reg_dependent: 0 num_mem_ops: 0 event: 18287057
[cpu0_ROB] entry:  52 instr_id: 36915635 fetched: 2 scheduled: 2 executed: 1 num_reg_dependent: 0 num_mem_ops: 1 event: 18286356
[cpu0_ROB] entry:  53 instr_id: 36915636 fetched: 2 scheduled: 2 executed: 2 num_reg_dependent: 0 num_mem_ops: 0 event: 18286357
[cpu0_ROB] entry:  54 instr_id: 36915637 fetched: 2 scheduled: 2 executed: 2 num_reg_dependent: 0 num_mem_ops: 0 event: 18286357
[cpu0_ROB] entry:  55 instr_id: 36915638 fetched: 2 scheduled: 2 executed: 0 num_reg_dependent: 1 num_mem_ops: 0 event: 18286356
[cpu0_ROB] entry:  56 instr_id: 36915639 fetched: 2 scheduled: 2 executed: 1 num_reg_dependent: 0 num_mem_ops: 1 event: 18286357
[cpu0_ROB] entry:  57 instr_id: 36915640 fetched: 2 scheduled: 2 executed: 2 num_reg_dependent: 0 num_mem_ops: 0 event: 18286357
[cpu0_ROB] entry:  58 instr_id: 36915641 fetched: 2 scheduled: 2 executed: 0 num_reg_dependent: 1 num_mem_ops: 0 event: 18286356
[cpu0_ROB] entry:  59 instr_id: 36915642 fetched: 2 scheduled: 2 executed: 0 num_reg_dependent: 1 num_mem_ops: 0 event: 18286356
[cpu0_ROB] entry:  60 instr_id: 36915643 fetched: 2 scheduled: 2 executed: 1 num_reg_dependent: 0 num_mem_ops: 1 event: 18286358
[cpu0_ROB] entry:  61 instr_id: 36915644 fetched: 2 scheduled: 2 executed: 0 num_reg_dependent: 1 num_mem_ops: 1 event: 18286356
[cpu0_ROB] entry:  62 instr_id: 36915645 fetched: 2 scheduled: 2 executed: 0 num_reg_dependent: 2 num_mem_ops: 0 event: 18286356
[cpu0_ROB] entry:  63 instr_id: 36915646 fetched: 2 scheduled: 2 executed: 0 num_reg_dependent: 1 num_mem_ops: 1 event: 18286356
[cpu0_ROB] entry:  64 instr_id: 36915647 fetched: 2 scheduled: 2 executed: 2 num_reg_dependent: 0 num_mem_ops: 0 event: 18286357
[cpu0_ROB] entry:  65 instr_id: 36915648 fetched: 2 scheduled: 2 executed: 0 num_reg_dependent: 1 num_mem_ops: 0 event: 18286356
[cpu0_ROB] entry:  66 instr_id: 36915649 fetched: 2 scheduled: 2 executed: 2 num_reg_dependent: 0 num_mem_ops: 0 event: 18286360
[cpu0_ROB] entry:  67 instr_id: 36915650 fetched: 2 scheduled: 2 executed: 0 num_reg_dependent: 2 num_mem_ops: 0 event: 18286357
[cpu0_ROB] entry:  68 instr_id: 36915651 fetched: 2 scheduled: 2 executed: 0 num_reg_dependent: 1 num_mem_ops: 0 event: 18286357
[cpu0_ROB] entry:  69 instr_id: 36915652 fetched: 2 scheduled: 2 executed: 0 num_reg_dependent: 1 num_mem_ops: 0 event: 18286357
[cpu0_ROB] entry:  70 instr_id: 36915653 fetched: 2 scheduled: 2 executed: 2 num_reg_dependent: 0 num_mem_ops: 0 event: 18286358
[cpu0_ROB] entry:  71 instr_id: 36915654 fetched: 2 scheduled: 2 executed: 0 num_reg_dependent: 1 num_mem_ops: 1 event: 18286357
[cpu0_ROB] entry:  72 instr_id: 36915655 fetched: 2 scheduled: 2 executed: 0 num_reg_dependent: 1 num_mem_ops: 0 event: 18286357
[cpu0_ROB] entry:  73 instr_id: 36915656 fetched: 2 scheduled: 2 executed: 0 num_reg_dependent: 1 num_mem_ops: 0 event: 18286357
[cpu0_ROB] entry:  74 instr_id: 36915657 fetched: 2 scheduled: 2 executed: 0 num_reg_dependent: 2 num_mem_ops: 0 event: 18286357
[cpu0_ROB] entry:  75 instr_id: 36915658 fetched: 2 scheduled: 2 executed: 0 num_reg_dependent: 1 num_mem_ops: 1 event: 18286357
[cpu0_ROB] entry:  76 instr_id: 36915659 fetched: 2 scheduled: 2 executed: 2 num_reg_dependent: 0 num_mem_ops: 0 event: 18286358
[cpu0_ROB] entry:  77 instr_id: 36915660 fetched: 2 scheduled: 2 executed: 0 num_reg_dependent: 1 num_mem_ops: 0 event: 18286357
[cpu0_ROB] entry:  78 instr_id: 36915661 fetched: 2 scheduled: 2 executed: 0 num_reg_dependent: 1 num_mem_ops: 1 event: 18286357
[cpu0_ROB] entry:  79 instr_id: 36915662 fetched: 2 scheduled: 2 executed: 0 num_reg_dependent: 1 num_mem_ops: 0 event: 18286358
[cpu0_ROB] entry:  80 instr_id: 36915663 fetched: 2 scheduled: 2 executed: 0 num_reg_dependent: 1 num_mem_ops: 1 event: 18286358
[cpu0_ROB] entry:  81 instr_id: 36915664 fetched: 2 scheduled: 2 executed: 0 num_reg_dependent: 2 num_mem_ops: 0 event: 18286358
[cpu0_ROB] entry:  82 instr_id: 36915665 fetched: 2 scheduled: 2 executed: 2 num_reg_dependent: 0 num_mem_ops: 0 event: 18286359
[cpu0_ROB] entry:  83 instr_id: 36915666 fetched: 2 scheduled: 2 executed: 0 num_reg_dependent: 1 num_mem_ops: 0 event: 18286358
[cpu0_ROB] entry:  84 instr_id: 36915667 fetched: 2 scheduled: 2 executed: 2 num_reg_dependent: 0 num_mem_ops: 0 event: 18286360
[cpu0_ROB] entry:  85 instr_id: 36915668 fetched: 2 scheduled: 2 executed: 1 num_reg_dependent: 0 num_mem_ops: 1 event: 18286359
[cpu0_ROB] entry:  86 instr_id: 36915669 fetched: 2 scheduled: 2 executed: 0 num_reg_dependent: 2 num_mem_ops: 0 event: 18286358
[cpu0_ROB] entry:  87 instr_id: 36915670 fetched: 2 scheduled: 2 executed: 0 num_reg_dependent: 2 num_mem_ops: 0 event: 18286358
[cpu0_ROB] entry:  88 instr_id: 36915671 fetched: 2 scheduled: 2 executed: 1 num_reg_dependent: 0 num_mem_ops: 1 event: 18286359
[cpu0_ROB] entry:  89 instr_id: 36915672 fetched: 2 scheduled: 2 executed: 0 num_reg_dependent: 3 num_mem_ops: 0 event: 18286359
[cpu0_ROB] entry:  90 instr_id: 36915673 fetched: 2 scheduled: 2 executed: 1 num_reg_dependent: 0 num_mem_ops: 1 event: 18286360
[cpu0_ROB] entry:  91 instr_id: 36915674 fetched: 2 scheduled: 2 executed: 2 num_reg_dependent: 0 num_mem_ops: 0 event: 18286360
[cpu0_ROB] entry:  92 instr_id: 36915675 fetched: 2 scheduled: 2 executed: 0 num_reg_dependent: 2 num_mem_ops: 0 event: 18286359
[cpu0_ROB] entry:  93 instr_id: 36915676 fetched: 2 scheduled: 2 executed: 0 num_reg_dependent: 2 num_mem_ops: 0 event: 18286359
[cpu0_ROB] entry:  94 instr_id: 36915677 fetched: 2 scheduled: 2 executed: 2 num_reg_dependent: 0 num_mem_ops: 0 event: 18286361
[cpu0_ROB] entry:  95 instr_id: 36915678 fetched: 2 scheduled: 2 executed: 0 num_reg_dependent: 1 num_mem_ops: 0 event: 18286360
[cpu0_ROB] entry:  96 instr_id: 36915679 fetched: 2 scheduled: 2 executed: 0 num_reg_dependent: 1 num_mem_ops: 0 event: 18286360
[cpu0_ROB] entry:  97 instr_id: 36915680 fetched: 2 scheduled: 2 executed: 0 num_reg_dependent: 2 num_mem_ops: 0 event: 18286360
[cpu0_ROB] entry:  98 instr_id: 36915681 fetched: 2 scheduled: 2 executed: 0 num_reg_dependent: 1 num_mem_ops: 1 event: 18286360
[cpu0_ROB] entry:  99 instr_id: 36915682 fetched: 2 scheduled: 2 executed: 0 num_reg_dependent: 1 num_mem_ops: 0 event: 18286361
[cpu0_ROB] entry: 100 instr_id: 36915683 fetched: 2 scheduled: 2 executed: 0 num_reg_dependent: 1 num_mem_ops: 0 event: 18286361
[cpu0_ROB] entry: 101 instr_id: 36915684 fetched: 2 scheduled: 2 executed: 0 num_reg_dependent: 2 num_mem_ops: 0 event: 18286361
[cpu0_ROB] entry: 102 instr_id: 36915685 fetched: 2 scheduled: 2 executed: 0 num_reg_dependent: 1 num_mem_ops: 1 event: 18286361
[cpu0_ROB] entry: 103 instr_id: 36915686 fetched: 2 scheduled: 2 executed: 1 num_reg_dependent: 0 num_mem_ops: 1 event: 18286362
[cpu0_ROB] entry: 104 instr_id: 36915687 fetched: 2 scheduled: 2 executed: 0 num_reg_dependent: 1 num_mem_ops: 0 event: 18286362
[cpu0_ROB] entry: 105 instr_id: 36915688 fetched: 2 scheduled: 2 executed: 0 num_reg_dependent: 2 num_mem_ops: 1 event: 18286362
[cpu0_ROB] entry: 106 instr_id: 36915689 fetched: 2 scheduled: 2 executed: 0 num_reg_dependent: 1 num_mem_ops: 0 event: 18286363
[cpu0_ROB] entry: 107 instr_id: 36915690 fetched: 2 scheduled: 2 executed: 0 num_reg_dependent: 1 num_mem_ops: 1 event: 18286732
[cpu0_ROB] entry: 108 instr_id: 36915691 fetched: 2 scheduled: 2 executed: 0 num_reg_dependent: 3 num_mem_ops: 0 event: 18286732
[cpu0_ROB] entry: 109 instr_id: 36915692 fetched: 2 scheduled: 2 executed: 1 num_reg_dependent: 0 num_mem_ops: 1 event: 18286733
[cpu0_ROB] entry: 110 instr_id: 36915693 fetched: 2 scheduled: 2 executed: 0 num_reg_dependent: 3 num_mem_ops: 0 event: 18286732
[cpu0_ROB] entry: 111 instr_id: 36915694 fetched: 2 scheduled: 2 executed: 0 num_reg_dependent: 1 num_mem_ops: 0 event: 18286732
[cpu0_ROB] entry: 112 instr_id: 36915695 fetched: 2 scheduled: 2 executed: 1 num_reg_dependent: 0 num_mem_ops: 1 event: 18286733
[cpu0_ROB] entry: 113 instr_id: 36915696 fetched: 2 scheduled: 2 executed: 0 num_reg_dependent: 2 num_mem_ops: 0 event: 18286732
[cpu0_ROB] entry: 114 instr_id: 36915697 fetched: 2 scheduled: 2 executed: 0 num_reg_dependent: 2 num_mem_ops: 0 event: 18286732
[cpu0_ROB] entry: 115 instr_id: 36915698 fetched: 2 scheduled: 2 executed: 1 num_reg_dependent: 0 num_mem_ops: 1 event: 18286734
[cpu0_ROB] entry: 116 instr_id: 36915699 fetched: 2 scheduled: 2 executed: 0 num_reg_dependent: 3 num_mem_ops: 0 event: 18286733
[cpu0_ROB] entry: 117 instr_id: 36915700 fetched: 2 scheduled: 2 executed: 1 num_reg_dependent: 0 num_mem_ops: 1 event: 18286734
[cpu0_ROB] entry: 118 instr_id: 36915701 fetched: 2 scheduled: 2 executed: 0 num_reg_dependent: 1 num_mem_ops: 0 event: 18286733
[cpu0_ROB] entry: 119 instr_id: 36915702 fetched: 2 scheduled: 2 executed: 0 num_reg_dependent: 2 num_mem_ops: 0 event: 18286733
[cpu0_ROB] entry: 120 instr_id: 36915703 fetched: 2 scheduled: 2 executed: 0 num_reg_dependent: 2 num_mem_ops: 0 event: 18286733
[cpu0_ROB] entry: 121 instr_id: 36915704 fetched: 2 scheduled: 2 executed: 0 num_reg_dependent: 1 num_mem_ops: 0 event: 18286733
[cpu0_ROB] entry: 122 instr_id: 36915705 fetched: 2 scheduled: 2 executed: 0 num_reg_dependent: 1 num_mem_ops: 0 event: 18286733
[cpu0_ROB] entry: 123 instr_id: 36915706 fetched: 2 scheduled: 2 executed: 0 num_reg_dependent: 1 num_mem_ops: 0 event: 18286733
[cpu0_ROB] entry: 124 instr_id: 36915707 fetched: 2 scheduled: 2 executed: 0 num_reg_dependent: 2 num_mem_ops: 0 event: 18286733
[cpu0_ROB] entry: 125 instr_id: 36915708 fetched: 2 scheduled: 2 executed: 0 num_reg_dependent: 1 num_mem_ops: 0 event: 18286733
[cpu0_ROB] entry: 126 instr_id: 36915709 fetched: 2 scheduled: 2 executed: 0 num_reg_dependent: 2 num_mem_ops: 0 event: 18286733
[cpu0_ROB] entry: 127 instr_id: 36915710 fetched: 2 scheduled: 2 executed: 1 num_reg_dependent: 0 num_mem_ops: 1 event: 18286735
[cpu0_ROB] entry: 128 instr_id: 36915711 fetched: 2 scheduled: 2 executed: 2 num_reg_dependent: 0 num_mem_ops: 0 event: 18286735
[cpu0_ROB] entry: 129 instr_id: 36915712 fetched: 2 scheduled: 2 executed: 0 num_reg_dependent: 2 num_mem_ops: 0 event: 18286734
[cpu0_ROB] entry: 130 instr_id: 36915713 fetched: 2 scheduled: 2 executed: 1 num_reg_dependent: 0 num_mem_ops: 1 event: 18286735
[cpu0_ROB] entry: 131 instr_id: 36915714 fetched: 2 scheduled: 2 executed: 0 num_reg_dependent: 2 num_mem_ops: 0 event: 18286734
[cpu0_ROB] entry: 132 instr_id: 36915715 fetched: 2 scheduled: 2 executed: 1 num_reg_dependent: 0 num_mem_ops: 1 event: 18286735
[cpu0_ROB] entry: 133 instr_id: 36915716 fetched: 2 scheduled: 2 executed: 2 num_reg_dependent: 0 num_mem_ops: 0 event: 18286735
[cpu0_ROB] entry: 134 instr_id: 36915717 fetched: 2 scheduled: 2 executed: 2 num_reg_dependent: 0 num_mem_ops: 0 event: 18286735
[cpu0_ROB] entry: 135 instr_id: 36915718 fetched: 2 scheduled: 2 executed: 0 num_reg_dependent: 2 num_mem_ops: 0 event: 18286734
[cpu0_ROB] entry: 136 instr_id: 36915719 fetched: 2 scheduled: 2 executed: 1 num_reg_dependent: 0 num_mem_ops: 1 event: 18286735
[cpu0_ROB] entry: 137 instr_id: 36915720 fetched: 2 scheduled: 2 executed: 2 num_reg_dependent: 0 num_mem_ops: 0 event: 18286735
[cpu0_ROB] entry: 138 instr_id: 36915721 fetched: 2 scheduled: 2 executed: 0 num_reg_dependent: 1 num_mem_ops: 0 event: 18286734
[cpu0_ROB] entry: 139 instr_id: 36915722 fetched: 2 scheduled: 2 executed: 0 num_reg_dependent: 1 num_mem_ops: 0 event: 18286735
[cpu0_ROB] entry: 140 instr_id: 36915723 fetched: 2 scheduled: 2 executed: 1 num_reg_dependent: 0 num_mem_ops: 1 event: 18286736
[cpu0_ROB] entry: 141 instr_id: 36915724 fetched: 2 scheduled: 2 executed: 0 num_reg_dependent: 1 num_mem_ops: 1 event: 18286735
[cpu0_ROB] entry: 142 instr_id: 36915725 fetched: 2 scheduled: 2 executed: 0 num_reg_dependent: 2 num_mem_ops: 0 event: 18286735
[cpu0_ROB] entry: 143 instr_id: 36915726 fetched: 2 scheduled: 2 executed: 0 num_reg_dependent: 1 num_mem_ops: 1 event: 18286735
[cpu0_ROB] entry: 144 instr_id: 36915727 fetched: 2 scheduled: 2 executed: 1 num_reg_dependent: 0 num_mem_ops: 1 event: 18286736
[cpu0_ROB] entry: 145 instr_id: 36915728 fetched: 2 scheduled: 2 executed: 0 num_reg_dependent: 1 num_mem_ops: 0 event: 18286735
[cpu0_ROB] entry: 146 instr_id: 36915729 fetched: 2 scheduled: 2 executed: 0 num_reg_dependent: 2 num_mem_ops: 0 event: 18286735
[cpu0_ROB] entry: 147 instr_id: 36915730 fetched: 2 scheduled: 2 executed: 0 num_reg_dependent: 2 num_mem_ops: 0 event: 18286735
[cpu0_ROB] entry: 148 instr_id: 36915731 fetched: 2 scheduled: 2 executed: 0 num_reg_dependent: 1 num_mem_ops: 0 event: 18286736
[cpu0_ROB] entry: 149 instr_id: 36915732 fetched: 2 scheduled: 2 executed: 0 num_reg_dependent: 1 num_mem_ops: 0 event: 18286736
[cpu0_ROB] entry: 150 instr_id: 36915733 fetched: 2 scheduled: 2 executed: 2 num_reg_dependent: 0 num_mem_ops: 0 event: 18286737
[cpu0_ROB] entry: 151 instr_id: 36915734 fetched: 2 scheduled: 2 executed: 0 num_reg_dependent: 1 num_mem_ops: 1 event: 18286736
[cpu0_ROB] entry: 152 instr_id: 36915735 fetched: 2 scheduled: 2 executed: 0 num_reg_dependent: 1 num_mem_ops: 0 event: 18286736
[cpu0_ROB] entry: 153 instr_id: 36915736 fetched: 2 scheduled: 2 executed: 0 num_reg_dependent: 1 num_mem_ops: 0 event: 18286736
[cpu0_ROB] entry: 154 instr_id: 36915737 fetched: 2 scheduled: 2 executed: 0 num_reg_dependent: 2 num_mem_ops: 0 event: 18286736
[cpu0_ROB] entry: 155 instr_id: 36915738 fetched: 2 scheduled: 2 executed: 0 num_reg_dependent: 1 num_mem_ops: 1 event: 18286736
[cpu0_ROB] entry: 156 instr_id: 36915739 fetched: 2 scheduled: 2 executed: 1 num_reg_dependent: 0 num_mem_ops: 1 event: 18286737
[cpu0_ROB] entry: 157 instr_id: 36915740 fetched: 2 scheduled: 2 executed: 0 num_reg_dependent: 1 num_mem_ops: 0 event: 18286737
[cpu0_ROB] entry: 158 instr_id: 36915741 fetched: 2 scheduled: 2 executed: 0 num_reg_dependent: 2 num_mem_ops: 1 event: 18286737
[cpu0_ROB] entry: 159 instr_id: 36915742 fetched: 2 scheduled: 2 executed: 0 num_reg_dependent: 1 num_mem_ops: 0 event: 18286737
[cpu0_ROB] entry: 160 instr_id: 36915743 fetched: 2 scheduled: 2 executed: 0 num_reg_dependent: 1 num_mem_ops: 1 event: 18286738
[cpu0_ROB] entry: 161 instr_id: 36915744 fetched: 2 scheduled: 2 executed: 0 num_reg_dependent: 3 num_mem_ops: 0 event: 18286738
[cpu0_ROB] entry: 162 instr_id: 36915745 fetched: 2 scheduled: 2 executed: 1 num_reg_dependent: 0 num_mem_ops: 1 event: 18286739
[cpu0_ROB] entry: 163 instr_id: 36915746 fetched: 2 scheduled: 2 executed: 0 num_reg_dependent: 3 num_mem_ops: 0 event: 18286739
[cpu0_ROB] entry: 164 instr_id: 36915747 fetched: 2 scheduled: 2 executed: 0 num_reg_dependent: 1 num_mem_ops: 0 event: 18286740
[cpu0_ROB] entry: 165 instr_id: 36915748 fetched: 2 scheduled: 2 executed: 1 num_reg_dependent: 0 num_mem_ops: 1 event: 18286741
[cpu0_ROB] entry: 166 instr_id: 36915749 fetched: 2 scheduled: 2 executed: 0 num_reg_dependent: 2 num_mem_ops: 0 event: 18286742
[cpu0_ROB] entry: 167 instr_id: 36915750 fetched: 2 scheduled: 2 executed: 0 num_reg_dependent: 2 num_mem_ops: 0 event: 18287056
[cpu0_ROB] entry: 168 instr_id: 36915751 fetched: 2 scheduled: 2 executed: 1 num_reg_dependent: 0 num_mem_ops: 1 event: 18287057
[cpu0_ROB] entry: 169 instr_id: 36915752 fetched: 2 scheduled: 2 executed: 0 num_reg_dependent: 3 num_mem_ops: 0 event: 18287056
[cpu0_ROB] entry: 170 instr_id: 36915753 fetched: 2 scheduled: 2 executed: 1 num_reg_dependent: 0 num_mem_ops: 1 event: 18287058
[cpu0_ROB] entry: 171 instr_id: 36915754 fetched: 2 scheduled: 2 executed: 0 num_reg_dependent: 1 num_mem_ops: 0 event: 18287057
[cpu0_ROB] entry: 172 instr_id: 36915755 fetched: 2 scheduled: 2 executed: 0 num_reg_dependent: 2 num_mem_ops: 0 event: 18287057
[cpu0_ROB] entry: 173 instr_id: 36915756 fetched: 2 scheduled: 2 executed: 0 num_reg_dependent: 2 num_mem_ops: 0 event: 18287057
[cpu0_ROB] entry: 174 instr_id: 36915757 fetched: 2 scheduled: 2 executed: 0 num_reg_dependent: 1 num_mem_ops: 0 event: 18287057
[cpu0_ROB] entry: 175 instr_id: 36915758 fetched: 2 scheduled: 2 executed: 0 num_reg_dependent: 1 num_mem_ops: 0 event: 18287057
[cpu0_ROB] entry: 176 instr_id: 36915759 fetched: 2 scheduled: 2 executed: 0 num_reg_dependent: 1 num_mem_ops: 0 event: 18287058
[cpu0_ROB] entry: 177 instr_id: 36915760 fetched: 2 scheduled: 2 executed: 0 num_reg_dependent: 2 num_mem_ops: 0 event: 18287058
[cpu0_ROB] entry: 178 instr_id: 36915761 fetched: 2 scheduled: 2 executed: 0 num_reg_dependent: 1 num_mem_ops: 1 event: 18287058
[cpu0_ROB] entry: 179 instr_id: 36915762 fetched: 2 scheduled: 2 executed: 0 num_reg_dependent: 1 num_mem_ops: 0 event: 18287058
[cpu0_ROB] entry: 180 instr_id: 36915763 fetched: 2 scheduled: 2 executed: 0 num_reg_dependent: 1 num_mem_ops: 0 event: 18287058
[cpu0_ROB] entry: 181 instr_id: 36915764 fetched: 2 scheduled: 2 executed: 0 num_reg_dependent: 2 num_mem_ops: 0 event: 18287058
[cpu0_ROB] entry: 182 instr_id: 36915765 fetched: 2 scheduled: 2 executed: 0 num_reg_dependent: 1 num_mem_ops: 1 event: 18287058
[cpu0_ROB] entry: 183 instr_id: 36915766 fetched: 2 scheduled: 2 executed: 1 num_reg_dependent: 0 num_mem_ops: 1 event: 18287059
[cpu0_ROB] entry: 184 instr_id: 36915767 fetched: 2 scheduled: 2 executed: 0 num_reg_dependent: 1 num_mem_ops: 0 event: 18287058
[cpu0_ROB] entry: 185 instr_id: 36915768 fetched: 2 scheduled: 2 executed: 0 num_reg_dependent: 2 num_mem_ops: 1 event: 18287058
[cpu0_ROB] entry: 186 instr_id: 36915769 fetched: 2 scheduled: 2 executed: 0 num_reg_dependent: 1 num_mem_ops: 0 event: 18287058
[cpu0_ROB] entry: 187 instr_id: 36915770 fetched: 2 scheduled: 2 executed: 0 num_reg_dependent: 1 num_mem_ops: 1 event: 18287058
[cpu0_ROB] entry: 188 instr_id: 36915771 fetched: 2 scheduled: 2 executed: 0 num_reg_dependent: 3 num_mem_ops: 0 event: 18287059
[cpu0_ROB] entry: 189 instr_id: 36915772 fetched: 2 scheduled: 2 executed: 1 num_reg_dependent: 0 num_mem_ops: 1 event: 18287060
[cpu0_ROB] entry: 190 instr_id: 36915773 fetched: 2 scheduled: 2 executed: 0 num_reg_dependent: 3 num_mem_ops: 0 event: 18287059
[cpu0_ROB] entry: 191 instr_id: 36915774 fetched: 2 scheduled: 2 executed: 0 num_reg_dependent: 1 num_mem_ops: 0 event: 18287059
[cpu0_ROB] entry: 192 instr_id: 36915775 fetched: 2 scheduled: 2 executed: 1 num_reg_dependent: 0 num_mem_ops: 1 event: 18287060
[cpu0_ROB] entry: 193 instr_id: 36915776 fetched: 2 scheduled: 2 executed: 0 num_reg_dependent: 2 num_mem_ops: 0 event: 18287060
[cpu0_ROB] entry: 194 instr_id: 36915777 fetched: 2 scheduled: 2 executed: 0 num_reg_dependent: 2 num_mem_ops: 0 event: 18287060
[cpu0_ROB] entry: 195 instr_id: 36915778 fetched: 2 scheduled: 2 executed: 1 num_reg_dependent: 0 num_mem_ops: 1 event: 18287061
[cpu0_ROB] entry: 196 instr_id: 36915779 fetched: 2 scheduled: 2 executed: 0 num_reg_dependent: 3 num_mem_ops: 0 event: 18287061
[cpu0_ROB] entry: 197 instr_id: 36915780 fetched: 2 scheduled: 2 executed: 1 num_reg_dependent: 0 num_mem_ops: 1 event: 18287062
[cpu0_ROB] entry: 198 instr_id: 36915781 fetched: 2 scheduled: 2 executed: 0 num_reg_dependent: 1 num_mem_ops: 0 event: 18287061
[cpu0_ROB] entry: 199 instr_id: 36915782 fetched: 2 scheduled: 2 executed: 0 num_reg_dependent: 2 num_mem_ops: 0 event: 18287062
[cpu0_ROB] entry: 200 instr_id: 36915783 fetched: 2 scheduled: 2 executed: 0 num_reg_dependent: 2 num_mem_ops: 0 event: 18287063
[cpu0_ROB] entry: 201 instr_id: 36915784 fetched: 2 scheduled: 0 executed: 0 num_reg_dependent: 0 num_mem_ops: 0 event: 18286113
[cpu0_ROB] entry: 202 instr_id: 36915785 fetched: 2 scheduled: 0 executed: 0 num_reg_dependent: 0 num_mem_ops: 0 event: 18286113
[cpu0_ROB] entry: 203 instr_id: 36915786 fetched: 2 scheduled: 0 executed: 0 num_reg_dependent: 0 num_mem_ops: 0 event: 18286113
[cpu0_ROB] entry: 204 instr_id: 36915787 fetched: 2 scheduled: 0 executed: 0 num_reg_dependent: 0 num_mem_ops: 0 event: 18286113
[cpu0_ROB] entry: 205 instr_id: 36915788 fetched: 2 scheduled: 0 executed: 0 num_reg_dependent: 0 num_mem_ops: 0 event: 18286113
[cpu0_ROB] entry: 206 instr_id: 36915789 fetched: 2 scheduled: 0 executed: 0 num_reg_dependent: 0 num_mem_ops: 0 event: 18286114
[cpu0_ROB] entry: 207 instr_id: 36915790 fetched: 2 scheduled: 0 executed: 0 num_reg_dependent: 0 num_mem_ops: 1 event: 18286114
[cpu0_ROB] entry: 208 instr_id: 36915791 fetched: 2 scheduled: 0 executed: 0 num_reg_dependent: 0 num_mem_ops: 0 event: 18286114
[cpu0_ROB] entry: 209 instr_id: 36915792 fetched: 2 scheduled: 0 executed: 0 num_reg_dependent: 0 num_mem_ops: 0 event: 18286114
[cpu0_ROB] entry: 210 instr_id: 36915793 fetched: 2 scheduled: 0 executed: 0 num_reg_dependent: 0 num_mem_ops: 1 event: 18286114
[cpu0_ROB] entry: 211 instr_id: 36915794 fetched: 2 scheduled: 0 executed: 0 num_reg_dependent: 0 num_mem_ops: 0 event: 18286114
[cpu0_ROB] entry: 212 instr_id: 36915795 fetched: 2 scheduled: 0 executed: 0 num_reg_dependent: 0 num_mem_ops: 1 event: 18286115
[cpu0_ROB] entry: 213 instr_id: 36915796 fetched: 2 scheduled: 0 executed: 0 num_reg_dependent: 0 num_mem_ops: 0 event: 18286115
[cpu0_ROB] entry: 214 instr_id: 36915797 fetched: 2 scheduled: 0 executed: 0 num_reg_dependent: 0 num_mem_ops: 0 event: 18286115
[cpu0_ROB] entry: 215 instr_id: 36915798 fetched: 2 scheduled: 0 executed: 0 num_reg_dependent: 0 num_mem_ops: 0 event: 18286115
[cpu0_ROB] entry: 216 instr_id: 36915799 fetched: 2 scheduled: 0 executed: 0 num_reg_dependent: 0 num_mem_ops: 1 event: 18286115
[cpu0_ROB] entry: 217 instr_id: 36915800 fetched: 2 scheduled: 0 executed: 0 num_reg_dependent: 0 num_mem_ops: 0 event: 18286115
[cpu0_ROB] entry: 218 instr_id: 36915801 fetched: 2 scheduled: 0 executed: 0 num_reg_dependent: 0 num_mem_ops: 0 event: 18286116
[cpu0_ROB] entry: 219 instr_id: 36915802 fetched: 2 scheduled: 0 executed: 0 num_reg_dependent: 0 num_mem_ops: 0 event: 18286116
[cpu0_ROB] entry: 220 instr_id: 36915803 fetched: 2 scheduled: 0 executed: 0 num_reg_dependent: 0 num_mem_ops: 1 event: 18286116
[cpu0_ROB] entry: 221 instr_id: 36915804 fetched: 2 scheduled: 0 executed: 0 num_reg_dependent: 0 num_mem_ops: 1 event: 18286116
[cpu0_ROB] entry: 222 instr_id: 36915805 fetched: 2 scheduled: 0 executed: 0 num_reg_dependent: 0 num_mem_ops: 0 event: 18286116
[cpu0_ROB] entry: 223 instr_id: 36915806 fetched: 2 scheduled: 0 executed: 0 num_reg_dependent: 0 num_mem_ops: 1 event: 18286116
[cpu0_ROB] entry: 224 instr_id: 36915807 fetched: 2 scheduled: 0 executed: 0 num_reg_dependent: 0 num_mem_ops: 1 event: 18286117
[cpu0_ROB] entry: 225 instr_id: 36915808 fetched: 2 scheduled: 0 executed: 0 num_reg_dependent: 0 num_mem_ops: 0 event: 18286117
[cpu0_ROB] entry: 226 instr_id: 36915809 fetched: 2 scheduled: 0 executed: 0 num_reg_dependent: 0 num_mem_ops: 0 event: 18286117
[cpu0_ROB] entry: 227 instr_id: 36915810 fetched: 2 scheduled: 0 executed: 0 num_reg_dependent: 0 num_mem_ops: 0 event: 18286117
[cpu0_ROB] entry: 228 instr_id: 36915811 fetched: 2 scheduled: 0 executed: 0 num_reg_dependent: 0 num_mem_ops: 0 event: 18286117
[cpu0_ROB] entry: 229 instr_id: 36915812 fetched: 2 scheduled: 0 executed: 0 num_reg_dependent: 0 num_mem_ops: 0 event: 18286117
[cpu0_ROB] entry: 230 instr_id: 36915813 fetched: 2 scheduled: 0 executed: 0 num_reg_dependent: 0 num_mem_ops: 0 event: 18286118
[cpu0_ROB] entry: 231 instr_id: 36915814 fetched: 2 scheduled: 0 executed: 0 num_reg_dependent: 0 num_mem_ops: 1 event: 18286118
[cpu0_ROB] entry: 232 instr_id: 36915815 fetched: 2 scheduled: 0 executed: 0 num_reg_dependent: 0 num_mem_ops: 0 event: 18286118
[cpu0_ROB] entry: 233 instr_id: 36915816 fetched: 2 scheduled: 0 executed: 0 num_reg_dependent: 0 num_mem_ops: 0 event: 18286118
[cpu0_ROB] entry: 234 instr_id: 36915817 fetched: 2 scheduled: 0 executed: 0 num_reg_dependent: 0 num_mem_ops: 0 event: 18286118
[cpu0_ROB] entry: 235 instr_id: 36915818 fetched: 2 scheduled: 0 executed: 0 num_reg_dependent: 0 num_mem_ops: 1 event: 18286118
[cpu0_ROB] entry: 236 instr_id: 36915819 fetched: 2 scheduled: 0 executed: 0 num_reg_dependent: 0 num_mem_ops: 1 event: 18286119
[cpu0_ROB] entry: 237 instr_id: 36915820 fetched: 2 scheduled: 0 executed: 0 num_reg_dependent: 0 num_mem_ops: 0 event: 18286119
[cpu0_ROB] entry: 238 instr_id: 36915821 fetched: 2 scheduled: 0 executed: 0 num_reg_dependent: 0 num_mem_ops: 1 event: 18286119
[cpu0_ROB] entry: 239 instr_id: 36915822 fetched: 2 scheduled: 0 executed: 0 num_reg_dependent: 0 num_mem_ops: 0 event: 18286119
[cpu0_ROB] entry: 240 instr_id: 36915823 fetched: 2 scheduled: 0 executed: 0 num_reg_dependent: 0 num_mem_ops: 1 event: 18286119
[cpu0_ROB] entry: 241 instr_id: 36915824 fetched: 2 scheduled: 0 executed: 0 num_reg_dependent: 0 num_mem_ops: 0 event: 18286119
[cpu0_ROB] entry: 242 instr_id: 36915825 fetched: 2 scheduled: 0 executed: 0 num_reg_dependent: 0 num_mem_ops: 1 event: 18286120
[cpu0_ROB] entry: 243 instr_id: 36915826 fetched: 2 scheduled: 0 executed: 0 num_reg_dependent: 0 num_mem_ops: 0 event: 18286120
[cpu0_ROB] entry: 244 instr_id: 36915827 fetched: 2 scheduled: 0 executed: 0 num_reg_dependent: 0 num_mem_ops: 0 event: 18286120
[cpu0_ROB] entry: 245 instr_id: 36915828 fetched: 2 scheduled: 0 executed: 0 num_reg_dependent: 0 num_mem_ops: 1 event: 18286120
[cpu0_ROB] entry: 246 instr_id: 36915829 fetched: 2 scheduled: 0 executed: 0 num_reg_dependent: 0 num_mem_ops: 0 event: 18286120
[cpu0_ROB] entry: 247 instr_id: 36915830 fetched: 2 scheduled: 0 executed: 0 num_reg_dependent: 0 num_mem_ops: 0 event: 18286120
[cpu0_ROB] entry: 248 instr_id: 36915831 fetched: 2 scheduled: 0 executed: 0 num_reg_dependent: 0 num_mem_ops: 1 event: 18286121
[cpu0_ROB] entry: 249 instr_id: 36915832 fetched: 2 scheduled: 0 executed: 0 num_reg_dependent: 0 num_mem_ops: 0 event: 18286121
[cpu0_ROB] entry: 250 instr_id: 36915833 fetched: 2 scheduled: 0 executed: 0 num_reg_dependent: 0 num_mem_ops: 1 event: 18286121
[cpu0_ROB] entry: 251 instr_id: 36915834 fetched: 2 scheduled: 0 executed: 0 num_reg_dependent: 0 num_mem_ops: 0 event: 18286121
[cpu0_ROB] entry: 252 instr_id: 36915835 fetched: 2 scheduled: 0 executed: 0 num_reg_dependent: 0 num_mem_ops: 0 event: 18286121
[cpu0_ROB] entry: 253 instr_id: 36915836 fetched: 2 scheduled: 0 executed: 0 num_reg_dependent: 0 num_mem_ops: 0 event: 18286121
[cpu0_ROB] entry: 254 instr_id: 36915837 fetched: 2 scheduled: 0 executed: 0 num_reg_dependent: 0 num_mem_ops: 0 event: 18286122
[cpu0_ROB] entry: 255 instr_id: 36915838 fetched: 2 scheduled: 0 executed: 0 num_reg_dependent: 0 num_mem_ops: 0 event: 18286122
[cpu0_ROB] entry: 256 instr_id: 36915839 fetched: 2 scheduled: 0 executed: 0 num_reg_dependent: 0 num_mem_ops: 0 event: 18286122
[cpu0_ROB] entry: 257 instr_id: 36915840 fetched: 2 scheduled: 0 executed: 0 num_reg_dependent: 0 num_mem_ops: 0 event: 18286122
[cpu0_ROB] entry: 258 instr_id: 36915841 fetched: 2 scheduled: 0 executed: 0 num_reg_dependent: 0 num_mem_ops: 1 event: 18286122
[cpu0_ROB] entry: 259 instr_id: 36915842 fetched: 2 scheduled: 0 executed: 0 num_reg_dependent: 0 num_mem_ops: 0 event: 18286122
[cpu0_ROB] entry: 260 instr_id: 36915843 fetched: 2 scheduled: 0 executed: 0 num_reg_dependent: 0 num_mem_ops: 0 event: 18286123
[cpu0_ROB] entry: 261 instr_id: 36915844 fetched: 2 scheduled: 0 executed: 0 num_reg_dependent: 0 num_mem_ops: 0 event: 18286123
[cpu0_ROB] entry: 262 instr_id: 36915845 fetched: 2 scheduled: 0 executed: 0 num_reg_dependent: 0 num_mem_ops: 1 event: 18286123
[cpu0_ROB] entry: 263 instr_id: 36915846 fetched: 2 scheduled: 0 executed: 0 num_reg_dependent: 0 num_mem_ops: 1 event: 18286123
[cpu0_ROB] entry: 264 instr_id: 36915847 fetched: 2 scheduled: 0 executed: 0 num_reg_dependent: 0 num_mem_ops: 0 event: 18286123
[cpu0_ROB] entry: 265 instr_id: 36915848 fetched: 2 scheduled: 0 executed: 0 num_reg_dependent: 0 num_mem_ops: 1 event: 18286123
[cpu0_ROB] entry: 266 instr_id: 36915849 fetched: 2 scheduled: 0 executed: 0 num_reg_dependent: 0 num_mem_ops: 0 event: 18286124
[cpu0_ROB] entry: 267 instr_id: 36915850 fetched: 2 scheduled: 0 executed: 0 num_reg_dependent: 0 num_mem_ops: 1 event: 18286124
[cpu0_ROB] entry: 268 instr_id: 36915851 fetched: 2 scheduled: 0 executed: 0 num_reg_dependent: 0 num_mem_ops: 0 event: 18286124
[cpu0_ROB] entry: 269 instr_id: 36915852 fetched: 2 scheduled: 0 executed: 0 num_reg_dependent: 0 num_mem_ops: 1 event: 18286124
[cpu0_ROB] entry: 270 instr_id: 36915853 fetched: 2 scheduled: 0 executed: 0 num_reg_dependent: 0 num_mem_ops: 0 event: 18286124
[cpu0_ROB] entry: 271 instr_id: 36915854 fetched: 2 scheduled: 0 executed: 0 num_reg_dependent: 0 num_mem_ops: 0 event: 18286124
[cpu0_ROB] entry: 272 instr_id: 36915855 fetched: 2 scheduled: 0 executed: 0 num_reg_dependent: 0 num_mem_ops: 1 event: 18286125
[cpu0_ROB] entry: 273 instr_id: 36915856 fetched: 2 scheduled: 0 executed: 0 num_reg_dependent: 0 num_mem_ops: 0 event: 18286125
[cpu0_ROB] entry: 274 instr_id: 36915857 fetched: 2 scheduled: 0 executed: 0 num_reg_dependent: 0 num_mem_ops: 0 event: 18286125
[cpu0_ROB] entry: 275 instr_id: 36915858 fetched: 2 scheduled: 0 executed: 0 num_reg_dependent: 0 num_mem_ops: 1 event: 18286125
[cpu0_ROB] entry: 276 instr_id: 36915859 fetched: 2 scheduled: 0 executed: 0 num_reg_dependent: 0 num_mem_ops: 0 event: 18286125
[cpu0_ROB] entry: 277 instr_id: 36915860 fetched: 2 scheduled: 0 executed: 0 num_reg_dependent: 0 num_mem_ops: 1 event: 18286125
[cpu0_ROB] entry: 278 instr_id: 36915861 fetched: 2 scheduled: 0 executed: 0 num_reg_dependent: 0 num_mem_ops: 0 event: 18286126
[cpu0_ROB] entry: 279 instr_id: 36915862 fetched: 2 scheduled: 0 executed: 0 num_reg_dependent: 0 num_mem_ops: 0 event: 18286126
[cpu0_ROB] entry: 280 instr_id: 36915863 fetched: 2 scheduled: 0 executed: 0 num_reg_dependent: 0 num_mem_ops: 0 event: 18286126
[cpu0_ROB] entry: 281 instr_id: 36915864 fetched: 2 scheduled: 0 executed: 0 num_reg_dependent: 0 num_mem_ops: 0 event: 18286126
[cpu0_ROB] entry: 282 instr_id: 36915865 fetched: 2 scheduled: 0 executed: 0 num_reg_dependent: 0 num_mem_ops: 0 event: 18286126
[cpu0_ROB] entry: 283 instr_id: 36915866 fetched: 2 scheduled: 0 executed: 0 num_reg_dependent: 0 num_mem_ops: 0 event: 18286126
[cpu0_ROB] entry: 284 instr_id: 36915867 fetched: 2 scheduled: 0 executed: 0 num_reg_dependent: 0 num_mem_ops: 0 event: 18286127
[cpu0_ROB] entry: 285 instr_id: 36915868 fetched: 2 scheduled: 0 executed: 0 num_reg_dependent: 0 num_mem_ops: 0 event: 18286190
[cpu0_ROB] entry: 286 instr_id: 36915869 fetched: 2 scheduled: 0 executed: 0 num_reg_dependent: 0 num_mem_ops: 0 event: 18286191
[cpu0_ROB] entry: 287 instr_id: 36915870 fetched: 2 scheduled: 0 executed: 0 num_reg_dependent: 0 num_mem_ops: 1 event: 18286732
[cpu0_ROB] entry: 288 instr_id: 36915871 fetched: 2 scheduled: 0 executed: 0 num_reg_dependent: 0 num_mem_ops: 0 event: 18286732
[cpu0_ROB] entry: 289 instr_id: 36915872 fetched: 2 scheduled: 0 executed: 0 num_reg_dependent: 0 num_mem_ops: 0 event: 18286733
[cpu0_ROB] entry: 290 instr_id: 36915873 fetched: 2 scheduled: 0 executed: 0 num_reg_dependent: 0 num_mem_ops: 1 event: 18286733
[cpu0_ROB] entry: 291 instr_id: 36915874 fetched: 2 scheduled: 0 executed: 0 num_reg_dependent: 0 num_mem_ops: 0 event: 18286734
[cpu0_ROB] entry: 292 instr_id: 36915875 fetched: 2 scheduled: 0 executed: 0 num_reg_dependent: 0 num_mem_ops: 1 event: 18286734
[cpu0_ROB] entry: 293 instr_id: 36915876 fetched: 2 scheduled: 0 executed: 0 num_reg_dependent: 0 num_mem_ops: 0 event: 18286734
[cpu0_ROB] entry: 294 instr_id: 36915877 fetched: 2 scheduled: 0 executed: 0 num_reg_dependent: 0 num_mem_ops: 0 event: 18286734
[cpu0_ROB] entry: 295 instr_id: 36915878 fetched: 2 scheduled: 0 executed: 0 num_reg_dependent: 0 num_mem_ops: 0 event: 18286734
[cpu0_ROB] entry: 296 instr_id: 36915879 fetched: 2 scheduled: 0 executed: 0 num_reg_dependent: 0 num_mem_ops: 1 event: 18286734
[cpu0_ROB] entry: 297 instr_id: 36915880 fetched: 2 scheduled: 0 executed: 0 num_reg_dependent: 0 num_mem_ops: 0 event: 18286735
[cpu0_ROB] entry: 298 instr_id: 36915881 fetched: 2 scheduled: 0 executed: 0 num_reg_dependent: 0 num_mem_ops: 0 event: 18286735
[cpu0_ROB] entry: 299 instr_id: 36915882 fetched: 2 scheduled: 0 executed: 0 num_reg_dependent: 0 num_mem_ops: 0 event: 18286735
[cpu0_ROB] entry: 300 instr_id: 36915883 fetched: 2 scheduled: 0 executed: 0 num_reg_dependent: 0 num_mem_ops: 1 event: 18286735
[cpu0_ROB] entry: 301 instr_id: 36915884 fetched: 2 scheduled: 0 executed: 0 num_reg_dependent: 0 num_mem_ops: 1 event: 18286735
[cpu0_ROB] entry: 302 instr_id: 36915885 fetched: 2 scheduled: 0 executed: 0 num_reg_dependent: 0 num_mem_ops: 0 event: 18286735
[cpu0_ROB] entry: 303 instr_id: 36915886 fetched: 2 scheduled: 0 executed: 0 num_reg_dependent: 0 num_mem_ops: 1 event: 18286736
[cpu0_ROB] entry: 304 instr_id: 36915887 fetched: 2 scheduled: 0 executed: 0 num_reg_dependent: 0 num_mem_ops: 1 event: 18286736
[cpu0_ROB] entry: 305 instr_id: 36915888 fetched: 2 scheduled: 0 executed: 0 num_reg_dependent: 0 num_mem_ops: 0 event: 18286736
[cpu0_ROB] entry: 306 instr_id: 36915889 fetched: 2 scheduled: 0 executed: 0 num_reg_dependent: 0 num_mem_ops: 0 event: 18286736
[cpu0_ROB] entry: 307 instr_id: 36915890 fetched: 2 scheduled: 0 executed: 0 num_reg_dependent: 0 num_mem_ops: 0 event: 18286736
[cpu0_ROB] entry: 308 instr_id: 36915891 fetched: 2 scheduled: 0 executed: 0 num_reg_dependent: 0 num_mem_ops: 0 event: 18286736
[cpu0_ROB] entry: 309 instr_id: 36915892 fetched: 2 scheduled: 0 executed: 0 num_reg_dependent: 0 num_mem_ops: 0 event: 18286737
[cpu0_ROB] entry: 310 instr_id: 36915893 fetched: 2 scheduled: 0 executed: 0 num_reg_dependent: 0 num_mem_ops: 0 event: 18286737
[cpu0_ROB] entry: 311 instr_id: 36915894 fetched: 2 scheduled: 0 executed: 0 num_reg_dependent: 0 num_mem_ops: 1 event: 18286737
[cpu0_ROB] entry: 312 instr_id: 36915895 fetched: 2 scheduled: 0 executed: 0 num_reg_dependent: 0 num_mem_ops: 0 event: 18286737
[cpu0_ROB] entry: 313 instr_id: 36915896 fetched: 2 scheduled: 0 executed: 0 num_reg_dependent: 0 num_mem_ops: 0 event: 18286737
[cpu0_ROB] entry: 314 instr_id: 36915897 fetched: 2 scheduled: 0 executed: 0 num_reg_dependent: 0 num_mem_ops: 0 event: 18286737
[cpu0_ROB] entry: 315 instr_id: 36915898 fetched: 2 scheduled: 0 executed: 0 num_reg_dependent: 0 num_mem_ops: 1 event: 18286738
[cpu0_ROB] entry: 316 instr_id: 36915899 fetched: 2 scheduled: 0 executed: 0 num_reg_dependent: 0 num_mem_ops: 1 event: 18286738
[cpu0_ROB] entry: 317 instr_id: 36915900 fetched: 2 scheduled: 0 executed: 0 num_reg_dependent: 0 num_mem_ops: 0 event: 18286738
[cpu0_ROB] entry: 318 instr_id: 36915901 fetched: 2 scheduled: 0 executed: 0 num_reg_dependent: 0 num_mem_ops: 1 event: 18286738
[cpu0_ROB] entry: 319 instr_id: 36915902 fetched: 2 scheduled: 0 executed: 0 num_reg_dependent: 0 num_mem_ops: 0 event: 18286738
[cpu0_ROB] entry: 320 instr_id: 36915903 fetched: 2 scheduled: 0 executed: 0 num_reg_dependent: 0 num_mem_ops: 1 event: 18286738
[cpu0_ROB] entry: 321 instr_id: 36915904 fetched: 2 scheduled: 0 executed: 0 num_reg_dependent: 0 num_mem_ops: 0 event: 18286739
[cpu0_ROB] entry: 322 instr_id: 36915905 fetched: 2 scheduled: 0 executed: 0 num_reg_dependent: 0 num_mem_ops: 1 event: 18286739
[cpu0_ROB] entry: 323 instr_id: 36915906 fetched: 2 scheduled: 0 executed: 0 num_reg_dependent: 0 num_mem_ops: 0 event: 18286739
[cpu0_ROB] entry: 324 instr_id: 36915907 fetched: 2 scheduled: 0 executed: 0 num_reg_dependent: 0 num_mem_ops: 0 event: 18286739
[cpu0_ROB] entry: 325 instr_id: 36915908 fetched: 2 scheduled: 0 executed: 0 num_reg_dependent: 0 num_mem_ops: 1 event: 18286739
[cpu0_ROB] entry: 326 instr_id: 36915909 fetched: 2 scheduled: 0 executed: 0 num_reg_dependent: 0 num_mem_ops: 0 event: 18286739
[cpu0_ROB] entry: 327 instr_id: 36915910 fetched: 2 scheduled: 0 executed: 0 num_reg_dependent: 0 num_mem_ops: 0 event: 18286740
[cpu0_ROB] entry: 328 instr_id: 36915911 fetched: 2 scheduled: 0 executed: 0 num_reg_dependent: 0 num_mem_ops: 1 event: 18286740
[cpu0_ROB] entry: 329 instr_id: 36915912 fetched: 2 scheduled: 0 executed: 0 num_reg_dependent: 0 num_mem_ops: 0 event: 18286740
[cpu0_ROB] entry: 330 instr_id: 36915913 fetched: 2 scheduled: 0 executed: 0 num_reg_dependent: 0 num_mem_ops: 1 event: 18286740
[cpu0_ROB] entry: 331 instr_id: 36915914 fetched: 2 scheduled: 0 executed: 0 num_reg_dependent: 0 num_mem_ops: 0 event: 18286740
[cpu0_ROB] entry: 332 instr_id: 36915915 fetched: 2 scheduled: 0 executed: 0 num_reg_dependent: 0 num_mem_ops: 0 event: 18286740
[cpu0_ROB] entry: 333 instr_id: 36915916 fetched: 2 scheduled: 0 executed: 0 num_reg_dependent: 0 num_mem_ops: 0 event: 18286741
[cpu0_ROB] entry: 334 instr_id: 36915917 fetched: 2 scheduled: 0 executed: 0 num_reg_dependent: 0 num_mem_ops: 0 event: 18286741
[cpu0_ROB] entry: 335 instr_id: 36915918 fetched: 2 scheduled: 0 executed: 0 num_reg_dependent: 0 num_mem_ops: 0 event: 18286741
[cpu0_ROB] entry: 336 instr_id: 36915919 fetched: 2 scheduled: 0 executed: 0 num_reg_dependent: 0 num_mem_ops: 0 event: 18286741
[cpu0_ROB] entry: 337 instr_id: 36915920 fetched: 2 scheduled: 0 executed: 0 num_reg_dependent: 0 num_mem_ops: 0 event: 18286741
[cpu0_ROB] entry: 338 instr_id: 36915921 fetched: 2 scheduled: 0 executed: 0 num_reg_dependent: 0 num_mem_ops: 1 event: 18286741
[cpu0_ROB] entry: 339 instr_id: 36915922 fetched: 2 scheduled: 0 executed: 0 num_reg_dependent: 0 num_mem_ops: 0 event: 18286742
[cpu0_ROB] entry: 340 instr_id: 36915923 fetched: 2 scheduled: 0 executed: 0 num_reg_dependent: 0 num_mem_ops: 0 event: 18286742
[cpu0_ROB] entry: 341 instr_id: 36915924 fetched: 2 scheduled: 0 executed: 0 num_reg_dependent: 0 num_mem_ops: 0 event: 18286742
[cpu0_ROB] entry: 342 instr_id: 36915925 fetched: 2 scheduled: 0 executed: 0 num_reg_dependent: 0 num_mem_ops: 1 event: 18286742
[cpu0_ROB] entry: 343 instr_id: 36915926 fetched: 2 scheduled: 0 executed: 0 num_reg_dependent: 0 num_mem_ops: 1 event: 18286742
[cpu0_ROB] entry: 344 instr_id: 36915927 fetched: 2 scheduled: 0 executed: 0 num_reg_dependent: 0 num_mem_ops: 0 event: 18286742
[cpu0_ROB] entry: 345 instr_id: 36915928 fetched: 2 scheduled: 0 executed: 0 num_reg_dependent: 0 num_mem_ops: 1 event: 18286743
[cpu0_ROB] entry: 346 instr_id: 36915929 fetched: 2 scheduled: 0 executed: 0 num_reg_dependent: 0 num_mem_ops: 0 event: 18286743
[cpu0_ROB] entry: 347 instr_id: 36915930 fetched: 2 scheduled: 0 executed: 0 num_reg_dependent: 0 num_mem_ops: 1 event: 18286743
[cpu0_ROB] entry: 348 instr_id: 36915931 fetched: 2 scheduled: 0 executed: 0 num_reg_dependent: 0 num_mem_ops: 0 event: 18286743
[cpu0_ROB] entry: 349 instr_id: 36915932 fetched: 2 scheduled: 0 executed: 0 num_reg_dependent: 0 num_mem_ops: 1 event: 18286743
[cpu0_ROB] entry: 350 instr_id: 36915933 fetched: 2 scheduled: 0 executed: 0 num_reg_dependent: 0 num_mem_ops: 0 event: 18286743
[cpu0_ROB] entry: 351 instr_id: 36915934 fetched: 2 scheduled: 0 executed: 0 num_reg_dependent: 0 num_mem_ops: 0 event: 18286744
[cpu0_ROB] entry: 352 instr_id: 36915935 fetched: 2 scheduled: 0 executed: 0 num_reg_dependent: 0 num_mem_ops: 1 event: 18286744
[cpu0_ROB] entry: 353 instr_id: 36915936 fetched: 2 scheduled: 0 executed: 0 num_reg_dependent: 0 num_mem_ops: 0 event: 18286744
[cpu0_ROB] entry: 354 instr_id: 36915937 fetched: 2 scheduled: 0 executed: 0 num_reg_dependent: 0 num_mem_ops: 0 event: 18286744
[cpu0_ROB] entry: 355 instr_id: 36915938 fetched: 2 scheduled: 0 executed: 0 num_reg_dependent: 0 num_mem_ops: 1 event: 18286744
[cpu0_ROB] entry: 356 instr_id: 36915939 fetched: 2 scheduled: 0 executed: 0 num_reg_dependent: 0 num_mem_ops: 0 event: 18286744
[cpu0_ROB] entry: 357 instr_id: 36915940 fetched: 2 scheduled: 0 executed: 0 num_reg_dependent: 0 num_mem_ops: 1 event: 18286745
[cpu0_ROB] entry: 358 instr_id: 36915941 fetched: 2 scheduled: 0 executed: 0 num_reg_dependent: 0 num_mem_ops: 0 event: 18286745
[cpu0_ROB] entry: 359 instr_id: 36915942 fetched: 2 scheduled: 0 executed: 0 num_reg_dependent: 0 num_mem_ops: 0 event: 18286745
[cpu0_ROB] entry: 360 instr_id: 36915943 fetched: 2 scheduled: 0 executed: 0 num_reg_dependent: 0 num_mem_ops: 0 event: 18286745
[cpu0_ROB] entry: 361 instr_id: 36915944 fetched: 2 scheduled: 0 executed: 0 num_reg_dependent: 0 num_mem_ops: 0 event: 18286745
[cpu0_ROB] entry: 362 instr_id: 36915945 fetched: 2 scheduled: 0 executed: 0 num_reg_dependent: 0 num_mem_ops: 0 event: 18286745
[cpu0_ROB] entry: 363 instr_id: 36915946 fetched: 2 scheduled: 0 executed: 0 num_reg_dependent: 0 num_mem_ops: 0 event: 18286746
[cpu0_ROB] entry: 364 instr_id: 36915947 fetched: 2 scheduled: 0 executed: 0 num_reg_dependent: 0 num_mem_ops: 0 event: 18286746

[cpu0_LQ] entry:   0 instr_id: 36915591 address: 0xfffffffff5a8 fetch_issued: true event_cycle: 18286235 waits on -
[cpu0_LQ] entry:   1 instr_id: 36915601 address: 0x9506780 fetch_issued: true event_cycle: 18287057 waits on -
[cpu0_LQ] entry:   2 instr_id: 36915790 address: 0xfffffffff618 fetch_issued: true event_cycle: 0 waits on -
[cpu0_LQ] entry:   3 instr_id: 36915593 address: 0xfffffffff4c8 fetch_issued: true event_cycle: 18286236 waits on -
[cpu0_LQ] entry:   4 instr_id: 36915793 address: 0xfffffffff610 fetch_issued: true event_cycle: 0 waits on -
[cpu0_LQ] entry:   5 instr_id: 36915795 address: 0xfffffffff650 fetch_issued: true event_cycle: 0 waits on -
[cpu0_LQ] entry:   6 instr_id: 36915841 address: 0x97e0e70 fetch_issued: true event_cycle: 0 waits on -
[cpu0_LQ] entry:   7 instr_id: 36915673 address: 0xfffffffff4c8 fetch_issued: true event_cycle: 18286360 waits on -
[cpu0_LQ] entry:   8 instr_id: 36915605 address: 0x9506788 fetch_issued: true event_cycle: 18287057 waits on -
[cpu0_LQ] entry:   9 instr_id: 36915845 address: 0x97e0e78 fetch_issued: true event_cycle: 0 waits on -
[cpu0_LQ] entry:  10 instr_id: 36915608 address: 0x8c2a29c fetch_issued: true event_cycle: 0 waits on -
[cpu0_LQ] entry:  11 empty
[cpu0_LQ] entry:  12 instr_id: 36915681 address: 0x97cf4f0 fetch_issued: true event_cycle: 0 waits on -
[cpu0_LQ] entry:  13 instr_id: 36915846 address: 0xfffffffff5c0 fetch_issued: true event_cycle: 0 waits on -
[cpu0_LQ] entry:  14 instr_id: 36915583 address: 0x8c76114 fetch_issued: true event_cycle: 18287058 waits on -
[cpu0_LQ] entry:  15 instr_id: 36915848 address: 0x8c2b2c4 fetch_issued: true event_cycle: 0 waits on -
[cpu0_LQ] entry:  16 instr_id: 36915685 address: 0x97cf4f8 fetch_issued: true event_cycle: 0 waits on -
[cpu0_LQ] entry:  17 instr_id: 36915850 address: 0x8c772c4 fetch_issued: true event_cycle: 0 waits on -
[cpu0_LQ] entry:  18 instr_id: 36915588 address: 0xfffffffff5b0 fetch_issued: true event_cycle: 18286235 waits on -
[cpu0_LQ] entry:  19 instr_id: 36915852 address: 0xfffffffff5f8 fetch_issued: true event_cycle: 0 waits on -
[cpu0_LQ] entry:  20 instr_id: 36915610 address: 0x8c7629c fetch_issued: true event_cycle: 0 waits on -
[cpu0_LQ] entry:  21 instr_id: 36915855 address: 0xfffffffff5b0 fetch_issued: true event_cycle: 0 waits on -
[cpu0_LQ] entry:  22 instr_id: 36915858 address: 0xfffffffff5a8 fetch_issued: true event_cycle: 0 waits on -
[cpu0_LQ] entry:  23 instr_id: 36915860 address: 0xfffffffff4c8 fetch_issued: true event_cycle: 0 waits on -
[cpu0_LQ] entry:  24 instr_id: 36915870 address: 0xfffffffff618 fetch_issued: true event_cycle: 0 waits on -
[cpu0_LQ] entry:  25 instr_id: 36915686 address: 0xfffffffff5c0 fetch_issued: true event_cycle: 18286362 waits on -
[cpu0_LQ] entry:  26 instr_id: 36915615 address: 0xfffffffff5b0 fetch_issued: true event_cycle: 18286355 waits on -
[cpu0_LQ] entry:  27 instr_id: 36915618 address: 0xfffffffff5a8 fetch_issued: true event_cycle: 18286355 waits on -
[cpu0_LQ] entry:  28 instr_id: 36915873 address: 0xfffffffff610 fetch_issued: true event_cycle: 0 waits on -
[cpu0_LQ] entry:  29 instr_id: 36915620 address: 0xfffffffff4c8 fetch_issued: true event_cycle: 18286355 waits on -
[cpu0_LQ] entry:  30 instr_id: 36915688 address: 0x8c2b1b0 fetch_issued: true event_cycle: 0 waits on -
[cpu0_LQ] entry:  31 instr_id: 36915875 address: 0xfffffffff650 fetch_issued: true event_cycle: 0 waits on -
[cpu0_LQ] entry:  32 instr_id: 36915690 address: 0x8c771b0 fetch_issued: true event_cycle: 0 waits on -
[cpu0_LQ] entry:  33 instr_id: 36915635 address: 0xfffffffff650 fetch_issued: true event_cycle: 18286356 waits on -
[cpu0_LQ] entry:  34 instr_id: 36915639 address: 0xfffffffff4bc fetch_issued: true event_cycle: 18286357 waits on -
[cpu0_LQ] entry:  35 instr_id: 36915643 address: 0xf5e0a0 fetch_issued: true event_cycle: 18286358 waits on -
[cpu0_LQ] entry:  36 instr_id: 36915644 address: 0x32f21a0 fetch_issued: true event_cycle: 0 waits on -
[cpu0_LQ] entry:  37 instr_id: 36915646 address: 0x97cf4d8 fetch_issued: true event_cycle: 0 waits on -
[cpu0_LQ] entry:  38 instr_id: 36915692 address: 0xfffffffff5f8 fetch_issued: true event_cycle: 18286733 waits on -
[cpu0_LQ] entry:  39 instr_id: 36915879 address: 0xfffffffff4bc fetch_issued: true event_cycle: 0 waits on -
[cpu0_LQ] entry:  40 instr_id: 36915883 address: 0xf5e0b8 fetch_issued: true event_cycle: 0 waits on -
[cpu0_LQ] entry:  41 instr_id: 36915654 address: 0x97cf4e0 fetch_issued: true event_cycle: 0 waits on -
[cpu0_LQ] entry:  42 instr_id: 36915884 address: 0x32fcc00 fetch_issued: true event_cycle: 0 waits on -
[cpu0_LQ] entry:  43 instr_id: 36915886 address: 0x97df528 fetch_issued: true event_cycle: 0 waits on -
[cpu0_LQ] entry:  44 instr_id: 36915658 address: 0x97cf4e8 fetch_issued: true event_cycle: 0 waits on -
[cpu0_LQ] entry:  45 instr_id: 36915695 address: 0xfffffffff5b0 fetch_issued: true event_cycle: 18286733 waits on -
[cpu0_LQ] entry:  46 instr_id: 36915661 address: 0x8c2b024 fetch_issued: true event_cycle: 0 waits on -
[cpu0_LQ] entry:  47 instr_id: 36915663 address: 0x8c77024 fetch_issued: true event_cycle: 0 waits on -
[cpu0_LQ] entry:  48 instr_id: 36915698 address: 0xfffffffff5a8 fetch_issued: true event_cycle: 18286734 waits on -
[cpu0_LQ] entry:  49 instr_id: 36915668 address: 0xfffffffff5b0 fetch_issued: true event_cycle: 18286359 waits on -
[cpu0_LQ] entry:  50 instr_id: 36915671 address: 0xfffffffff5a8 fetch_issued: true event_cycle: 18286359 waits on -
[cpu0_LQ] entry:  51 instr_id: 36915700 address: 0xfffffffff4c8 fetch_issued: true event_cycle: 18286734 waits on -
[cpu0_LQ] entry:  52 instr_id: 36915710 address: 0xfffffffff618 fetch_issued: true event_cycle: 18286735 waits on -
[cpu0_LQ] entry:  53 instr_id: 36915713 address: 0xfffffffff610 fetch_issued: true event_cycle: 18286735 waits on -
[cpu0_LQ] entry:  54 instr_id: 36915715 address: 0xfffffffff650 fetch_issued: true event_cycle: 18286735 waits on -
[cpu0_LQ] entry:  55 instr_id: 36915719 address: 0xfffffffff4bc fetch_issued: true event_cycle: 18286735 waits on -
[cpu0_LQ] entry:  56 instr_id: 36915723 address: 0xf5e0a8 fetch_issued: true event_cycle: 18286736 waits on -
[cpu0_LQ] entry:  57 instr_id: 36915887 address: 0xfffffffff608 fetch_issued: true event_cycle: 0 waits on -
[cpu0_LQ] entry:  58 instr_id: 36915894 address: 0x97df530 fetch_issued: true event_cycle: 0 waits on -
[cpu0_LQ] entry:  59 instr_id: 36915724 address: 0x32f8480 fetch_issued: true event_cycle: 0 waits on -
[cpu0_LQ] entry:  60 instr_id: 36915898 address: 0x97df538 fetch_issued: true event_cycle: 0 waits on -
[cpu0_LQ] entry:  61 instr_id: 36915726 address: 0x97d8928 fetch_issued: true event_cycle: 0 waits on -
[cpu0_LQ] entry:  62 instr_id: 36915727 address: 0xfffffffff608 fetch_issued: true event_cycle: 18286736 waits on -
[cpu0_LQ] entry:  63 instr_id: 36915734 address: 0x97d8930 fetch_issued: true event_cycle: 0 waits on -
[cpu0_LQ] entry:  64 instr_id: 36915738 address: 0x97d8938 fetch_issued: true event_cycle: 0 waits on -
[cpu0_LQ] entry:  65 instr_id: 36915739 address: 0xfffffffff5c0 fetch_issued: true event_cycle: 18286737 waits on -
[cpu0_LQ] entry:  66 instr_id: 36915741 address: 0x8c2b248 fetch_issued: true event_cycle: 0 waits on -
[cpu0_LQ] entry:  67 instr_id: 36915743 address: 0x8c77248 fetch_issued: true event_cycle: 0 waits on -
[cpu0_LQ] entry:  68 instr_id: 36915745 address: 0xfffffffff5f8 fetch_issued: true event_cycle: 18286739 waits on -
[cpu0_LQ] entry:  69 instr_id: 36915748 address: 0xfffffffff5b0 fetch_issued: true event_cycle: 18286741 waits on -
[cpu0_LQ] entry:  70 instr_id: 36915751 address: 0xfffffffff5a8 fetch_issued: true event_cycle: 18287057 waits on -
[cpu0_LQ] entry:  71 instr_id: 36915753 address: 0xfffffffff4c8 fetch_issued: true event_cycle: 18287058 waits on -
[cpu0_LQ] entry:  72 instr_id: 36915761 address: 0x97d8940 fetch_issued: true event_cycle: 0 waits on -
[cpu0_LQ] entry:  73 instr_id: 36915765 address: 0x97d8948 fetch_issued: true event_cycle: 0 waits on -
[cpu0_LQ] entry:  74 instr_id: 36915766 address: 0xfffffffff5c0 fetch_issued: true event_cycle: 18287059 waits on -
[cpu0_LQ] entry:  75 instr_id: 36915768 address: 0x8c2b198 fetch_issued: true event_cycle: 0 waits on -
[cpu0_LQ] entry:  76 instr_id: 36915770 address: 0x8c77198 fetch_issued: true event_cycle: 0 waits on -
[cpu0_LQ] entry:  77 instr_id: 36915772 address: 0xfffffffff5f8 fetch_issued: true event_cycle: 18287060 waits on -
[cpu0_LQ] entry:  78 instr_id: 36915775 address: 0xfffffffff5b0 fetch_issued: true event_cycle: 18287060 waits on -
[cpu0_LQ] entry:  79 instr_id: 36915778 address: 0xfffffffff5a8 fetch_issued: true event_cycle: 18287061 waits on -
[cpu0_LQ] entry:  80 instr_id: 36915780 address: 0xfffffffff4c8 fetch_issued: true event_cycle: 18287062 waits on -
[cpu0_LQ] entry:  81 instr_id: 36915799 address: 0xfffffffff4bc fetch_issued: true event_cycle: 0 waits on -
[cpu0_LQ] entry:  82 instr_id: 36915803 address: 0xf5e0b0 fetch_issued: true event_cycle: 0 waits on -
[cpu0_LQ] entry:  83 instr_id: 36915804 address: 0x32fd9a0 fetch_issued: true event_cycle: 0 waits on -
[cpu0_LQ] entry:  84 instr_id: 36915806 address: 0x97e0e58 fetch_issued: true event_cycle: 0 waits on -
[cpu0_LQ] entry:  85 instr_id: 36915807 address: 0xfffffffff608 fetch_issued: true event_cycle: 0 waits on -
[cpu0_LQ] entry:  86 instr_id: 36915814 address: 0x97e0e60 fetch_issued: true event_cycle: 0 waits on -
[cpu0_LQ] entry:  87 instr_id: 36915818 address: 0x97e0e68 fetch_issued: true event_cycle: 0 waits on -
[cpu0_LQ] entry:  88 instr_id: 36915819 address: 0xfffffffff5c0 fetch_issued: true event_cycle: 0 waits on -
[cpu0_LQ] entry:  89 instr_id: 36915821 address: 0x8c2b2b4 fetch_issued: true event_cycle: 0 waits on -
[cpu0_LQ] entry:  90 instr_id: 36915823 address: 0x8c772b4 fetch_issued: true event_cycle: 0 waits on -
[cpu0_LQ] entry:  91 instr_id: 36915825 address: 0xfffffffff5f8 fetch_issued: true event_cycle: 0 waits on -
[cpu0_LQ] entry:  92 instr_id: 36915828 address: 0xfffffffff5b0 fetch_issued: true event_cycle: 0 waits on -
[cpu0_LQ] entry:  93 instr_id: 36915831 address: 0xfffffffff5a8 fetch_issued: true event_cycle: 0 waits on -
[cpu0_LQ] entry:  94 instr_id: 36915833 address: 0xfffffffff4c8 fetch_issued: true event_cycle: 0 waits on -
[cpu0_LQ] entry:  95 instr_id: 36915899 address: 0xfffffffff5c0 fetch_issued: true event_cycle: 0 waits on -
[cpu0_LQ] entry:  96 instr_id: 36915901 address: 0x8c2e654 fetch_issued: true event_cycle: 0 waits on -
[cpu0_LQ] entry:  97 instr_id: 36915903 address: 0x8c7a654 fetch_issued: true event_cycle: 0 waits on -
[cpu0_LQ] entry:  98 instr_id: 36915905 address: 0xfffffffff5f8 fetch_issued: true event_cycle: 0 waits on -
[cpu0_LQ] entry:  99 instr_id: 36915908 address: 0xfffffffff5b0 fetch_issued: true event_cycle: 0 waits on -
[cpu0_LQ] entry: 100 instr_id: 36915911 address: 0xfffffffff5a8 fetch_issued: true event_cycle: 0 waits on -
[cpu0_LQ] entry: 101 instr_id: 36915913 address: 0xfffffffff4c8 fetch_issued: true event_cycle: 0 waits on -
[cpu0_LQ] entry: 102 instr_id: 36915921 address: 0x97df540 fetch_issued: true event_cycle: 0 waits on -
[cpu0_LQ] entry: 103 instr_id: 36915925 address: 0x97df548 fetch_issued: true event_cycle: 0 waits on -
[cpu0_LQ] entry: 104 instr_id: 36915926 address: 0xfffffffff5c0 fetch_issued: true event_cycle: 0 waits on -
[cpu0_LQ] entry: 105 instr_id: 36915928 address: 0x8c2e658 fetch_issued: true event_cycle: 0 waits on -
[cpu0_LQ] entry: 106 instr_id: 36915930 address: 0x8c7a658 fetch_issued: true event_cycle: 0 waits on -
[cpu0_LQ] entry: 107 instr_id: 36915932 address: 0xfffffffff5f8 fetch_issued: true event_cycle: 0 waits on -
[cpu0_LQ] entry: 108 instr_id: 36915935 address: 0xfffffffff5b0 fetch_issued: true event_cycle: 0 waits on -
[cpu0_LQ] entry: 109 instr_id: 36915938 address: 0xfffffffff5a8 fetch_issued: true event_cycle: 0 waits on -
[cpu0_LQ] entry: 110 instr_id: 36915940 address: 0xfffffffff4c8 fetch_issued: true event_cycle: 0 waits on -
[cpu0_LQ] entry: 111 empty
[cpu0_LQ] entry: 112 empty
[cpu0_LQ] entry: 113 empty
[cpu0_LQ] entry: 114 empty
[cpu0_LQ] entry: 115 empty
[cpu0_LQ] entry: 116 empty
[cpu0_LQ] entry: 117 empty
[cpu0_LQ] entry: 118 empty
[cpu0_LQ] entry: 119 empty
[cpu0_LQ] entry: 120 empty
[cpu0_LQ] entry: 121 empty
[cpu0_LQ] entry: 122 empty
[cpu0_LQ] entry: 123 empty
[cpu0_LQ] entry: 124 empty
[cpu0_LQ] entry: 125 empty
[cpu0_LQ] entry: 126 empty
[cpu0_LQ] entry: 127 empty
[cpu0_LQ] entry: 128 empty
[cpu0_LQ] entry: 129 empty
[cpu0_LQ] entry: 130 empty
[cpu0_LQ] entry: 131 empty
[cpu0_LQ] entry: 132 empty
[cpu0_LQ] entry: 133 empty
[cpu0_LQ] entry: 134 empty
[cpu0_LQ] entry: 135 empty
[cpu0_LQ] entry: 136 empty
[cpu0_LQ] entry: 137 empty
[cpu0_LQ] entry: 138 empty
[cpu0_LQ] entry: 139 empty
[cpu0_LQ] entry: 140 empty
[cpu0_LQ] entry: 141 empty
[cpu0_LQ] entry: 142 empty
[cpu0_LQ] entry: 143 empty
[cpu0_LQ] entry: 144 empty
[cpu0_LQ] entry: 145 empty
[cpu0_LQ] entry: 146 empty
[cpu0_LQ] entry: 147 empty
[cpu0_LQ] entry: 148 empty
[cpu0_LQ] entry: 149 empty
[cpu0_LQ] entry: 150 empty
[cpu0_LQ] entry: 151 empty
[cpu0_LQ] entry: 152 empty
[cpu0_LQ] entry: 153 empty
[cpu0_LQ] entry: 154 empty
[cpu0_LQ] entry: 155 empty
[cpu0_LQ] entry: 156 empty
[cpu0_LQ] entry: 157 empty
[cpu0_LQ] entry: 158 empty
[cpu0_LQ] entry: 159 empty
[cpu0_LQ] entry: 160 empty
[cpu0_LQ] entry: 161 empty
[cpu0_LQ] entry: 162 empty
[cpu0_LQ] entry: 163 empty
[cpu0_LQ] entry: 164 empty
[cpu0_LQ] entry: 165 empty
[cpu0_LQ] entry: 166 empty
[cpu0_LQ] entry: 167 empty
[cpu0_LQ] entry: 168 empty
[cpu0_LQ] entry: 169 empty
[cpu0_LQ] entry: 170 empty
[cpu0_LQ] entry: 171 empty
[cpu0_LQ] entry: 172 empty
[cpu0_LQ] entry: 173 empty
[cpu0_LQ] entry: 174 empty
[cpu0_LQ] entry: 175 empty
[cpu0_LQ] entry: 176 empty
[cpu0_LQ] entry: 177 empty
[cpu0_LQ] entry: 178 empty
[cpu0_LQ] entry: 179 empty
[cpu0_LQ] entry: 180 empty
[cpu0_LQ] entry: 181 empty
[cpu0_LQ] entry: 182 empty
[cpu0_LQ] entry: 183 empty
[cpu0_LQ] entry: 184 empty
[cpu0_LQ] entry: 185 empty
[cpu0_LQ] entry: 186 empty
[cpu0_LQ] entry: 187 empty
[cpu0_LQ] entry: 188 empty
[cpu0_LQ] entry: 189 empty
[cpu0_LQ] entry: 190 empty
[cpu0_LQ] entry: 191 empty

[cpu0_SQ] entry:   0 instr_id: 36915584 address: 0x8c2a114 fetch_issued: true event_cycle: 18287060 LQ waiting: []
[cpu0_SQ] entry:   1 instr_id: 36915586 address: 0x3fc0cd0 fetch_issued: true event_cycle: 18287057 LQ waiting: []
[cpu0_SQ] entry:   2 instr_id: 36915590 address: 0x53aa17c fetch_issued: true event_cycle: 18286086 LQ waiting: []
[cpu0_SQ] entry:   3 instr_id: 36915592 address: 0x5cde2f8 fetch_issued: true event_cycle: 18286086 LQ waiting: []
[cpu0_SQ] entry:   4 instr_id: 36915611 address: 0x8c2a29c fetch_issued: true event_cycle: 18286089 LQ waiting: []
[cpu0_SQ] entry:   5 instr_id: 36915613 address: 0x3fc0cd4 fetch_issued: true event_cycle: 18286090 LQ waiting: []
[cpu0_SQ] entry:   6 instr_id: 36915617 address: 0x53aa498 fetch_issued: true event_cycle: 18286090 LQ waiting: []
[cpu0_SQ] entry:   7 instr_id: 36915619 address: 0x5cde930 fetch_issued: true event_cycle: 18286091 LQ waiting: []
[cpu0_SQ] entry:   8 instr_id: 36915632 address: 0x8cc304c fetch_issued: true event_cycle: 18287057 LQ waiting: []
[cpu0_SQ] entry:   9 instr_id: 36915634 address: 0x8c9d04c fetch_issued: true event_cycle: 18287057 LQ waiting: []
[cpu0_SQ] entry:  10 instr_id: 36915638 address: 0x8d0f04c fetch_issued: true event_cycle: 18286094 LQ waiting: []
[cpu0_SQ] entry:  11 instr_id: 36915649 address: 0x8ce9050 fetch_issued: true event_cycle: 18286360 LQ waiting: []
[cpu0_SQ] entry:  12 instr_id: 36915664 address: 0x8c2b024 fetch_issued: true event_cycle: 18286098 LQ waiting: []
[cpu0_SQ] entry:  13 instr_id: 36915666 address: 0x3fc0cd8 fetch_issued: true event_cycle: 18286098 LQ waiting: []
[cpu0_SQ] entry:  14 instr_id: 36915670 address: 0x53abf0c fetch_issued: true event_cycle: 18286099 LQ waiting: []
[cpu0_SQ] entry:  15 instr_id: 36915672 address: 0x5ce1e18 fetch_issued: true event_cycle: 18286099 LQ waiting: []
[cpu0_SQ] entry:  16 instr_id: 36915691 address: 0x8c2b1b0 fetch_issued: true event_cycle: 18286103 LQ waiting: []
[cpu0_SQ] entry:  17 instr_id: 36915693 address: 0x3fc0cdc fetch_issued: true event_cycle: 18286103 LQ waiting: []
[cpu0_SQ] entry:  18 instr_id: 36915697 address: 0x53ac23c fetch_issued: true event_cycle: 18286104 LQ waiting: []
[cpu0_SQ] entry:  19 instr_id: 36915699 address: 0x5ce2478 fetch_issued: true event_cycle: 18286104 LQ waiting: []
[cpu0_SQ] entry:  20 instr_id: 36915712 address: 0x8cc3050 fetch_issued: true event_cycle: 18286106 LQ waiting: []
[cpu0_SQ] entry:  21 instr_id: 36915714 address: 0x8c9d050 fetch_issued: true event_cycle: 18286106 LQ waiting: []
[cpu0_SQ] entry:  22 instr_id: 36915718 address: 0x8d0f050 fetch_issued: true event_cycle: 18286107 LQ waiting: []
[cpu0_SQ] entry:  23 instr_id: 36915729 address: 0x8ce9054 fetch_issued: true event_cycle: 18286109 LQ waiting: []
[cpu0_SQ] entry:  24 instr_id: 36915744 address: 0x8c2b248 fetch_issued: true event_cycle: 18286111 LQ waiting: []
[cpu0_SQ] entry:  25 instr_id: 36915746 address: 0x3fc0ce0 fetch_issued: true event_cycle: 18286112 LQ waiting: []
[cpu0_SQ] entry:  26 instr_id: 36915750 address: 0x53ac38c fetch_issued: true event_cycle: 18286112 LQ waiting: []
[cpu0_SQ] entry:  27 instr_id: 36915752 address: 0x5ce2718 fetch_issued: true event_cycle: 18286113 LQ waiting: []
[cpu0_SQ] entry:  28 instr_id: 36915771 address: 0x8c2b198 fetch_issued: true event_cycle: 18286116 LQ waiting: []
[cpu0_SQ] entry:  29 instr_id: 36915773 address: 0x3fc0ce4 fetch_issued: true event_cycle: 18286116 LQ waiting: []
[cpu0_SQ] entry:  30 instr_id: 36915777 address: 0x53ac1a8 fetch_issued: true event_cycle: 18286117 LQ waiting: []
[cpu0_SQ] entry:  31 instr_id: 36915779 address: 0x5ce2350 fetch_issued: true event_cycle: 18286117 LQ waiting: []
[cpu0_SQ] entry:  32 instr_id: 36915792 address: 0x8cc3054 fetch_issued: true event_cycle: 18286119 LQ waiting: []
[cpu0_SQ] entry:  33 instr_id: 36915794 address: 0x8c9d054 fetch_issued: true event_cycle: 18286120 LQ waiting: []
[cpu0_SQ] entry:  34 instr_id: 36915798 address: 0x8d0f054 fetch_issued: true event_cycle: 18286120 LQ waiting: []
[cpu0_SQ] entry:  35 instr_id: 36915809 address: 0x8ce9058 fetch_issued: true event_cycle: 18286122 LQ waiting: []
[cpu0_SQ] entry:  36 instr_id: 36915824 address: 0x8c2b2b4 fetch_issued: true event_cycle: 18286125 LQ waiting: []
[cpu0_SQ] entry:  37 instr_id: 36915826 address: 0x3fc0ce8 fetch_issued: true event_cycle: 18286125 LQ waiting: []
[cpu0_SQ] entry:  38 instr_id: 36915830 address: 0x53ac424 fetch_issued: true event_cycle: 18286126 LQ waiting: []
[cpu0_SQ] entry:  39 instr_id: 36915832 address: 0x5ce2848 fetch_issued: true event_cycle: 18286126 LQ waiting: []
[cpu0_SQ] entry:  40 instr_id: 36915851 address: 0x8c2b2c4 fetch_issued: true event_cycle: 18286735 LQ waiting: []
[cpu0_SQ] entry:  41 instr_id: 36915853 address: 0x3fc0cec fetch_issued: true event_cycle: 18286735 LQ waiting: []
[cpu0_SQ] entry:  42 instr_id: 36915857 address: 0x53ac454 fetch_issued: true event_cycle: 18286736 LQ waiting: []
[cpu0_SQ] entry:  43 instr_id: 36915859 address: 0x5ce28a8 fetch_issued: true event_cycle: 18286736 LQ waiting: []
[cpu0_SQ] entry:  44 instr_id: 36915872 address: 0x8cc3058 fetch_issued: true event_cycle: 18286739 LQ waiting: []
[cpu0_SQ] entry:  45 instr_id: 36915874 address: 0x8c9d058 fetch_issued: true event_cycle: 18286739 LQ waiting: []
[cpu0_SQ] entry:  46 instr_id: 36915878 address: 0x8d0f058 fetch_issued: true event_cycle: 18286740 LQ waiting: []
[cpu0_SQ] entry:  47 instr_id: 36915889 address: 0x8ce905c fetch_issued: true event_cycle: 18286741 LQ waiting: []
[cpu0_SQ] entry:  48 instr_id: 36915904 address: 0x8c2e654 fetch_issued: true event_cycle: 18286744 LQ waiting: []
[cpu0_SQ] entry:  49 instr_id: 36915906 address: 0x3fc0cf0 fetch_issued: true event_cycle: 18286744 LQ waiting: []
[cpu0_SQ] entry:  50 instr_id: 36915910 address: 0x53b16e4 fetch_issued: true event_cycle: 18286745 LQ waiting: []
[cpu0_SQ] entry:  51 instr_id: 36915912 address: 0x5cecdc8 fetch_issued: true event_cycle: 18286745 LQ waiting: []
[cpu0_SQ] entry:  52 instr_id: 36915931 address: 0x8c2e658 fetch_issued: true event_cycle: 18286748 LQ waiting: []
[cpu0_SQ] entry:  53 instr_id: 36915933 address: 0x3fc0cf4 fetch_issued: true event_cycle: 18286749 LQ waiting: []
[cpu0_SQ] entry:  54 instr_id: 36915937 address: 0x53b16ec fetch_issued: true event_cycle: 18286749 LQ waiting: []
[cpu0_SQ] entry:  55 instr_id: 36915939 address: 0x5cecdd8 fetch_issued: true event_cycle: 18286750 LQ waiting: []

LLC_MSHR empty

LLC_tags empty

LLC_translation empty

LLC_RQ empty

LLC_WQ empty

LLC_PQ empty

[cpu0_DTLB_MSHR] entry:   0 instr_id: 36915238 address: 0x8d0f038 v_addr: 0x8d0f038 type: LOAD event: 18446744073709551615

cpu0_DTLB_tags empty

cpu0_DTLB_translation empty

cpu0_DTLB_RQ empty

cpu0_DTLB_WQ empty

cpu0_DTLB_PQ empty

cpu0_ITLB_MSHR empty

cpu0_ITLB_tags empty

cpu0_ITLB_translation empty

cpu0_ITLB_RQ empty

cpu0_ITLB_WQ empty

cpu0_ITLB_PQ empty

cpu0_L1D_MSHR empty

cpu0_L1D_tags empty

[cpu0_L1D_translation] entry:   0 instr_id: 36914038 address: 0x8d0f000 v_addr: 0x8d0f000 is_translated: false translate_issued: true event_cycle: 18284790
[cpu0_L1D_translation] entry:   1 instr_id: 36914118 address: 0x8d0f000 v_addr: 0x8d0f000 is_translated: false translate_issued: true event_cycle: 18284811
[cpu0_L1D_translation] entry:   2 instr_id: 36914198 address: 0x8d0f004 v_addr: 0x8d0f004 is_translated: false translate_issued: true event_cycle: 18284817
[cpu0_L1D_translation] entry:   3 instr_id: 36914278 address: 0x8d0f008 v_addr: 0x8d0f008 is_translated: false translate_issued: true event_cycle: 18284824
[cpu0_L1D_translation] entry:   4 instr_id: 36914358 address: 0x8d0f00c v_addr: 0x8d0f00c is_translated: false translate_issued: true event_cycle: 18284837
[cpu0_L1D_translation] entry:   5 instr_id: 36914438 address: 0x8d0f010 v_addr: 0x8d0f010 is_translated: false translate_issued: true event_cycle: 18284846
[cpu0_L1D_translation] entry:   6 instr_id: 36914518 address: 0x8d0f014 v_addr: 0x8d0f014 is_translated: false translate_issued: true event_cycle: 18284858
[cpu0_L1D_translation] entry:   7 instr_id: 36914598 address: 0x8d0f018 v_addr: 0x8d0f018 is_translated: false translate_issued: true event_cycle: 18285018
[cpu0_L1D_translation] entry:   8 instr_id: 36914678 address: 0x8d0f01c v_addr: 0x8d0f01c is_translated: false translate_issued: true event_cycle: 18285224
[cpu0_L1D_translation] entry:   9 instr_id: 36914758 address: 0x8d0f020 v_addr: 0x8d0f020 is_translated: false translate_issued: true event_cycle: 18285831
[cpu0_L1D_translation] entry:  10 instr_id: 36914838 address: 0x8d0f024 v_addr: 0x8d0f024 is_translated: false translate_issued: true event_cycle: 18285988
[cpu0_L1D_translation] entry:  11 instr_id: 36914918 address: 0x8d0f028 v_addr: 0x8d0f028 is_translated: false translate_issued: true event_cycle: 18286000
[cpu0_L1D_translation] entry:  12 instr_id: 36914998 address: 0x8d0f02c v_addr: 0x8d0f02c is_translated: false translate_issued: true event_cycle: 18286009
[cpu0_L1D_translation] entry:  13 instr_id: 36915078 address: 0x8d0f030 v_addr: 0x8d0f030 is_translated: false translate_issued: true event_cycle: 18286091
[cpu0_L1D_translation] entry:  14 instr_id: 36915158 address: 0x8d0f034 v_addr: 0x8d0f034 is_translated: false translate_issued: true event_cycle: 18286105
[cpu0_L1D_translation] entry:  15 instr_id: 36915238 address: 0x8d0f038 v_addr: 0x8d0f038 is_translated: false translate_issued: true event_cycle: 18286113

cpu0_L1D_RQ empty

cpu0_L1D_WQ empty

cpu0_L1D_PQ empty

[cpu0_L1D_RQ] entry:   0 instr_id: 36915583 address: 0x8c76114 v_addr: 0x8c76114 type: LOAD translated: false
[cpu0_L1D_RQ] entry:   1 instr_id: 36915588 address: 0xfffffffff5b0 v_addr: 0xfffffffff5b0 type: LOAD translated: false
[cpu0_L1D_RQ] entry:   2 instr_id: 36915593 address: 0xfffffffff4c8 v_addr: 0xfffffffff4c8 type: LOAD translated: false
[cpu0_L1D_RQ] entry:   3 instr_id: 36915601 address: 0x9506780 v_addr: 0x9506780 type: LOAD translated: false
[cpu0_L1D_RQ] entry:   4 instr_id: 36915606 address: 0xfffffffff5c0 v_addr: 0xfffffffff5c0 type: LOAD translated: false
[cpu0_L1D_RQ] entry:   5 instr_id: 36915608 address: 0x8c2a29c v_addr: 0x8c2a29c type: LOAD translated: false
[cpu0_L1D_RQ] entry:   6 instr_id: 36915610 address: 0x8c7629c v_addr: 0x8c7629c type: LOAD translated: false
[cpu0_L1D_RQ] entry:   7 instr_id: 36915630 address: 0xfffffffff618 v_addr: 0xfffffffff618 type: LOAD translated: false
[cpu0_L1D_RQ] entry:   8 instr_id: 36915635 address: 0xfffffffff650 v_addr: 0xfffffffff650 type: LOAD translated: false
[cpu0_L1D_RQ] entry:   9 instr_id: 36915639 address: 0xfffffffff4bc v_addr: 0xfffffffff4bc type: LOAD translated: false
[cpu0_L1D_RQ] entry:  10 instr_id: 36915643 address: 0xf5e0a0 v_addr: 0xf5e0a0 type: LOAD translated: false
[cpu0_L1D_RQ] entry:  11 instr_id: 36915644 address: 0x32f21a0 v_addr: 0x32f21a0 type: LOAD translated: false
[cpu0_L1D_RQ] entry:  12 instr_id: 36915646 address: 0x97cf4d8 v_addr: 0x97cf4d8 type: LOAD translated: false
[cpu0_L1D_RQ] entry:  13 instr_id: 36915661 address: 0x8c2b024 v_addr: 0x8c2b024 type: LOAD translated: false
[cpu0_L1D_RQ] entry:  14 instr_id: 36915663 address: 0x8c77024 v_addr: 0x8c77024 type: LOAD translated: false
[cpu0_L1D_RQ] entry:  15 instr_id: 36915688 address: 0x8c2b1b0 v_addr: 0x8c2b1b0 type: LOAD translated: false
[cpu0_L1D_RQ] entry:  16 instr_id: 36915690 address: 0x8c771b0 v_addr: 0x8c771b0 type: LOAD translated: false
[cpu0_L1D_RQ] entry:  17 instr_id: 36915724 address: 0x32f8480 v_addr: 0x32f8480 type: LOAD translated: false
[cpu0_L1D_RQ] entry:  18 instr_id: 36915726 address: 0x97d8928 v_addr: 0x97d8928 type: LOAD translated: false
[cpu0_L1D_RQ] entry:  19 instr_id: 36915741 address: 0x8c2b248 v_addr: 0x8c2b248 type: LOAD translated: false
[cpu0_L1D_RQ] entry:  20 instr_id: 36915743 address: 0x8c77248 v_addr: 0x8c77248 type: LOAD translated: false
[cpu0_L1D_RQ] entry:  21 instr_id: 36915761 address: 0x97d8940 v_addr: 0x97d8940 type: LOAD translated: false
[cpu0_L1D_RQ] entry:  22 instr_id: 36915804 address: 0x32fd9a0 v_addr: 0x32fd9a0 type: LOAD translated: false
[cpu0_L1D_RQ] entry:  23 instr_id: 36915806 address: 0x97e0e58 v_addr: 0x97e0e58 type: LOAD translated: false
[cpu0_L1D_RQ] entry:  24 instr_id: 36915821 address: 0x8c2b2b4 v_addr: 0x8c2b2b4 type: LOAD translated: false
[cpu0_L1D_RQ] entry:  25 instr_id: 36915823 address: 0x8c772b4 v_addr: 0x8c772b4 type: LOAD translated: false
[cpu0_L1D_RQ] entry:  26 instr_id: 36915848 address: 0x8c2b2c4 v_addr: 0x8c2b2c4 type: LOAD translated: false
[cpu0_L1D_RQ] entry:  27 instr_id: 36915850 address: 0x8c772c4 v_addr: 0x8c772c4 type: LOAD translated: false
[cpu0_L1D_RQ] entry:  28 instr_id: 36915884 address: 0x32fcc00 v_addr: 0x32fcc00 type: LOAD translated: false
[cpu0_L1D_RQ] entry:  29 instr_id: 36915886 address: 0x97df528 v_addr: 0x97df528 type: LOAD translated: false
[cpu0_L1D_RQ] entry:  30 instr_id: 36915901 address: 0x8c2e654 v_addr: 0x8c2e654 type: LOAD translated: false
[cpu0_L1D_RQ] entry:  31 instr_id: 36915903 address: 0x8c7a654 v_addr: 0x8c7a654 type: LOAD translated: false
[cpu0_L1D_RQ] entry:  32 instr_id: 36915921 address: 0x97df540 v_addr: 0x97df540 type: LOAD translated: false

[cpu0_L1D_WQ] entry:   0 instr_id: 36915249 address: 0x8ce9040 v_addr: 0x8ce9040 type: WRITE translated: false
[cpu0_L1D_WQ] entry:   1 instr_id: 36915264 address: 0x8c2b114 v_addr: 0x8c2b114 type: WRITE translated: false
[cpu0_L1D_WQ] entry:   2 instr_id: 36915266 address: 0x3fc0cb0 v_addr: 0x3fc0cb0 type: WRITE translated: false
[cpu0_L1D_WQ] entry:   3 instr_id: 36915270 address: 0x53ac0e8 v_addr: 0x53ac0e8 type: WRITE translated: false
[cpu0_L1D_WQ] entry:   4 instr_id: 36915272 address: 0x5ce21d0 v_addr: 0x5ce21d0 type: WRITE translated: false
[cpu0_L1D_WQ] entry:   5 instr_id: 36915291 address: 0x8c2b2a0 v_addr: 0x8c2b2a0 type: WRITE translated: false
[cpu0_L1D_WQ] entry:   6 instr_id: 36915293 address: 0x3fc0cb4 v_addr: 0x3fc0cb4 type: WRITE translated: false
[cpu0_L1D_WQ] entry:   7 instr_id: 36915297 address: 0x53ac400 v_addr: 0x53ac400 type: WRITE translated: false
[cpu0_L1D_WQ] entry:   8 instr_id: 36915299 address: 0x5ce2800 v_addr: 0x5ce2800 type: WRITE translated: false
[cpu0_L1D_WQ] entry:   9 instr_id: 36915312 address: 0x8cc303c v_addr: 0x8cc303c type: WRITE translated: false
[cpu0_L1D_WQ] entry:  10 instr_id: 36915312 address: 0x8cc3040 v_addr: 0x8cc3040 type: WRITE translated: false
[cpu0_L1D_WQ] entry:  11 instr_id: 36915314 address: 0x8c9d03c v_addr: 0x8c9d03c type: WRITE translated: false
[cpu0_L1D_WQ] entry:  12 instr_id: 36915314 address: 0x8c9d040 v_addr: 0x8c9d040 type: WRITE translated: false
[cpu0_L1D_WQ] entry:  13 instr_id: 36915318 address: 0x8d0f03c v_addr: 0x8d0f03c type: WRITE translated: false
[cpu0_L1D_WQ] entry:  14 instr_id: 36915318 address: 0x8d0f040 v_addr: 0x8d0f040 type: WRITE translated: false
[cpu0_L1D_WQ] entry:  15 instr_id: 36915344 address: 0x8c2b118 v_addr: 0x8c2b118 type: WRITE translated: false
[cpu0_L1D_WQ] entry:  16 instr_id: 36915346 address: 0x3fc0cb8 v_addr: 0x3fc0cb8 type: WRITE translated: false
[cpu0_L1D_WQ] entry:  17 instr_id: 36915350 address: 0x53ac0ec v_addr: 0x53ac0ec type: WRITE translated: false
[cpu0_L1D_WQ] entry:  18 instr_id: 36915352 address: 0x5ce21d8 v_addr: 0x5ce21d8 type: WRITE translated: false
[cpu0_L1D_WQ] entry:  19 instr_id: 36915371 address: 0x8c2b2a4 v_addr: 0x8c2b2a4 type: WRITE translated: false
[cpu0_L1D_WQ] entry:  20 instr_id: 36915373 address: 0x3fc0cbc v_addr: 0x3fc0cbc type: WRITE translated: false
[cpu0_L1D_WQ] entry:  21 instr_id: 36915373 address: 0x3fc0cc0 v_addr: 0x3fc0cc0 type: WRITE translated: false
[cpu0_L1D_WQ] entry:  22 instr_id: 36915377 address: 0x53ac408 v_addr: 0x53ac408 type: WRITE translated: false
[cpu0_L1D_WQ] entry:  23 instr_id: 36915379 address: 0x5ce2810 v_addr: 0x5ce2810 type: WRITE translated: false
[cpu0_L1D_WQ] entry:  24 instr_id: 36915409 address: 0x8ce9044 v_addr: 0x8ce9044 type: WRITE translated: false
[cpu0_L1D_WQ] entry:  25 instr_id: 36915424 address: 0x8c2b11c v_addr: 0x8c2b11c type: WRITE translated: false
[cpu0_L1D_WQ] entry:  26 instr_id: 36915430 address: 0x53ac0f0 v_addr: 0x53ac0f0 type: WRITE translated: false
[cpu0_L1D_WQ] entry:  27 instr_id: 36915432 address: 0x5ce21e0 v_addr: 0x5ce21e0 type: WRITE translated: false
[cpu0_L1D_WQ] entry:  28 instr_id: 36915451 address: 0x8c2b2a8 v_addr: 0x8c2b2a8 type: WRITE translated: false
[cpu0_L1D_WQ] entry:  29 instr_id: 36915453 address: 0x3fc0cc4 v_addr: 0x3fc0cc4 type: WRITE translated: false
[cpu0_L1D_WQ] entry:  30 instr_id: 36915457 address: 0x53ac410 v_addr: 0x53ac410 type: WRITE translated: false
[cpu0_L1D_WQ] entry:  31 instr_id: 36915459 address: 0x5ce2820 v_addr: 0x5ce2820 type: WRITE translated: false
[cpu0_L1D_WQ] entry:  32 instr_id: 36915472 address: 0x8cc3044 v_addr: 0x8cc3044 type: WRITE translated: false
[cpu0_L1D_WQ] entry:  33 instr_id: 36915474 address: 0x8c9d044 v_addr: 0x8c9d044 type: WRITE translated: false
[cpu0_L1D_WQ] entry:  34 instr_id: 36915478 address: 0x8d0f044 v_addr: 0x8d0f044 type: WRITE translated: false
[cpu0_L1D_WQ] entry:  35 instr_id: 36915489 address: 0x8ce9048 v_addr: 0x8ce9048 type: WRITE translated: false
[cpu0_L1D_WQ] entry:  36 instr_id: 36915504 address: 0x8c2b124 v_addr: 0x8c2b124 type: WRITE translated: false
[cpu0_L1D_WQ] entry:  37 instr_id: 36915506 address: 0x3fc0cc8 v_addr: 0x3fc0cc8 type: WRITE translated: false
[cpu0_L1D_WQ] entry:  38 instr_id: 36915510 address: 0x53ac104 v_addr: 0x53ac104 type: WRITE translated: false
[cpu0_L1D_WQ] entry:  39 instr_id: 36915512 address: 0x5ce2208 v_addr: 0x5ce2208 type: WRITE translated: false
[cpu0_L1D_WQ] entry:  40 instr_id: 36915531 address: 0x8c2b2b0 v_addr: 0x8c2b2b0 type: WRITE translated: false
[cpu0_L1D_WQ] entry:  41 instr_id: 36915533 address: 0x3fc0ccc v_addr: 0x3fc0ccc type: WRITE translated: false
[cpu0_L1D_WQ] entry:  42 instr_id: 36915537 address: 0x53ac41c v_addr: 0x53ac41c type: WRITE translated: false
[cpu0_L1D_WQ] entry:  43 instr_id: 36915539 address: 0x5c