WARNING: physical memory size is smaller than virtual memory size.

*** ChampSim Multicore Out-of-Order Simulator ***
Warmup Instructions: 30000000
Simulation Instructions: 100000000
Number of CPUs: 1
Page size: 4096

BTB:
Basic BTB sets: 1024 ways: 8
Indirect:
history lengths: 0 0 10 16 27 44 60 96 109 219 449 487 714 1313 2146 3881 
ITTAGE tables: 64768 bytes;Region table: 240 bytes;IUM: 384 bytes;Total Storage= 65392 bytes;
RAS:
RAS size: 64
Berti Prefetcher
CPU 0 Entangling prefetcher
Off-chip DRAM Size: 8 GiB Channels: 2 Width: 64-bit Data Race: 6400 MT/s
Heartbeat CPU 0 instructions: 10000007 cycles: 1676291 heartbeat IPC: 5.966 cumulative IPC: 5.966 (Simulation time: 00 hr 00 min 34 sec)
Heartbeat CPU 0 instructions: 20000003 cycles: 3342957 heartbeat IPC: 6 cumulative IPC: 5.983 (Simulation time: 00 hr 01 min 08 sec)
Heartbeat CPU 0 instructions: 30000006 cycles: 5019066 heartbeat IPC: 5.966 cumulative IPC: 5.977 (Simulation time: 00 hr 01 min 43 sec)
Warmup finished CPU 0 instructions: 30000006 cycles: 5019067 cumulative IPC: 5.977 (Simulation time: 00 hr 01 min 43 sec)
Warmup complete CPU 0 instructions: 30000006 cycles: 5019067 cumulative IPC: 5.977 (Simulation time: 00 hr 01 min 43 sec)
*** Reached end of trace: (0, "../traces/public_traces/compute_fp/compute_fp_8.champsimtrace.xz")
Heartbeat CPU 0 instructions: 40000009 cycles: 16725590 heartbeat IPC: 0.8542 cumulative IPC: 0.8542 (Simulation time: 00 hr 04 min 08 sec)
Heartbeat CPU 0 instructions: 50000008 cycles: 29362523 heartbeat IPC: 0.7913 cumulative IPC: 0.8216 (Simulation time: 00 hr 06 min 43 sec)
Heartbeat CPU 0 instructions: 60000003 cycles: 42765687 heartbeat IPC: 0.7461 cumulative IPC: 0.7948 (Simulation time: 00 hr 09 min 25 sec)
*** Reached end of trace: (0, "../traces/public_traces/compute_fp/compute_fp_8.champsimtrace.xz")
Heartbeat CPU 0 instructions: 70000006 cycles: 54464896 heartbeat IPC: 0.8548 cumulative IPC: 0.809 (Simulation time: 00 hr 11 min 50 sec)
Heartbeat CPU 0 instructions: 80000009 cycles: 67126513 heartbeat IPC: 0.7898 cumulative IPC: 0.8051 (Simulation time: 00 hr 14 min 24 sec)
Heartbeat CPU 0 instructions: 90000000 cycles: 80576381 heartbeat IPC: 0.7435 cumulative IPC: 0.7941 (Simulation time: 00 hr 17 min 06 sec)
*** Reached end of trace: (0, "../traces/public_traces/compute_fp/compute_fp_8.champsimtrace.xz")
Heartbeat CPU 0 instructions: 100000001 cycles: 92305187 heartbeat IPC: 0.8526 cumulative IPC: 0.802 (Simulation time: 00 hr 19 min 31 sec)
Heartbeat CPU 0 instructions: 110000006 cycles: 104933177 heartbeat IPC: 0.7919 cumulative IPC: 0.8007 (Simulation time: 00 hr 22 min 05 sec)
Heartbeat CPU 0 instructions: 120000009 cycles: 118337918 heartbeat IPC: 0.746 cumulative IPC: 0.7942 (Simulation time: 00 hr 24 min 47 sec)
*** Reached end of trace: (0, "../traces/public_traces/compute_fp/compute_fp_8.champsimtrace.xz")
Heartbeat CPU 0 instructions: 130000000 cycles: 130052656 heartbeat IPC: 0.8536 cumulative IPC: 0.7998 (Simulation time: 00 hr 27 min 12 sec)
Simulation finished CPU 0 instructions: 100000006 cycles: 125033591 cumulative IPC: 0.7998 (Simulation time: 00 hr 27 min 12 sec)
Simulation complete CPU 0 instructions: 100000006 cycles: 125033591 cumulative IPC: 0.7998 (Simulation time: 00 hr 27 min 12 sec)

ChampSim completed all CPUs

=== Simulation ===
CPU 0 runs ../traces/public_traces/compute_fp/compute_fp_8.champsimtrace.xz
Region of Interest Statistics

CPU 0 cumulative IPC: 0.7998 instructions: 100000006 cycles: 125033591
CPU 0 Branch Prediction Accuracy: 99.99% MPKI: 0.00043 Average ROB Occupancy at Mispredict: 360.7
Branch type MPKI
BRANCH_DIRECT_JUMP: 0
BRANCH_INDIRECT: 0.00041
BRANCH_CONDITIONAL: 2e-05
BRANCH_DIRECT_CALL: 0
BRANCH_INDIRECT_CALL: 0
BRANCH_RETURN: 0

LLC TOTAL        ACCESS:    4840179 HIT:    2102734 MISS:    2737445
LLC LOAD         ACCESS:       6633 HIT:         20 MISS:       6613
LLC RFO          ACCESS:    2070347 HIT:      27898 MISS:    2042449
LLC PREFETCH     ACCESS:     687892 HIT:        320 MISS:     687572
LLC WRITE        ACCESS:    2074487 HIT:    2074479 MISS:          8
LLC TRANSLATION  ACCESS:        820 HIT:         17 MISS:        803
LLC PREFETCH REQUESTED:          0 ISSUED:          0 USEFUL:          0 USELESS:          0
LLC AVERAGE MISS LATENCY: 918.9 cycles
cpu0_DTLB TOTAL        ACCESS:   10803923 HIT:   10738390 MISS:      65533
cpu0_DTLB LOAD         ACCESS:   10803923 HIT:   10738390 MISS:      65533
cpu0_DTLB RFO          ACCESS:          0 HIT:          0 MISS:          0
cpu0_DTLB PREFETCH     ACCESS:          0 HIT:          0 MISS:          0
cpu0_DTLB WRITE        ACCESS:          0 HIT:          0 MISS:          0
cpu0_DTLB TRANSLATION  ACCESS:          0 HIT:          0 MISS:          0
cpu0_DTLB PREFETCH REQUESTED:          0 ISSUED:          0 USEFUL:          0 USELESS:          0
cpu0_DTLB AVERAGE MISS LATENCY: 136.7 cycles
cpu0_ITLB TOTAL        ACCESS:       7062 HIT:       7062 MISS:          0
cpu0_ITLB LOAD         ACCESS:       7062 HIT:       7062 MISS:          0
cpu0_ITLB RFO          ACCESS:          0 HIT:          0 MISS:          0
cpu0_ITLB PREFETCH     ACCESS:          0 HIT:          0 MISS:          0
cpu0_ITLB WRITE        ACCESS:          0 HIT:          0 MISS:          0
cpu0_ITLB TRANSLATION  ACCESS:          0 HIT:          0 MISS:          0
cpu0_ITLB PREFETCH REQUESTED:          0 ISSUED:          0 USEFUL:          0 USELESS:          0
cpu0_ITLB AVERAGE MISS LATENCY: -nan cycles
cpu0_L1D TOTAL        ACCESS:   17414886 HIT:    9216668 MISS:    8198218
cpu0_L1D LOAD         ACCESS:    2905954 HIT:    2190396 MISS:     715558
cpu0_L1D RFO          ACCESS:          0 HIT:          0 MISS:          0
cpu0_L1D PREFETCH     ACCESS:    4008853 HIT:     730283 MISS:    3278570
cpu0_L1D WRITE        ACCESS:   10457051 HIT:    6294605 MISS:    4162446
cpu0_L1D TRANSLATION  ACCESS:      43028 HIT:       1384 MISS:      41644
cpu0_L1D PREFETCH REQUESTED:  127076357 ISSUED:    4008853 USEFUL:      10013 USELESS:         24
cpu0_L1D AVERAGE MISS LATENCY: 213.4 cycles
cpu0_L1I TOTAL        ACCESS:      10342 HIT:      10079 MISS:        263
cpu0_L1I LOAD         ACCESS:       5140 HIT:       4990 MISS:        150
cpu0_L1I RFO          ACCESS:          0 HIT:          0 MISS:          0
cpu0_L1I PREFETCH     ACCESS:       5202 HIT:       5089 MISS:        113
cpu0_L1I WRITE        ACCESS:          0 HIT:          0 MISS:          0
cpu0_L1I TRANSLATION  ACCESS:          0 HIT:          0 MISS:          0
cpu0_L1I PREFETCH REQUESTED:       6396 ISSUED:       5202 USEFUL:         66 USELESS:          0
cpu0_L1I AVERAGE MISS LATENCY: 335.4 cycles
cpu0_L2C TOTAL        ACCESS:   14320552 HIT:   10557303 MISS:    3763249
cpu0_L2C LOAD         ACCESS:     680227 HIT:     661009 MISS:      19218
cpu0_L2C RFO          ACCESS:    3877180 HIT:    1806830 MISS:    2070350
cpu0_L2C PREFETCH     ACCESS:    5843723 HIT:    4170872 MISS:    1672851
cpu0_L2C WRITE        ACCESS:    3877781 HIT:    3877771 MISS:         10
cpu0_L2C TRANSLATION  ACCESS:      41641 HIT:      40821 MISS:        820
cpu0_L2C PREFETCH REQUESTED:    3265966 ISSUED:    3262019 USEFUL:     301863 USELESS:       1521
cpu0_L2C AVERAGE MISS LATENCY: 680.1 cycles
cpu0_STLB TOTAL        ACCESS:      43917 HIT:        960 MISS:      42957
cpu0_STLB LOAD         ACCESS:      43917 HIT:        960 MISS:      42957
cpu0_STLB RFO          ACCESS:          0 HIT:          0 MISS:          0
cpu0_STLB PREFETCH     ACCESS:          0 HIT:          0 MISS:          0
cpu0_STLB WRITE        ACCESS:          0 HIT:          0 MISS:          0
cpu0_STLB TRANSLATION  ACCESS:          0 HIT:          0 MISS:          0
cpu0_STLB PREFETCH REQUESTED:          0 ISSUED:          0 USEFUL:          0 USELESS:          0
cpu0_STLB AVERAGE MISS LATENCY: 240.3 cycles

DRAM Statistics

Channel 0 RQ ROW_BUFFER_HIT:     328888
  ROW_BUFFER_MISS:    1039953
 AVG DBUS CONGESTED CYCLE: 3.979
WQ ROW_BUFFER_HIT: Channel 0 
  ROW_BUFFER_MISS:     135672
  FULL:     887363

Channel 1 RQ ROW_BUFFER_HIT:     328673
  ROW_BUFFER_MISS:    1039910
 AVG DBUS CONGESTED CYCLE: 3.979
WQ ROW_BUFFER_HIT: Channel 1 
  ROW_BUFFER_MISS:     136186
  FULL:     886714
BERTI TO_L1: 5627221 TO_L2: 129085019 TO_L2_BC_MSHR: 73134356
BERTI AVG_LAT: 43.6718 NUM_TRACK_LATENCY: 897994 NUM_CANT_TRACK_LATENCY: 165
BERTI CROSS_PAGE 40371684 NO_CROSS_PAGE: 94340556
BERTI FOUND_BERTI: 13071133 NO_FOUND_BERTI: 4871833
BERTI AVERAGE_ISSUED: 5.68349
CPU 0 L1I Entangling prefetcher final stats
IP accesses: 4119 104640 86 / 5140
IP misses: 4f00 13c000 16 / 150
IP hits: 0 0 0 / 0
IP late: 34 d00 7 / 80
IP wrong: 0 0 0 / 0
miss rate: 0.0291829
coverage: 0
coverage_late: 0.533334
accuracy: 0
accuracy_late: 1
discarded: 0
evicts entangled j table: 0
evicts entangled k table: 2
max bb size: 13
formats: 0 0 4 1 1 0 0 
hist_lookups: 2 1 1 0 1 2 3 1 0 1 0 0 0 0 0 0 0 125 
hist_lookups_evict: 0 %
hist_lookups_shortlat: 91.2409 %
bb_found_hist: 0 914 458 147 42 42 7 0 7 7 0 0 0 21 0 0 0 0 0 0 0 0 0 0 0 0 0 0 0 0 0 0 0 0 0 0 0 0 0 0 0 0 0 0 0 0 0 0 0 0 0 0 0 0 0 0 0 0 0 0 0 0 0 0 
bb_found_summary: 3083 1645 1.87417
entangled_found_hist: 0 313 178 251 14 0 0 0 
entangled_found_summary: 1478 756 1.95503
bb_ent_found_hist: 0 395 256 273 7 14 0 0 0 7 0 0 0 7 0 0 0 0 0 0 0 0 0 0 0 0 0 0 0 0 0 0 0 0 0 0 0 0 0 0 0 0 0 0 0 0 0 0 0 0 0 0 0 0 0 0 0 0 0 0 0 0 0 0 
bb_ent_found_summary: 1978 959 2.06257
