WARNING: physical memory size is smaller than virtual memory size.

*** ChampSim Multicore Out-of-Order Simulator ***
Warmup Instructions: 25000000
Simulation Instructions: 100000000
Number of CPUs: 1
Page size: 4096

[L1D] Demand IPV: 1 2 2 1 4 Prefetch IPV: 1 2 1 1 4
[L1I] Demand IPV: 1 2 2 1 4 Prefetch IPV: 1 2 1 1 4
[L2C] Demand IPV: 1 2 2 1 4 Prefetch IPV: 1 2 1 1 4
[LLC] Demand IPV: 1 2 2 1 4 Prefetch IPV: 1 2 1 1 4
Off-chip DRAM Size: 4 GiB Channels: 1 Width: 64-bit Data Race: 3200 MT/s
Heartbeat CPU 0 instructions: 10000000 cycles: 2520174 heartbeat IPC: 3.968 cumulative IPC: 3.968 (Simulation time: 00 hr 00 min 19 sec)
Heartbeat CPU 0 instructions: 20000001 cycles: 5044388 heartbeat IPC: 3.962 cumulative IPC: 3.965 (Simulation time: 00 hr 00 min 38 sec)
Warmup finished CPU 0 instructions: 25000003 cycles: 6312857 cumulative IPC: 3.96 (Simulation time: 00 hr 00 min 48 sec)
Warmup complete CPU 0 instructions: 25000003 cycles: 6312857 cumulative IPC: 3.96 (Simulation time: 00 hr 00 min 48 sec)
Heartbeat CPU 0 instructions: 30000000 cycles: 10272236 heartbeat IPC: 1.913 cumulative IPC: 1.263 (Simulation time: 00 hr 01 min 06 sec)
Heartbeat CPU 0 instructions: 40000001 cycles: 18049660 heartbeat IPC: 1.286 cumulative IPC: 1.278 (Simulation time: 00 hr 01 min 43 sec)
Heartbeat CPU 0 instructions: 50000001 cycles: 26386822 heartbeat IPC: 1.199 cumulative IPC: 1.245 (Simulation time: 00 hr 02 min 21 sec)
Heartbeat CPU 0 instructions: 60000001 cycles: 34510041 heartbeat IPC: 1.231 cumulative IPC: 1.241 (Simulation time: 00 hr 02 min 59 sec)
Heartbeat CPU 0 instructions: 70000003 cycles: 42059908 heartbeat IPC: 1.325 cumulative IPC: 1.259 (Simulation time: 00 hr 03 min 35 sec)
Heartbeat CPU 0 instructions: 80000000 cycles: 50094793 heartbeat IPC: 1.245 cumulative IPC: 1.256 (Simulation time: 00 hr 04 min 12 sec)
Heartbeat CPU 0 instructions: 90000001 cycles: 58154427 heartbeat IPC: 1.241 cumulative IPC: 1.254 (Simulation time: 00 hr 04 min 50 sec)
Heartbeat CPU 0 instructions: 100000000 cycles: 65806156 heartbeat IPC: 1.307 cumulative IPC: 1.261 (Simulation time: 00 hr 05 min 26 sec)
*** Reached end of trace: (0, "../traces/secret_traces/compute_int/compute_int_835.champsimtrace.xz")
Heartbeat CPU 0 instructions: 110000003 cycles: 73711977 heartbeat IPC: 1.265 cumulative IPC: 1.261 (Simulation time: 00 hr 06 min 03 sec)
Heartbeat CPU 0 instructions: 120000000 cycles: 82539255 heartbeat IPC: 1.133 cumulative IPC: 1.246 (Simulation time: 00 hr 06 min 42 sec)
Simulation finished CPU 0 instructions: 100000002 cycles: 80091089 cumulative IPC: 1.249 (Simulation time: 00 hr 07 min 00 sec)
Simulation complete CPU 0 instructions: 100000002 cycles: 80091089 cumulative IPC: 1.249 (Simulation time: 00 hr 07 min 00 sec)

ChampSim completed all CPUs

=== Simulation ===
CPU 0 runs ../traces/secret_traces/compute_int/compute_int_835.champsimtrace.xz
Region of Interest Statistics

CPU 0 cumulative IPC: 1.249 instructions: 100000002 cycles: 80091089
CPU 0 Branch Prediction Accuracy: 84.36% MPKI: 28.68 Average ROB Occupancy at Mispredict: 10.89
Branch type MPKI
BRANCH_DIRECT_JUMP: 0.0142
BRANCH_INDIRECT: 13.4
BRANCH_CONDITIONAL: 15.2
BRANCH_DIRECT_CALL: 0.0303
BRANCH_INDIRECT_CALL: 0.0465
BRANCH_RETURN: 0.0156

L1D TOTAL        ACCESS:   25507545 HIT:   23987512 MISS:    1520033
L1D LOAD         ACCESS:   18570893 HIT:   17819977 MISS:     750916
L1D RFO          ACCESS:          0 HIT:          0 MISS:          0
L1D PREFETCH     ACCESS:          0 HIT:          0 MISS:          0
L1D WRITE        ACCESS:    6927884 HIT:    6167022 MISS:     760862
L1D TRANSLATION  ACCESS:       8768 HIT:        513 MISS:       8255
L1D PREFETCH REQUESTED:          0 ISSUED:          0 USEFUL:          0 USELESS:          0
L1D AVERAGE MISS LATENCY: 10.95 cycles
L1I TOTAL        ACCESS:    5231008 HIT:    4522596 MISS:     708412
L1I LOAD         ACCESS:    5231008 HIT:    4522596 MISS:     708412
L1I RFO          ACCESS:          0 HIT:          0 MISS:          0
L1I PREFETCH     ACCESS:          0 HIT:          0 MISS:          0
L1I WRITE        ACCESS:          0 HIT:          0 MISS:          0
L1I TRANSLATION  ACCESS:          0 HIT:          0 MISS:          0
L1I PREFETCH REQUESTED:          0 ISSUED:          0 USEFUL:          0 USELESS:          0
L1I AVERAGE MISS LATENCY: 9.35 cycles
L2C TOTAL        ACCESS:    1411250 HIT:    1147771 MISS:     263479
L2C LOAD         ACCESS:     952601 HIT:     773929 MISS:     178672
L2C RFO          ACCESS:     205243 HIT:     134720 MISS:      70523
L2C PREFETCH     ACCESS:          0 HIT:          0 MISS:          0
L2C WRITE        ACCESS:     245158 HIT:     236832 MISS:       8326
L2C TRANSLATION  ACCESS:       8248 HIT:       2290 MISS:       5958
L2C PREFETCH REQUESTED:          0 ISSUED:          0 USEFUL:          0 USELESS:          0
L2C AVERAGE MISS LATENCY: 49.04 cycles
LLC TOTAL        ACCESS:     341526 HIT:     295945 MISS:      45581
LLC LOAD         ACCESS:     178672 HIT:     147624 MISS:      31048
LLC RFO          ACCESS:      70523 HIT:      63752 MISS:       6771
LLC PREFETCH     ACCESS:          0 HIT:          0 MISS:          0
LLC WRITE        ACCESS:      86373 HIT:      80506 MISS:       5867
LLC TRANSLATION  ACCESS:       5958 HIT:       4063 MISS:       1895
LLC PREFETCH REQUESTED:          0 ISSUED:          0 USEFUL:          0 USELESS:          0
LLC AVERAGE MISS LATENCY: 170.5 cycles
cpu0_DTLB TOTAL        ACCESS:   21364433 HIT:   21113908 MISS:     250525
cpu0_DTLB LOAD         ACCESS:   21364433 HIT:   21113908 MISS:     250525
cpu0_DTLB RFO          ACCESS:          0 HIT:          0 MISS:          0
cpu0_DTLB PREFETCH     ACCESS:          0 HIT:          0 MISS:          0
cpu0_DTLB WRITE        ACCESS:          0 HIT:          0 MISS:          0
cpu0_DTLB TRANSLATION  ACCESS:          0 HIT:          0 MISS:          0
cpu0_DTLB PREFETCH REQUESTED:          0 ISSUED:          0 USEFUL:          0 USELESS:          0
cpu0_DTLB AVERAGE MISS LATENCY: 7.154 cycles
cpu0_ITLB TOTAL        ACCESS:    4592223 HIT:    4572915 MISS:      19308
cpu0_ITLB LOAD         ACCESS:    4592223 HIT:    4572915 MISS:      19308
cpu0_ITLB RFO          ACCESS:          0 HIT:          0 MISS:          0
cpu0_ITLB PREFETCH     ACCESS:          0 HIT:          0 MISS:          0
cpu0_ITLB WRITE        ACCESS:          0 HIT:          0 MISS:          0
cpu0_ITLB TRANSLATION  ACCESS:          0 HIT:          0 MISS:          0
cpu0_ITLB PREFETCH REQUESTED:          0 ISSUED:          0 USEFUL:          0 USELESS:          0
cpu0_ITLB AVERAGE MISS LATENCY: 6.278 cycles
cpu0_STLB TOTAL        ACCESS:     147515 HIT:     138887 MISS:       8628
cpu0_STLB LOAD         ACCESS:     147515 HIT:     138887 MISS:       8628
cpu0_STLB RFO          ACCESS:          0 HIT:          0 MISS:          0
cpu0_STLB PREFETCH     ACCESS:          0 HIT:          0 MISS:          0
cpu0_STLB WRITE        ACCESS:          0 HIT:          0 MISS:          0
cpu0_STLB TRANSLATION  ACCESS:          0 HIT:          0 MISS:          0
cpu0_STLB PREFETCH REQUESTED:          0 ISSUED:          0 USEFUL:          0 USELESS:          0
cpu0_STLB AVERAGE MISS LATENCY: 112.8 cycles

DRAM Statistics

Channel 0 RQ ROW_BUFFER_HIT:       8432
  ROW_BUFFER_MISS:      31277
 AVG DBUS CONGESTED CYCLE: 3.918
WQ ROW_BUFFER_HIT: Channel 0 
  ROW_BUFFER_MISS:       2987
  FULL:      11673
