WARNING: physical memory size is smaller than virtual memory size.

*** ChampSim Multicore Out-of-Order Simulator ***
Warmup Instructions: 25000000
Simulation Instructions: 100000000
Number of CPUs: 1
Page size: 4096

[L1D] Demand IPV: 1 2 2 1 4 Prefetch IPV: 1 2 1 1 4
[L1I] Demand IPV: 1 2 2 1 4 Prefetch IPV: 1 2 1 1 4
[L2C] Demand IPV: 1 2 2 1 4 Prefetch IPV: 1 2 1 1 4
[LLC] Demand IPV: 1 2 2 1 4 Prefetch IPV: 1 2 1 1 4
Off-chip DRAM Size: 4 GiB Channels: 1 Width: 64-bit Data Race: 3200 MT/s
Heartbeat CPU 0 instructions: 10000001 cycles: 2523394 heartbeat IPC: 3.963 cumulative IPC: 3.963 (Simulation time: 00 hr 00 min 18 sec)
Heartbeat CPU 0 instructions: 20000001 cycles: 5023394 heartbeat IPC: 4 cumulative IPC: 3.981 (Simulation time: 00 hr 00 min 37 sec)
Warmup finished CPU 0 instructions: 25000001 cycles: 6273395 cumulative IPC: 3.985 (Simulation time: 00 hr 00 min 46 sec)
Warmup complete CPU 0 instructions: 25000001 cycles: 6273395 cumulative IPC: 3.985 (Simulation time: 00 hr 00 min 46 sec)
Heartbeat CPU 0 instructions: 30000001 cycles: 8419565 heartbeat IPC: 2.944 cumulative IPC: 2.33 (Simulation time: 00 hr 01 min 00 sec)
Heartbeat CPU 0 instructions: 40000004 cycles: 12564735 heartbeat IPC: 2.412 cumulative IPC: 2.384 (Simulation time: 00 hr 01 min 26 sec)
Heartbeat CPU 0 instructions: 50000001 cycles: 16670494 heartbeat IPC: 2.436 cumulative IPC: 2.405 (Simulation time: 00 hr 01 min 54 sec)
Heartbeat CPU 0 instructions: 60000002 cycles: 39021994 heartbeat IPC: 0.4474 cumulative IPC: 1.069 (Simulation time: 00 hr 03 min 40 sec)
Heartbeat CPU 0 instructions: 70000004 cycles: 43717602 heartbeat IPC: 2.13 cumulative IPC: 1.202 (Simulation time: 00 hr 04 min 12 sec)
Heartbeat CPU 0 instructions: 80000000 cycles: 47848037 heartbeat IPC: 2.421 cumulative IPC: 1.323 (Simulation time: 00 hr 04 min 40 sec)
Heartbeat CPU 0 instructions: 90000004 cycles: 51764808 heartbeat IPC: 2.553 cumulative IPC: 1.429 (Simulation time: 00 hr 05 min 09 sec)
Heartbeat CPU 0 instructions: 100000003 cycles: 55804970 heartbeat IPC: 2.475 cumulative IPC: 1.514 (Simulation time: 00 hr 05 min 38 sec)
*** Reached end of trace: (0, "../traces/secret_traces/compute_fp/compute_fp_64.champsimtrace.xz")
Heartbeat CPU 0 instructions: 110000000 cycles: 64363183 heartbeat IPC: 1.168 cumulative IPC: 1.463 (Simulation time: 00 hr 06 min 20 sec)
Heartbeat CPU 0 instructions: 120000000 cycles: 68679829 heartbeat IPC: 2.317 cumulative IPC: 1.522 (Simulation time: 00 hr 06 min 48 sec)
Simulation finished CPU 0 instructions: 100000002 cycles: 64499799 cumulative IPC: 1.55 (Simulation time: 00 hr 07 min 02 sec)
Simulation complete CPU 0 instructions: 100000002 cycles: 64499799 cumulative IPC: 1.55 (Simulation time: 00 hr 07 min 02 sec)

ChampSim completed all CPUs

=== Simulation ===
CPU 0 runs ../traces/secret_traces/compute_fp/compute_fp_64.champsimtrace.xz
Region of Interest Statistics

CPU 0 cumulative IPC: 1.55 instructions: 100000002 cycles: 64499799
CPU 0 Branch Prediction Accuracy: 96.04% MPKI: 4.697 Average ROB Occupancy at Mispredict: 81.09
Branch type MPKI
BRANCH_DIRECT_JUMP: 0.0088
BRANCH_INDIRECT: 0.574
BRANCH_CONDITIONAL: 4.07
BRANCH_DIRECT_CALL: 0.0239
BRANCH_INDIRECT_CALL: 0.00796
BRANCH_RETURN: 0.0124

L1D TOTAL        ACCESS:   20799969 HIT:   17385217 MISS:    3414752
L1D LOAD         ACCESS:   11495145 HIT:   10303339 MISS:    1191806
L1D RFO          ACCESS:          0 HIT:          0 MISS:          0
L1D PREFETCH     ACCESS:          0 HIT:          0 MISS:          0
L1D WRITE        ACCESS:    9298834 HIT:    7080813 MISS:    2218021
L1D TRANSLATION  ACCESS:       5990 HIT:       1065 MISS:       4925
L1D PREFETCH REQUESTED:          0 ISSUED:          0 USEFUL:          0 USELESS:          0
L1D AVERAGE MISS LATENCY: 86.63 cycles
L1I TOTAL        ACCESS:    2809236 HIT:    2590016 MISS:     219220
L1I LOAD         ACCESS:    2809236 HIT:    2590016 MISS:     219220
L1I RFO          ACCESS:          0 HIT:          0 MISS:          0
L1I PREFETCH     ACCESS:          0 HIT:          0 MISS:          0
L1I WRITE        ACCESS:          0 HIT:          0 MISS:          0
L1I TRANSLATION  ACCESS:          0 HIT:          0 MISS:          0
L1I PREFETCH REQUESTED:          0 ISSUED:          0 USEFUL:          0 USELESS:          0
L1I AVERAGE MISS LATENCY: 18.42 cycles
L2C TOTAL        ACCESS:    4476058 HIT:    4078756 MISS:     397302
L2C LOAD         ACCESS:     941259 HIT:     780632 MISS:     160627
L2C RFO          ACCESS:    1734543 HIT:    1523018 MISS:     211525
L2C PREFETCH     ACCESS:          0 HIT:          0 MISS:          0
L2C WRITE        ACCESS:    1796053 HIT:    1773739 MISS:      22314
L2C TRANSLATION  ACCESS:       4203 HIT:       1367 MISS:       2836
L2C PREFETCH REQUESTED:          0 ISSUED:          0 USEFUL:          0 USELESS:          0
L2C AVERAGE MISS LATENCY: 722.2 cycles
LLC TOTAL        ACCESS:     604725 HIT:     164804 MISS:     439921
LLC LOAD         ACCESS:     160627 HIT:      39184 MISS:     121443
LLC RFO          ACCESS:     211524 HIT:      36034 MISS:     175490
LLC PREFETCH     ACCESS:          0 HIT:          0 MISS:          0
LLC WRITE        ACCESS:     229738 HIT:      88783 MISS:     140955
LLC TRANSLATION  ACCESS:       2836 HIT:        803 MISS:       2033
LLC PREFETCH REQUESTED:          0 ISSUED:          0 USEFUL:          0 USELESS:          0
LLC AVERAGE MISS LATENCY: 634.5 cycles
cpu0_DTLB TOTAL        ACCESS:   16512493 HIT:   16180494 MISS:     331999
cpu0_DTLB LOAD         ACCESS:   16512493 HIT:   16180494 MISS:     331999
cpu0_DTLB RFO          ACCESS:          0 HIT:          0 MISS:          0
cpu0_DTLB PREFETCH     ACCESS:          0 HIT:          0 MISS:          0
cpu0_DTLB WRITE        ACCESS:          0 HIT:          0 MISS:          0
cpu0_DTLB TRANSLATION  ACCESS:          0 HIT:          0 MISS:          0
cpu0_DTLB PREFETCH REQUESTED:          0 ISSUED:          0 USEFUL:          0 USELESS:          0
cpu0_DTLB AVERAGE MISS LATENCY: 11.96 cycles
cpu0_ITLB TOTAL        ACCESS:    2369814 HIT:    2364962 MISS:       4852
cpu0_ITLB LOAD         ACCESS:    2369814 HIT:    2364962 MISS:       4852
cpu0_ITLB RFO          ACCESS:          0 HIT:          0 MISS:          0
cpu0_ITLB PREFETCH     ACCESS:          0 HIT:          0 MISS:          0
cpu0_ITLB WRITE        ACCESS:          0 HIT:          0 MISS:          0
cpu0_ITLB TRANSLATION  ACCESS:          0 HIT:          0 MISS:          0
cpu0_ITLB PREFETCH REQUESTED:          0 ISSUED:          0 USEFUL:          0 USELESS:          0
cpu0_ITLB AVERAGE MISS LATENCY: 24.95 cycles
cpu0_STLB TOTAL        ACCESS:     229435 HIT:     223635 MISS:       5800
cpu0_STLB LOAD         ACCESS:     229435 HIT:     223635 MISS:       5800
cpu0_STLB RFO          ACCESS:          0 HIT:          0 MISS:          0
cpu0_STLB PREFETCH     ACCESS:          0 HIT:          0 MISS:          0
cpu0_STLB WRITE        ACCESS:          0 HIT:          0 MISS:          0
cpu0_STLB TRANSLATION  ACCESS:          0 HIT:          0 MISS:          0
cpu0_STLB PREFETCH REQUESTED:          0 ISSUED:          0 USEFUL:          0 USELESS:          0
cpu0_STLB AVERAGE MISS LATENCY: 685.4 cycles

DRAM Statistics

Channel 0 RQ ROW_BUFFER_HIT:     160708
  ROW_BUFFER_MISS:     138223
 AVG DBUS CONGESTED CYCLE: 3.968
WQ ROW_BUFFER_HIT: Channel 0 
  ROW_BUFFER_MISS:       9719
  FULL:     179489
