WARNING: physical memory size is smaller than virtual memory size.

*** ChampSim Multicore Out-of-Order Simulator ***
Warmup Instructions: 25000000
Simulation Instructions: 100000000
Number of CPUs: 1
Page size: 4096

[L1D] Demand IPV: 1 2 2 1 4 Prefetch IPV: 1 2 1 1 4
[L1I] Demand IPV: 1 2 2 1 4 Prefetch IPV: 1 2 1 1 4
[L2C] Demand IPV: 1 2 2 1 4 Prefetch IPV: 1 2 1 1 4
[LLC] Demand IPV: 1 2 2 1 4 Prefetch IPV: 1 2 1 1 4
Off-chip DRAM Size: 4 GiB Channels: 1 Width: 64-bit Data Race: 3200 MT/s
Heartbeat CPU 0 instructions: 10000000 cycles: 2523411 heartbeat IPC: 3.963 cumulative IPC: 3.963 (Simulation time: 00 hr 00 min 24 sec)
Heartbeat CPU 0 instructions: 20000000 cycles: 5023411 heartbeat IPC: 4 cumulative IPC: 3.981 (Simulation time: 00 hr 00 min 48 sec)
Warmup finished CPU 0 instructions: 25000000 cycles: 6273412 cumulative IPC: 3.985 (Simulation time: 00 hr 00 min 59 sec)
Warmup complete CPU 0 instructions: 25000000 cycles: 6273412 cumulative IPC: 3.985 (Simulation time: 00 hr 00 min 59 sec)
Heartbeat CPU 0 instructions: 30000004 cycles: 30479112 heartbeat IPC: 0.3928 cumulative IPC: 0.2066 (Simulation time: 00 hr 02 min 58 sec)
Heartbeat CPU 0 instructions: 40000000 cycles: 77490514 heartbeat IPC: 0.2127 cumulative IPC: 0.2106 (Simulation time: 00 hr 06 min 50 sec)
Heartbeat CPU 0 instructions: 50000002 cycles: 125397890 heartbeat IPC: 0.2087 cumulative IPC: 0.2099 (Simulation time: 00 hr 10 min 47 sec)
Heartbeat CPU 0 instructions: 60000004 cycles: 174008150 heartbeat IPC: 0.2057 cumulative IPC: 0.2087 (Simulation time: 00 hr 14 min 46 sec)
Heartbeat CPU 0 instructions: 70000001 cycles: 223654882 heartbeat IPC: 0.2014 cumulative IPC: 0.207 (Simulation time: 00 hr 18 min 50 sec)
Heartbeat CPU 0 instructions: 80000004 cycles: 272685028 heartbeat IPC: 0.204 cumulative IPC: 0.2064 (Simulation time: 00 hr 22 min 50 sec)
Heartbeat CPU 0 instructions: 90000004 cycles: 324070697 heartbeat IPC: 0.1946 cumulative IPC: 0.2045 (Simulation time: 00 hr 27 min 02 sec)
Heartbeat CPU 0 instructions: 100000002 cycles: 332946301 heartbeat IPC: 1.127 cumulative IPC: 0.2296 (Simulation time: 00 hr 27 min 53 sec)
*** Reached end of trace: (0, "../traces/secret_traces/compute_fp/compute_fp_103.champsimtrace.xz")
Heartbeat CPU 0 instructions: 110000004 cycles: 374997854 heartbeat IPC: 0.2378 cumulative IPC: 0.2305 (Simulation time: 00 hr 31 min 13 sec)
Heartbeat CPU 0 instructions: 120000002 cycles: 416600852 heartbeat IPC: 0.2404 cumulative IPC: 0.2315 (Simulation time: 00 hr 34 min 37 sec)
Simulation finished CPU 0 instructions: 100000003 cycles: 433800374 cumulative IPC: 0.2305 (Simulation time: 00 hr 36 min 33 sec)
Simulation complete CPU 0 instructions: 100000003 cycles: 433800374 cumulative IPC: 0.2305 (Simulation time: 00 hr 36 min 33 sec)

ChampSim completed all CPUs

=== Simulation ===
CPU 0 runs ../traces/secret_traces/compute_fp/compute_fp_103.champsimtrace.xz
Region of Interest Statistics

CPU 0 cumulative IPC: 0.2305 instructions: 100000003 cycles: 433800374
CPU 0 Branch Prediction Accuracy: 97.57% MPKI: 0.8664 Average ROB Occupancy at Mispredict: 179.8
Branch type MPKI
BRANCH_DIRECT_JUMP: 0.00727
BRANCH_INDIRECT: 0.311
BRANCH_CONDITIONAL: 0.509
BRANCH_DIRECT_CALL: 0.0201
BRANCH_INDIRECT_CALL: 0.00774
BRANCH_RETURN: 0.0111

L1D TOTAL        ACCESS:   33469937 HIT:   20103530 MISS:   13366407
L1D LOAD         ACCESS:   20489436 HIT:   10509132 MISS:    9980304
L1D RFO          ACCESS:          0 HIT:          0 MISS:          0
L1D PREFETCH     ACCESS:          0 HIT:          0 MISS:          0
L1D WRITE        ACCESS:   12825672 HIT:    9576653 MISS:    3249019
L1D TRANSLATION  ACCESS:     154829 HIT:      17745 MISS:     137084
L1D PREFETCH REQUESTED:          0 ISSUED:          0 USEFUL:          0 USELESS:          0
L1D AVERAGE MISS LATENCY: 249.9 cycles
L1I TOTAL        ACCESS:      68586 HIT:      45823 MISS:      22763
L1I LOAD         ACCESS:      68586 HIT:      45823 MISS:      22763
L1I RFO          ACCESS:          0 HIT:          0 MISS:          0
L1I PREFETCH     ACCESS:          0 HIT:          0 MISS:          0
L1I WRITE        ACCESS:          0 HIT:          0 MISS:          0
L1I TRANSLATION  ACCESS:          0 HIT:          0 MISS:          0
L1I PREFETCH REQUESTED:          0 ISSUED:          0 USEFUL:          0 USELESS:          0
L1I AVERAGE MISS LATENCY: 138.7 cycles
L2C TOTAL        ACCESS:    7912854 HIT:    3601460 MISS:    4311394
L2C LOAD         ACCESS:    4584132 HIT:     752684 MISS:    3831448
L2C RFO          ACCESS:     646342 HIT:     480160 MISS:     166182
L2C PREFETCH     ACCESS:          0 HIT:          0 MISS:          0
L2C WRITE        ACCESS:    2545445 HIT:    2254971 MISS:     290474
L2C TRANSLATION  ACCESS:     136935 HIT:     113645 MISS:      23290
L2C PREFETCH REQUESTED:          0 ISSUED:          0 USEFUL:          0 USELESS:          0
L2C AVERAGE MISS LATENCY: 1211 cycles
LLC TOTAL        ACCESS:    6210663 HIT:     713330 MISS:    5497333
LLC LOAD         ACCESS:    3831448 HIT:     166299 MISS:    3665149
LLC RFO          ACCESS:     166180 HIT:       6085 MISS:     160095
LLC PREFETCH     ACCESS:          0 HIT:          0 MISS:          0
LLC WRITE        ACCESS:    2189745 HIT:     535802 MISS:    1653943
LLC TRANSLATION  ACCESS:      23290 HIT:       5144 MISS:      18146
LLC PREFETCH REQUESTED:          0 ISSUED:          0 USEFUL:          0 USELESS:          0
LLC AVERAGE MISS LATENCY: 934.5 cycles
cpu0_DTLB TOTAL        ACCESS:   27666247 HIT:   25987308 MISS:    1678939
cpu0_DTLB LOAD         ACCESS:   27666247 HIT:   25987308 MISS:    1678939
cpu0_DTLB RFO          ACCESS:          0 HIT:          0 MISS:          0
cpu0_DTLB PREFETCH     ACCESS:          0 HIT:          0 MISS:          0
cpu0_DTLB WRITE        ACCESS:          0 HIT:          0 MISS:          0
cpu0_DTLB TRANSLATION  ACCESS:          0 HIT:          0 MISS:          0
cpu0_DTLB PREFETCH REQUESTED:          0 ISSUED:          0 USEFUL:          0 USELESS:          0
cpu0_DTLB AVERAGE MISS LATENCY: 22.77 cycles
cpu0_ITLB TOTAL        ACCESS:      61966 HIT:      57317 MISS:       4649
cpu0_ITLB LOAD         ACCESS:      61966 HIT:      57317 MISS:       4649
cpu0_ITLB RFO          ACCESS:          0 HIT:          0 MISS:          0
cpu0_ITLB PREFETCH     ACCESS:          0 HIT:          0 MISS:          0
cpu0_ITLB WRITE        ACCESS:          0 HIT:          0 MISS:          0
cpu0_ITLB TRANSLATION  ACCESS:          0 HIT:          0 MISS:          0
cpu0_ITLB PREFETCH REQUESTED:          0 ISSUED:          0 USEFUL:          0 USELESS:          0
cpu0_ITLB AVERAGE MISS LATENCY: 45.96 cycles
cpu0_STLB TOTAL        ACCESS:    1303209 HIT:    1149905 MISS:     153304
cpu0_STLB LOAD         ACCESS:    1303209 HIT:    1149905 MISS:     153304
cpu0_STLB RFO          ACCESS:          0 HIT:          0 MISS:          0
cpu0_STLB PREFETCH     ACCESS:          0 HIT:          0 MISS:          0
cpu0_STLB WRITE        ACCESS:          0 HIT:          0 MISS:          0
cpu0_STLB TRANSLATION  ACCESS:          0 HIT:          0 MISS:          0
cpu0_STLB PREFETCH REQUESTED:          0 ISSUED:          0 USEFUL:          0 USELESS:          0
cpu0_STLB AVERAGE MISS LATENCY: 260 cycles

DRAM Statistics

Channel 0 RQ ROW_BUFFER_HIT:    1797419
  ROW_BUFFER_MISS:    2045960
 AVG DBUS CONGESTED CYCLE: 3.982
WQ ROW_BUFFER_HIT: Channel 0 
  ROW_BUFFER_MISS:      35699
  FULL:    2147134
