WARNING: physical memory size is smaller than virtual memory size.

*** ChampSim Multicore Out-of-Order Simulator ***
Warmup Instructions: 25000000
Simulation Instructions: 100000000
Number of CPUs: 1
Page size: 4096

[L1D] Demand IPV: 1 2 2 1 4 Prefetch IPV: 1 2 1 1 4
[L1I] Demand IPV: 1 2 2 1 4 Prefetch IPV: 1 2 1 1 4
[L2C] Demand IPV: 1 2 2 1 4 Prefetch IPV: 1 2 1 1 4
[LLC] Demand IPV: 1 2 2 1 4 Prefetch IPV: 1 2 1 1 4
Off-chip DRAM Size: 4 GiB Channels: 1 Width: 64-bit Data Race: 3200 MT/s
Heartbeat CPU 0 instructions: 10000002 cycles: 2501223 heartbeat IPC: 3.998 cumulative IPC: 3.998 (Simulation time: 00 hr 00 min 19 sec)
Heartbeat CPU 0 instructions: 20000002 cycles: 5003070 heartbeat IPC: 3.997 cumulative IPC: 3.998 (Simulation time: 00 hr 00 min 38 sec)
*** Reached end of trace: (0, "../traces/secret_traces/compute_int/compute_int_917.champsimtrace.xz")
Warmup finished CPU 0 instructions: 25000002 cycles: 6253071 cumulative IPC: 3.998 (Simulation time: 00 hr 00 min 48 sec)
Warmup complete CPU 0 instructions: 25000002 cycles: 6253071 cumulative IPC: 3.998 (Simulation time: 00 hr 00 min 48 sec)
Heartbeat CPU 0 instructions: 30000002 cycles: 9695843 heartbeat IPC: 2.131 cumulative IPC: 1.452 (Simulation time: 00 hr 01 min 06 sec)
Heartbeat CPU 0 instructions: 40000004 cycles: 16382844 heartbeat IPC: 1.495 cumulative IPC: 1.481 (Simulation time: 00 hr 01 min 43 sec)
*** Reached end of trace: (0, "../traces/secret_traces/compute_int/compute_int_917.champsimtrace.xz")
Heartbeat CPU 0 instructions: 50000002 cycles: 23761180 heartbeat IPC: 1.355 cumulative IPC: 1.428 (Simulation time: 00 hr 02 min 21 sec)
Heartbeat CPU 0 instructions: 60000002 cycles: 30720186 heartbeat IPC: 1.437 cumulative IPC: 1.43 (Simulation time: 00 hr 02 min 58 sec)
*** Reached end of trace: (0, "../traces/secret_traces/compute_int/compute_int_917.champsimtrace.xz")
Heartbeat CPU 0 instructions: 70000000 cycles: 37724610 heartbeat IPC: 1.428 cumulative IPC: 1.43 (Simulation time: 00 hr 03 min 35 sec)
Heartbeat CPU 0 instructions: 80000004 cycles: 44637406 heartbeat IPC: 1.447 cumulative IPC: 1.433 (Simulation time: 00 hr 04 min 12 sec)
Heartbeat CPU 0 instructions: 90000001 cycles: 51045447 heartbeat IPC: 1.561 cumulative IPC: 1.451 (Simulation time: 00 hr 04 min 47 sec)
*** Reached end of trace: (0, "../traces/secret_traces/compute_int/compute_int_917.champsimtrace.xz")
Heartbeat CPU 0 instructions: 100000000 cycles: 58708560 heartbeat IPC: 1.305 cumulative IPC: 1.43 (Simulation time: 00 hr 05 min 26 sec)
Heartbeat CPU 0 instructions: 110000001 cycles: 64792623 heartbeat IPC: 1.644 cumulative IPC: 1.452 (Simulation time: 00 hr 06 min 00 sec)
*** Reached end of trace: (0, "../traces/secret_traces/compute_int/compute_int_917.champsimtrace.xz")
Heartbeat CPU 0 instructions: 120000003 cycles: 72708295 heartbeat IPC: 1.263 cumulative IPC: 1.43 (Simulation time: 00 hr 06 min 40 sec)
Simulation finished CPU 0 instructions: 100000000 cycles: 69836230 cumulative IPC: 1.432 (Simulation time: 00 hr 06 min 58 sec)
Simulation complete CPU 0 instructions: 100000000 cycles: 69836230 cumulative IPC: 1.432 (Simulation time: 00 hr 06 min 58 sec)

ChampSim completed all CPUs

=== Simulation ===
CPU 0 runs ../traces/secret_traces/compute_int/compute_int_917.champsimtrace.xz
Region of Interest Statistics

CPU 0 cumulative IPC: 1.432 instructions: 100000000 cycles: 69836230
CPU 0 Branch Prediction Accuracy: 85.07% MPKI: 20.16 Average ROB Occupancy at Mispredict: 34.84
Branch type MPKI
BRANCH_DIRECT_JUMP: 0
BRANCH_INDIRECT: 0.0386
BRANCH_CONDITIONAL: 20.1
BRANCH_DIRECT_CALL: 0
BRANCH_INDIRECT_CALL: 0.00128
BRANCH_RETURN: 8e-05

L1D TOTAL        ACCESS:   29655546 HIT:   24808399 MISS:    4847147
L1D LOAD         ACCESS:   20263796 HIT:   19423196 MISS:     840600
L1D RFO          ACCESS:          0 HIT:          0 MISS:          0
L1D PREFETCH     ACCESS:          0 HIT:          0 MISS:          0
L1D WRITE        ACCESS:    9386993 HIT:    5381029 MISS:    4005964
L1D TRANSLATION  ACCESS:       4757 HIT:       4174 MISS:        583
L1D PREFETCH REQUESTED:          0 ISSUED:          0 USEFUL:          0 USELESS:          0
L1D AVERAGE MISS LATENCY: 30.33 cycles
L1I TOTAL        ACCESS:       7631 HIT:       7409 MISS:        222
L1I LOAD         ACCESS:       7631 HIT:       7409 MISS:        222
L1I RFO          ACCESS:          0 HIT:          0 MISS:          0
L1I PREFETCH     ACCESS:          0 HIT:          0 MISS:          0
L1I WRITE        ACCESS:          0 HIT:          0 MISS:          0
L1I TRANSLATION  ACCESS:          0 HIT:          0 MISS:          0
L1I PREFETCH REQUESTED:          0 ISSUED:          0 USEFUL:          0 USELESS:          0
L1I AVERAGE MISS LATENCY: 224.4 cycles
L2C TOTAL        ACCESS:     962442 HIT:     359553 MISS:     602889
L2C LOAD         ACCESS:     340432 HIT:      90657 MISS:     249775
L2C RFO          ACCESS:     315127 HIT:        944 MISS:     314183
L2C PREFETCH     ACCESS:          0 HIT:          0 MISS:          0
L2C WRITE        ACCESS:     306300 HIT:     267587 MISS:      38713
L2C TRANSLATION  ACCESS:        583 HIT:        365 MISS:        218
L2C PREFETCH REQUESTED:          0 ISSUED:          0 USEFUL:          0 USELESS:          0
L2C AVERAGE MISS LATENCY: 293.6 cycles
LLC TOTAL        ACCESS:     869967 HIT:     237301 MISS:     632666
LLC LOAD         ACCESS:     249775 HIT:      66588 MISS:     183187
LLC RFO          ACCESS:     314183 HIT:      51654 MISS:     262529
LLC PREFETCH     ACCESS:          0 HIT:          0 MISS:          0
LLC WRITE        ACCESS:     305791 HIT:     119018 MISS:     186773
LLC TRANSLATION  ACCESS:        218 HIT:         41 MISS:        177
LLC PREFETCH REQUESTED:          0 ISSUED:          0 USEFUL:          0 USELESS:          0
LLC AVERAGE MISS LATENCY: 261.2 cycles
cpu0_DTLB TOTAL        ACCESS:   23975149 HIT:   23945825 MISS:      29324
cpu0_DTLB LOAD         ACCESS:   23975149 HIT:   23945825 MISS:      29324
cpu0_DTLB RFO          ACCESS:          0 HIT:          0 MISS:          0
cpu0_DTLB PREFETCH     ACCESS:          0 HIT:          0 MISS:          0
cpu0_DTLB WRITE        ACCESS:          0 HIT:          0 MISS:          0
cpu0_DTLB TRANSLATION  ACCESS:          0 HIT:          0 MISS:          0
cpu0_DTLB PREFETCH REQUESTED:          0 ISSUED:          0 USEFUL:          0 USELESS:          0
cpu0_DTLB AVERAGE MISS LATENCY: 6.822 cycles
cpu0_ITLB TOTAL        ACCESS:       6815 HIT:       6431 MISS:        384
cpu0_ITLB LOAD         ACCESS:       6815 HIT:       6431 MISS:        384
cpu0_ITLB RFO          ACCESS:          0 HIT:          0 MISS:          0
cpu0_ITLB PREFETCH     ACCESS:          0 HIT:          0 MISS:          0
cpu0_ITLB WRITE        ACCESS:          0 HIT:          0 MISS:          0
cpu0_ITLB TRANSLATION  ACCESS:          0 HIT:          0 MISS:          0
cpu0_ITLB PREFETCH REQUESTED:          0 ISSUED:          0 USEFUL:          0 USELESS:          0
cpu0_ITLB AVERAGE MISS LATENCY: 18.69 cycles
cpu0_STLB TOTAL        ACCESS:      10126 HIT:       5372 MISS:       4754
cpu0_STLB LOAD         ACCESS:      10126 HIT:       5372 MISS:       4754
cpu0_STLB RFO          ACCESS:          0 HIT:          0 MISS:          0
cpu0_STLB PREFETCH     ACCESS:          0 HIT:          0 MISS:          0
cpu0_STLB WRITE        ACCESS:          0 HIT:          0 MISS:          0
cpu0_STLB TRANSLATION  ACCESS:          0 HIT:          0 MISS:          0
cpu0_STLB PREFETCH REQUESTED:          0 ISSUED:          0 USEFUL:          0 USELESS:          0
cpu0_STLB AVERAGE MISS LATENCY: 62.26 cycles

DRAM Statistics

Channel 0 RQ ROW_BUFFER_HIT:     120358
  ROW_BUFFER_MISS:     325533
 AVG DBUS CONGESTED CYCLE: 3.99
WQ ROW_BUFFER_HIT: Channel 0 
  ROW_BUFFER_MISS:      36234
  FULL:     218138
