WARNING: physical memory size is smaller than virtual memory size.

*** ChampSim Multicore Out-of-Order Simulator ***
Warmup Instructions: 25000000
Simulation Instructions: 100000000
Number of CPUs: 1
Page size: 4096

[L1D] Demand IPV: 1 2 2 1 4 Prefetch IPV: 1 2 1 1 4
[L1I] Demand IPV: 1 2 2 1 4 Prefetch IPV: 1 2 1 1 4
[L2C] Demand IPV: 1 2 2 1 4 Prefetch IPV: 1 2 1 1 4
[LLC] Demand IPV: 1 2 2 1 4 Prefetch IPV: 1 2 1 1 4
Off-chip DRAM Size: 4 GiB Channels: 1 Width: 64-bit Data Race: 3200 MT/s
Heartbeat CPU 0 instructions: 10000000 cycles: 2510053 heartbeat IPC: 3.984 cumulative IPC: 3.984 (Simulation time: 00 hr 00 min 20 sec)
Heartbeat CPU 0 instructions: 20000000 cycles: 5021148 heartbeat IPC: 3.982 cumulative IPC: 3.983 (Simulation time: 00 hr 00 min 40 sec)
Warmup finished CPU 0 instructions: 25000002 cycles: 6285999 cumulative IPC: 3.977 (Simulation time: 00 hr 00 min 50 sec)
Warmup complete CPU 0 instructions: 25000002 cycles: 6285999 cumulative IPC: 3.977 (Simulation time: 00 hr 00 min 50 sec)
Heartbeat CPU 0 instructions: 30000000 cycles: 10581796 heartbeat IPC: 1.798 cumulative IPC: 1.164 (Simulation time: 00 hr 01 min 09 sec)
Heartbeat CPU 0 instructions: 40000001 cycles: 18861796 heartbeat IPC: 1.208 cumulative IPC: 1.193 (Simulation time: 00 hr 01 min 48 sec)
Heartbeat CPU 0 instructions: 50000001 cycles: 27184990 heartbeat IPC: 1.201 cumulative IPC: 1.196 (Simulation time: 00 hr 02 min 27 sec)
Heartbeat CPU 0 instructions: 60000001 cycles: 35859582 heartbeat IPC: 1.153 cumulative IPC: 1.183 (Simulation time: 00 hr 03 min 07 sec)
Heartbeat CPU 0 instructions: 70000002 cycles: 44299101 heartbeat IPC: 1.185 cumulative IPC: 1.184 (Simulation time: 00 hr 03 min 46 sec)
Heartbeat CPU 0 instructions: 80000000 cycles: 52799024 heartbeat IPC: 1.176 cumulative IPC: 1.182 (Simulation time: 00 hr 04 min 24 sec)
Heartbeat CPU 0 instructions: 90000001 cycles: 61156240 heartbeat IPC: 1.197 cumulative IPC: 1.185 (Simulation time: 00 hr 05 min 03 sec)
Heartbeat CPU 0 instructions: 100000000 cycles: 69710320 heartbeat IPC: 1.169 cumulative IPC: 1.183 (Simulation time: 00 hr 05 min 41 sec)
*** Reached end of trace: (0, "../traces/secret_traces/compute_int/compute_int_933.champsimtrace.xz")
Heartbeat CPU 0 instructions: 110000001 cycles: 78017978 heartbeat IPC: 1.204 cumulative IPC: 1.185 (Simulation time: 00 hr 06 min 20 sec)
Heartbeat CPU 0 instructions: 120000004 cycles: 88243667 heartbeat IPC: 0.9779 cumulative IPC: 1.159 (Simulation time: 00 hr 07 min 04 sec)
Simulation finished CPU 0 instructions: 100000000 cycles: 86399948 cumulative IPC: 1.157 (Simulation time: 00 hr 07 min 24 sec)
Simulation complete CPU 0 instructions: 100000000 cycles: 86399948 cumulative IPC: 1.157 (Simulation time: 00 hr 07 min 24 sec)

ChampSim completed all CPUs

=== Simulation ===
CPU 0 runs ../traces/secret_traces/compute_int/compute_int_933.champsimtrace.xz
Region of Interest Statistics

CPU 0 cumulative IPC: 1.157 instructions: 100000000 cycles: 86399948
CPU 0 Branch Prediction Accuracy: 81.77% MPKI: 32.35 Average ROB Occupancy at Mispredict: 8.679
Branch type MPKI
BRANCH_DIRECT_JUMP: 0.0159
BRANCH_INDIRECT: 14.6
BRANCH_CONDITIONAL: 17.7
BRANCH_DIRECT_CALL: 0.0323
BRANCH_INDIRECT_CALL: 0.0319
BRANCH_RETURN: 0.0172

L1D TOTAL        ACCESS:   25119266 HIT:   24024885 MISS:    1094381
L1D LOAD         ACCESS:   16348524 HIT:   15946740 MISS:     401784
L1D RFO          ACCESS:          0 HIT:          0 MISS:          0
L1D PREFETCH     ACCESS:          0 HIT:          0 MISS:          0
L1D WRITE        ACCESS:    8763223 HIT:    8077667 MISS:     685556
L1D TRANSLATION  ACCESS:       7519 HIT:        478 MISS:       7041
L1D PREFETCH REQUESTED:          0 ISSUED:          0 USEFUL:          0 USELESS:          0
L1D AVERAGE MISS LATENCY: 15.87 cycles
L1I TOTAL        ACCESS:    8187551 HIT:    7161292 MISS:    1026259
L1I LOAD         ACCESS:    8187551 HIT:    7161292 MISS:    1026259
L1I RFO          ACCESS:          0 HIT:          0 MISS:          0
L1I PREFETCH     ACCESS:          0 HIT:          0 MISS:          0
L1I WRITE        ACCESS:          0 HIT:          0 MISS:          0
L1I TRANSLATION  ACCESS:          0 HIT:          0 MISS:          0
L1I PREFETCH REQUESTED:          0 ISSUED:          0 USEFUL:          0 USELESS:          0
L1I AVERAGE MISS LATENCY: 8.5 cycles
L2C TOTAL        ACCESS:    1440678 HIT:    1274319 MISS:     166359
L2C LOAD         ACCESS:     980428 HIT:     864869 MISS:     115559
L2C RFO          ACCESS:     204269 HIT:     165532 MISS:      38737
L2C PREFETCH     ACCESS:          0 HIT:          0 MISS:          0
L2C WRITE        ACCESS:     248961 HIT:     241303 MISS:       7658
L2C TRANSLATION  ACCESS:       7020 HIT:       2615 MISS:       4405
L2C PREFETCH REQUESTED:          0 ISSUED:          0 USEFUL:          0 USELESS:          0
L2C AVERAGE MISS LATENCY: 92.89 cycles
LLC TOTAL        ACCESS:     225811 HIT:     155498 MISS:      70313
LLC LOAD         ACCESS:     115559 HIT:      73299 MISS:      42260
LLC RFO          ACCESS:      38737 HIT:      28410 MISS:      10327
LLC PREFETCH     ACCESS:          0 HIT:          0 MISS:          0
LLC WRITE        ACCESS:      67110 HIT:      50820 MISS:      16290
LLC TRANSLATION  ACCESS:       4405 HIT:       2969 MISS:       1436
LLC PREFETCH REQUESTED:          0 ISSUED:          0 USEFUL:          0 USELESS:          0
LLC AVERAGE MISS LATENCY: 173.8 cycles
cpu0_DTLB TOTAL        ACCESS:   20948063 HIT:   20832457 MISS:     115606
cpu0_DTLB LOAD         ACCESS:   20948063 HIT:   20832457 MISS:     115606
cpu0_DTLB RFO          ACCESS:          0 HIT:          0 MISS:          0
cpu0_DTLB PREFETCH     ACCESS:          0 HIT:          0 MISS:          0
cpu0_DTLB WRITE        ACCESS:          0 HIT:          0 MISS:          0
cpu0_DTLB TRANSLATION  ACCESS:          0 HIT:          0 MISS:          0
cpu0_DTLB PREFETCH REQUESTED:          0 ISSUED:          0 USEFUL:          0 USELESS:          0
cpu0_DTLB AVERAGE MISS LATENCY: 7.434 cycles
cpu0_ITLB TOTAL        ACCESS:    7169259 HIT:    7154776 MISS:      14483
cpu0_ITLB LOAD         ACCESS:    7169259 HIT:    7154776 MISS:      14483
cpu0_ITLB RFO          ACCESS:          0 HIT:          0 MISS:          0
cpu0_ITLB PREFETCH     ACCESS:          0 HIT:          0 MISS:          0
cpu0_ITLB WRITE        ACCESS:          0 HIT:          0 MISS:          0
cpu0_ITLB TRANSLATION  ACCESS:          0 HIT:          0 MISS:          0
cpu0_ITLB PREFETCH REQUESTED:          0 ISSUED:          0 USEFUL:          0 USELESS:          0
cpu0_ITLB AVERAGE MISS LATENCY: 7.71 cycles
cpu0_STLB TOTAL        ACCESS:      65154 HIT:      57744 MISS:       7410
cpu0_STLB LOAD         ACCESS:      65154 HIT:      57744 MISS:       7410
cpu0_STLB RFO          ACCESS:          0 HIT:          0 MISS:          0
cpu0_STLB PREFETCH     ACCESS:          0 HIT:          0 MISS:          0
cpu0_STLB WRITE        ACCESS:          0 HIT:          0 MISS:          0
cpu0_STLB TRANSLATION  ACCESS:          0 HIT:          0 MISS:          0
cpu0_STLB PREFETCH REQUESTED:          0 ISSUED:          0 USEFUL:          0 USELESS:          0
cpu0_STLB AVERAGE MISS LATENCY: 75.77 cycles

DRAM Statistics

Channel 0 RQ ROW_BUFFER_HIT:      11551
  ROW_BUFFER_MISS:      42460
 AVG DBUS CONGESTED CYCLE: 3.92
WQ ROW_BUFFER_HIT: Channel 0 
  ROW_BUFFER_MISS:       3763
  FULL:      23720
