WARNING: physical memory size is smaller than virtual memory size.

*** ChampSim Multicore Out-of-Order Simulator ***
Warmup Instructions: 25000000
Simulation Instructions: 100000000
Number of CPUs: 1
Page size: 4096

[L1D] Demand IPV: 1 2 2 1 4 Prefetch IPV: 1 2 1 1 4
[L1I] Demand IPV: 1 2 2 1 4 Prefetch IPV: 1 2 1 1 4
[L2C] Demand IPV: 1 2 2 1 4 Prefetch IPV: 1 2 1 1 4
[LLC] Demand IPV: 1 2 2 1 4 Prefetch IPV: 1 2 1 1 4
Off-chip DRAM Size: 4 GiB Channels: 1 Width: 64-bit Data Race: 3200 MT/s
Heartbeat CPU 0 instructions: 10000002 cycles: 2501969 heartbeat IPC: 3.997 cumulative IPC: 3.997 (Simulation time: 00 hr 00 min 20 sec)
Heartbeat CPU 0 instructions: 20000000 cycles: 5010904 heartbeat IPC: 3.986 cumulative IPC: 3.991 (Simulation time: 00 hr 00 min 40 sec)
Warmup finished CPU 0 instructions: 25000001 cycles: 6263361 cumulative IPC: 3.991 (Simulation time: 00 hr 00 min 51 sec)
Warmup complete CPU 0 instructions: 25000001 cycles: 6263361 cumulative IPC: 3.991 (Simulation time: 00 hr 00 min 51 sec)
Heartbeat CPU 0 instructions: 30000000 cycles: 12430929 heartbeat IPC: 1.348 cumulative IPC: 0.8107 (Simulation time: 00 hr 01 min 17 sec)
Heartbeat CPU 0 instructions: 40000002 cycles: 19282000 heartbeat IPC: 1.46 cumulative IPC: 1.152 (Simulation time: 00 hr 01 min 52 sec)
Heartbeat CPU 0 instructions: 50000000 cycles: 24232500 heartbeat IPC: 2.02 cumulative IPC: 1.391 (Simulation time: 00 hr 02 min 21 sec)
Heartbeat CPU 0 instructions: 60000000 cycles: 29030134 heartbeat IPC: 2.084 cumulative IPC: 1.537 (Simulation time: 00 hr 02 min 49 sec)
Heartbeat CPU 0 instructions: 70000000 cycles: 33936705 heartbeat IPC: 2.038 cumulative IPC: 1.626 (Simulation time: 00 hr 03 min 18 sec)
Heartbeat CPU 0 instructions: 80000000 cycles: 41851092 heartbeat IPC: 1.264 cumulative IPC: 1.545 (Simulation time: 00 hr 03 min 56 sec)
Heartbeat CPU 0 instructions: 90000002 cycles: 53066996 heartbeat IPC: 0.8916 cumulative IPC: 1.389 (Simulation time: 00 hr 04 min 45 sec)
Heartbeat CPU 0 instructions: 100000004 cycles: 63199607 heartbeat IPC: 0.9869 cumulative IPC: 1.317 (Simulation time: 00 hr 05 min 31 sec)
*** Reached end of trace: (0, "../traces/secret_traces/compute_int/compute_int_916.champsimtrace.xz")
Heartbeat CPU 0 instructions: 110000000 cycles: 71399649 heartbeat IPC: 1.22 cumulative IPC: 1.305 (Simulation time: 00 hr 06 min 11 sec)
Heartbeat CPU 0 instructions: 120000004 cycles: 82839297 heartbeat IPC: 0.8742 cumulative IPC: 1.241 (Simulation time: 00 hr 07 min 00 sec)
Simulation finished CPU 0 instructions: 100000001 cycles: 81610982 cumulative IPC: 1.225 (Simulation time: 00 hr 07 min 23 sec)
Simulation complete CPU 0 instructions: 100000001 cycles: 81610982 cumulative IPC: 1.225 (Simulation time: 00 hr 07 min 23 sec)

ChampSim completed all CPUs

=== Simulation ===
CPU 0 runs ../traces/secret_traces/compute_int/compute_int_916.champsimtrace.xz
Region of Interest Statistics

CPU 0 cumulative IPC: 1.225 instructions: 100000001 cycles: 81610982
CPU 0 Branch Prediction Accuracy: 89% MPKI: 21.69 Average ROB Occupancy at Mispredict: 14.66
Branch type MPKI
BRANCH_DIRECT_JUMP: 0.0231
BRANCH_INDIRECT: 11.1
BRANCH_CONDITIONAL: 9.03
BRANCH_DIRECT_CALL: 0.0375
BRANCH_INDIRECT_CALL: 1.46
BRANCH_RETURN: 0.0192

L1D TOTAL        ACCESS:   30928117 HIT:   30103351 MISS:     824766
L1D LOAD         ACCESS:   18796811 HIT:   18116194 MISS:     680617
L1D RFO          ACCESS:          0 HIT:          0 MISS:          0
L1D PREFETCH     ACCESS:          0 HIT:          0 MISS:          0
L1D WRITE        ACCESS:   12115726 HIT:   11986383 MISS:     129343
L1D TRANSLATION  ACCESS:      15580 HIT:        774 MISS:      14806
L1D PREFETCH REQUESTED:          0 ISSUED:          0 USEFUL:          0 USELESS:          0
L1D AVERAGE MISS LATENCY: 38.45 cycles
L1I TOTAL        ACCESS:    4114060 HIT:    3568000 MISS:     546060
L1I LOAD         ACCESS:    4114060 HIT:    3568000 MISS:     546060
L1I RFO          ACCESS:          0 HIT:          0 MISS:          0
L1I PREFETCH     ACCESS:          0 HIT:          0 MISS:          0
L1I WRITE        ACCESS:          0 HIT:          0 MISS:          0
L1I TRANSLATION  ACCESS:          0 HIT:          0 MISS:          0
L1I PREFETCH REQUESTED:          0 ISSUED:          0 USEFUL:          0 USELESS:          0
L1I AVERAGE MISS LATENCY: 11.56 cycles
L2C TOTAL        ACCESS:    1082119 HIT:     814683 MISS:     267436
L2C LOAD         ACCESS:     883941 HIT:     655611 MISS:     228330
L2C RFO          ACCESS:      48532 HIT:      31129 MISS:      17403
L2C PREFETCH     ACCESS:          0 HIT:          0 MISS:          0
L2C WRITE        ACCESS:     134865 HIT:     124806 MISS:      10059
L2C TRANSLATION  ACCESS:      14781 HIT:       3137 MISS:      11644
L2C PREFETCH REQUESTED:          0 ISSUED:          0 USEFUL:          0 USELESS:          0
L2C AVERAGE MISS LATENCY: 111.7 cycles
LLC TOTAL        ACCESS:     302514 HIT:     140998 MISS:     161516
LLC LOAD         ACCESS:     228330 HIT:      93460 MISS:     134870
LLC RFO          ACCESS:      17403 HIT:      10625 MISS:       6778
LLC PREFETCH     ACCESS:          0 HIT:          0 MISS:          0
LLC WRITE        ACCESS:      45137 HIT:      34177 MISS:      10960
LLC TRANSLATION  ACCESS:      11644 HIT:       2736 MISS:       8908
LLC PREFETCH REQUESTED:          0 ISSUED:          0 USEFUL:          0 USELESS:          0
LLC AVERAGE MISS LATENCY: 152.2 cycles
cpu0_DTLB TOTAL        ACCESS:   24826654 HIT:   24174796 MISS:     651858
cpu0_DTLB LOAD         ACCESS:   24826654 HIT:   24174796 MISS:     651858
cpu0_DTLB RFO          ACCESS:          0 HIT:          0 MISS:          0
cpu0_DTLB PREFETCH     ACCESS:          0 HIT:          0 MISS:          0
cpu0_DTLB WRITE        ACCESS:          0 HIT:          0 MISS:          0
cpu0_DTLB TRANSLATION  ACCESS:          0 HIT:          0 MISS:          0
cpu0_DTLB PREFETCH REQUESTED:          0 ISSUED:          0 USEFUL:          0 USELESS:          0
cpu0_DTLB AVERAGE MISS LATENCY: 8.838 cycles
cpu0_ITLB TOTAL        ACCESS:    3660844 HIT:    3571170 MISS:      89674
cpu0_ITLB LOAD         ACCESS:    3660844 HIT:    3571170 MISS:      89674
cpu0_ITLB RFO          ACCESS:          0 HIT:          0 MISS:          0
cpu0_ITLB PREFETCH     ACCESS:          0 HIT:          0 MISS:          0
cpu0_ITLB WRITE        ACCESS:          0 HIT:          0 MISS:          0
cpu0_ITLB TRANSLATION  ACCESS:          0 HIT:          0 MISS:          0
cpu0_ITLB PREFETCH REQUESTED:          0 ISSUED:          0 USEFUL:          0 USELESS:          0
cpu0_ITLB AVERAGE MISS LATENCY: 4.214 cycles
cpu0_STLB TOTAL        ACCESS:     541126 HIT:     527643 MISS:      13483
cpu0_STLB LOAD         ACCESS:     541126 HIT:     527643 MISS:      13483
cpu0_STLB RFO          ACCESS:          0 HIT:          0 MISS:          0
cpu0_STLB PREFETCH     ACCESS:          0 HIT:          0 MISS:          0
cpu0_STLB WRITE        ACCESS:          0 HIT:          0 MISS:          0
cpu0_STLB TRANSLATION  ACCESS:          0 HIT:          0 MISS:          0
cpu0_STLB PREFETCH REQUESTED:          0 ISSUED:          0 USEFUL:          0 USELESS:          0
cpu0_STLB AVERAGE MISS LATENCY: 176.2 cycles

DRAM Statistics

Channel 0 RQ ROW_BUFFER_HIT:      35570
  ROW_BUFFER_MISS:     114982
 AVG DBUS CONGESTED CYCLE: 3.732
WQ ROW_BUFFER_HIT: Channel 0 
  ROW_BUFFER_MISS:       7662
  FULL:       8844
