WARNING: physical memory size is smaller than virtual memory size.

*** ChampSim Multicore Out-of-Order Simulator ***
Warmup Instructions: 25000000
Simulation Instructions: 100000000
Number of CPUs: 1
Page size: 4096

[L1D] Demand IPV: 1 2 2 1 4 Prefetch IPV: 1 2 1 1 4
[L1I] Demand IPV: 1 2 2 1 4 Prefetch IPV: 1 2 1 1 4
[L2C] Demand IPV: 1 2 2 1 4 Prefetch IPV: 1 2 1 1 4
[LLC] Demand IPV: 1 2 2 1 4 Prefetch IPV: 1 2 1 1 4
Off-chip DRAM Size: 4 GiB Channels: 1 Width: 64-bit Data Race: 3200 MT/s
Heartbeat CPU 0 instructions: 10000000 cycles: 2510049 heartbeat IPC: 3.984 cumulative IPC: 3.984 (Simulation time: 00 hr 00 min 18 sec)
Heartbeat CPU 0 instructions: 20000000 cycles: 5019267 heartbeat IPC: 3.985 cumulative IPC: 3.985 (Simulation time: 00 hr 00 min 37 sec)
Warmup finished CPU 0 instructions: 25000000 cycles: 6274840 cumulative IPC: 3.984 (Simulation time: 00 hr 00 min 46 sec)
Warmup complete CPU 0 instructions: 25000000 cycles: 6274840 cumulative IPC: 3.984 (Simulation time: 00 hr 00 min 46 sec)
Heartbeat CPU 0 instructions: 30000003 cycles: 9780123 heartbeat IPC: 2.1 cumulative IPC: 1.426 (Simulation time: 00 hr 01 min 03 sec)
Heartbeat CPU 0 instructions: 40000000 cycles: 15668555 heartbeat IPC: 1.698 cumulative IPC: 1.597 (Simulation time: 00 hr 01 min 40 sec)
Heartbeat CPU 0 instructions: 50000000 cycles: 21297908 heartbeat IPC: 1.776 cumulative IPC: 1.664 (Simulation time: 00 hr 02 min 11 sec)
Heartbeat CPU 0 instructions: 60000001 cycles: 27027498 heartbeat IPC: 1.745 cumulative IPC: 1.687 (Simulation time: 00 hr 02 min 41 sec)
Heartbeat CPU 0 instructions: 70000003 cycles: 31864704 heartbeat IPC: 2.067 cumulative IPC: 1.759 (Simulation time: 00 hr 03 min 08 sec)
Heartbeat CPU 0 instructions: 80000002 cycles: 37545852 heartbeat IPC: 1.76 cumulative IPC: 1.759 (Simulation time: 00 hr 03 min 38 sec)
Heartbeat CPU 0 instructions: 90000003 cycles: 43205681 heartbeat IPC: 1.767 cumulative IPC: 1.76 (Simulation time: 00 hr 04 min 08 sec)
Heartbeat CPU 0 instructions: 100000002 cycles: 48845828 heartbeat IPC: 1.773 cumulative IPC: 1.762 (Simulation time: 00 hr 04 min 38 sec)
Heartbeat CPU 0 instructions: 110000000 cycles: 53318675 heartbeat IPC: 2.236 cumulative IPC: 1.807 (Simulation time: 00 hr 05 min 05 sec)
*** Reached end of trace: (0, "../traces/secret_traces/compute_int/compute_int_511.champsimtrace.xz")
Heartbeat CPU 0 instructions: 120000002 cycles: 59562687 heartbeat IPC: 1.602 cumulative IPC: 1.783 (Simulation time: 00 hr 05 min 37 sec)
Simulation finished CPU 0 instructions: 100000000 cycles: 56943716 cumulative IPC: 1.756 (Simulation time: 00 hr 05 min 54 sec)
Simulation complete CPU 0 instructions: 100000000 cycles: 56943716 cumulative IPC: 1.756 (Simulation time: 00 hr 05 min 54 sec)

ChampSim completed all CPUs

=== Simulation ===
CPU 0 runs ../traces/secret_traces/compute_int/compute_int_511.champsimtrace.xz
Region of Interest Statistics

CPU 0 cumulative IPC: 1.756 instructions: 100000000 cycles: 56943716
CPU 0 Branch Prediction Accuracy: 88.16% MPKI: 20.07 Average ROB Occupancy at Mispredict: 18.29
Branch type MPKI
BRANCH_DIRECT_JUMP: 0.00027
BRANCH_INDIRECT: 1.6
BRANCH_CONDITIONAL: 18.5
BRANCH_DIRECT_CALL: 3e-05
BRANCH_INDIRECT_CALL: 0.0009
BRANCH_RETURN: 8e-05

L1D TOTAL        ACCESS:   29230761 HIT:   27692426 MISS:    1538335
L1D LOAD         ACCESS:   17251725 HIT:   16108199 MISS:    1143526
L1D RFO          ACCESS:          0 HIT:          0 MISS:          0
L1D PREFETCH     ACCESS:          0 HIT:          0 MISS:          0
L1D WRITE        ACCESS:   11978621 HIT:   11584086 MISS:     394535
L1D TRANSLATION  ACCESS:        415 HIT:        141 MISS:        274
L1D PREFETCH REQUESTED:          0 ISSUED:          0 USEFUL:          0 USELESS:          0
L1D AVERAGE MISS LATENCY: 20.62 cycles
L1I TOTAL        ACCESS:      12203 HIT:       9799 MISS:       2404
L1I LOAD         ACCESS:      12203 HIT:       9799 MISS:       2404
L1I RFO          ACCESS:          0 HIT:          0 MISS:          0
L1I PREFETCH     ACCESS:          0 HIT:          0 MISS:          0
L1I WRITE        ACCESS:          0 HIT:          0 MISS:          0
L1I TRANSLATION  ACCESS:          0 HIT:          0 MISS:          0
L1I PREFETCH REQUESTED:          0 ISSUED:          0 USEFUL:          0 USELESS:          0
L1I AVERAGE MISS LATENCY: 92.24 cycles
L2C TOTAL        ACCESS:     900505 HIT:     529767 MISS:     370738
L2C LOAD         ACCESS:     731637 HIT:     419673 MISS:     311964
L2C RFO          ACCESS:      58782 HIT:      15494 MISS:      43288
L2C PREFETCH     ACCESS:          0 HIT:          0 MISS:          0
L2C WRITE        ACCESS:     109812 HIT:      94376 MISS:      15436
L2C TRANSLATION  ACCESS:        274 HIT:        224 MISS:         50
L2C PREFETCH REQUESTED:          0 ISSUED:          0 USEFUL:          0 USELESS:          0
L2C AVERAGE MISS LATENCY: 77.32 cycles
LLC TOTAL        ACCESS:     432547 HIT:     333135 MISS:      99412
LLC LOAD         ACCESS:     311964 HIT:     269687 MISS:      42277
LLC RFO          ACCESS:      43288 HIT:      14099 MISS:      29189
LLC PREFETCH     ACCESS:          0 HIT:          0 MISS:          0
LLC WRITE        ACCESS:      77245 HIT:      49334 MISS:      27911
LLC TRANSLATION  ACCESS:         50 HIT:         15 MISS:         35
LLC PREFETCH REQUESTED:          0 ISSUED:          0 USEFUL:          0 USELESS:          0
LLC AVERAGE MISS LATENCY: 216.1 cycles
cpu0_DTLB TOTAL        ACCESS:   25477495 HIT:   24940909 MISS:     536586
cpu0_DTLB LOAD         ACCESS:   25477495 HIT:   24940909 MISS:     536586
cpu0_DTLB RFO          ACCESS:          0 HIT:          0 MISS:          0
cpu0_DTLB PREFETCH     ACCESS:          0 HIT:          0 MISS:          0
cpu0_DTLB WRITE        ACCESS:          0 HIT:          0 MISS:          0
cpu0_DTLB TRANSLATION  ACCESS:          0 HIT:          0 MISS:          0
cpu0_DTLB PREFETCH REQUESTED:          0 ISSUED:          0 USEFUL:          0 USELESS:          0
cpu0_DTLB AVERAGE MISS LATENCY: 7.914 cycles
cpu0_ITLB TOTAL        ACCESS:      10742 HIT:      10082 MISS:        660
cpu0_ITLB LOAD         ACCESS:      10742 HIT:      10082 MISS:        660
cpu0_ITLB RFO          ACCESS:          0 HIT:          0 MISS:          0
cpu0_ITLB PREFETCH     ACCESS:          0 HIT:          0 MISS:          0
cpu0_ITLB WRITE        ACCESS:          0 HIT:          0 MISS:          0
cpu0_ITLB TRANSLATION  ACCESS:          0 HIT:          0 MISS:          0
cpu0_ITLB PREFETCH REQUESTED:          0 ISSUED:          0 USEFUL:          0 USELESS:          0
cpu0_ITLB AVERAGE MISS LATENCY: 8.841 cycles
cpu0_STLB TOTAL        ACCESS:     526046 HIT:     525633 MISS:        413
cpu0_STLB LOAD         ACCESS:     526046 HIT:     525633 MISS:        413
cpu0_STLB RFO          ACCESS:          0 HIT:          0 MISS:          0
cpu0_STLB PREFETCH     ACCESS:          0 HIT:          0 MISS:          0
cpu0_STLB WRITE        ACCESS:          0 HIT:          0 MISS:          0
cpu0_STLB TRANSLATION  ACCESS:          0 HIT:          0 MISS:          0
cpu0_STLB PREFETCH REQUESTED:          0 ISSUED:          0 USEFUL:          0 USELESS:          0
cpu0_STLB AVERAGE MISS LATENCY: 297.1 cycles

DRAM Statistics

Channel 0 RQ ROW_BUFFER_HIT:      13330
  ROW_BUFFER_MISS:      58115
 AVG DBUS CONGESTED CYCLE: 3.968
WQ ROW_BUFFER_HIT: Channel 0 
  ROW_BUFFER_MISS:       5312
  FULL:      47857
