WARNING: physical memory size is smaller than virtual memory size.

*** ChampSim Multicore Out-of-Order Simulator ***
Warmup Instructions: 25000000
Simulation Instructions: 100000000
Number of CPUs: 1
Page size: 4096

[L1D] Demand IPV: 1 2 2 1 4 Prefetch IPV: 1 2 1 1 4
[L1I] Demand IPV: 1 2 2 1 4 Prefetch IPV: 1 2 1 1 4
[L2C] Demand IPV: 1 2 2 1 4 Prefetch IPV: 1 2 1 1 4
[LLC] Demand IPV: 1 2 2 1 4 Prefetch IPV: 1 2 1 1 4
Off-chip DRAM Size: 4 GiB Channels: 1 Width: 64-bit Data Race: 3200 MT/s
Heartbeat CPU 0 instructions: 10000003 cycles: 2507950 heartbeat IPC: 3.987 cumulative IPC: 3.987 (Simulation time: 00 hr 00 min 18 sec)
Heartbeat CPU 0 instructions: 20000002 cycles: 5011623 heartbeat IPC: 3.994 cumulative IPC: 3.991 (Simulation time: 00 hr 00 min 37 sec)
Warmup finished CPU 0 instructions: 25000002 cycles: 6263579 cumulative IPC: 3.991 (Simulation time: 00 hr 00 min 46 sec)
Warmup complete CPU 0 instructions: 25000002 cycles: 6263579 cumulative IPC: 3.991 (Simulation time: 00 hr 00 min 46 sec)
Heartbeat CPU 0 instructions: 30000004 cycles: 9872856 heartbeat IPC: 2.057 cumulative IPC: 1.385 (Simulation time: 00 hr 01 min 03 sec)
Heartbeat CPU 0 instructions: 40000003 cycles: 17144887 heartbeat IPC: 1.375 cumulative IPC: 1.379 (Simulation time: 00 hr 01 min 38 sec)
Heartbeat CPU 0 instructions: 50000000 cycles: 25049969 heartbeat IPC: 1.265 cumulative IPC: 1.331 (Simulation time: 00 hr 02 min 14 sec)
Heartbeat CPU 0 instructions: 60000001 cycles: 32514516 heartbeat IPC: 1.34 cumulative IPC: 1.333 (Simulation time: 00 hr 02 min 54 sec)
Heartbeat CPU 0 instructions: 70000000 cycles: 43622278 heartbeat IPC: 0.9003 cumulative IPC: 1.205 (Simulation time: 00 hr 03 min 47 sec)
Heartbeat CPU 0 instructions: 80000000 cycles: 54410267 heartbeat IPC: 0.927 cumulative IPC: 1.142 (Simulation time: 00 hr 04 min 35 sec)
*** Reached end of trace: (0, "../traces/secret_traces/compute_int/compute_int_460.champsimtrace.xz")
Heartbeat CPU 0 instructions: 90000001 cycles: 60102489 heartbeat IPC: 1.757 cumulative IPC: 1.207 (Simulation time: 00 hr 05 min 05 sec)
Heartbeat CPU 0 instructions: 100000000 cycles: 67493434 heartbeat IPC: 1.353 cumulative IPC: 1.225 (Simulation time: 00 hr 05 min 40 sec)
Heartbeat CPU 0 instructions: 110000004 cycles: 72944357 heartbeat IPC: 1.835 cumulative IPC: 1.275 (Simulation time: 00 hr 06 min 10 sec)
Heartbeat CPU 0 instructions: 120000004 cycles: 80147144 heartbeat IPC: 1.388 cumulative IPC: 1.286 (Simulation time: 00 hr 06 min 44 sec)
Simulation finished CPU 0 instructions: 100000000 cycles: 77538691 cumulative IPC: 1.29 (Simulation time: 00 hr 07 min 01 sec)
Simulation complete CPU 0 instructions: 100000000 cycles: 77538691 cumulative IPC: 1.29 (Simulation time: 00 hr 07 min 01 sec)

ChampSim completed all CPUs

=== Simulation ===
CPU 0 runs ../traces/secret_traces/compute_int/compute_int_460.champsimtrace.xz
Region of Interest Statistics

CPU 0 cumulative IPC: 1.29 instructions: 100000000 cycles: 77538691
CPU 0 Branch Prediction Accuracy: 86.85% MPKI: 25.7 Average ROB Occupancy at Mispredict: 12.4
Branch type MPKI
BRANCH_DIRECT_JUMP: 3e-05
BRANCH_INDIRECT: 2.5
BRANCH_CONDITIONAL: 23.2
BRANCH_DIRECT_CALL: 1e-05
BRANCH_INDIRECT_CALL: 0.00099
BRANCH_RETURN: 5e-05

L1D TOTAL        ACCESS:   26676040 HIT:   24577560 MISS:    2098480
L1D LOAD         ACCESS:   16371155 HIT:   14933152 MISS:    1438003
L1D RFO          ACCESS:          0 HIT:          0 MISS:          0
L1D PREFETCH     ACCESS:          0 HIT:          0 MISS:          0
L1D WRITE        ACCESS:   10303557 HIT:    9643483 MISS:     660074
L1D TRANSLATION  ACCESS:       1328 HIT:        925 MISS:        403
L1D PREFETCH REQUESTED:          0 ISSUED:          0 USEFUL:          0 USELESS:          0
L1D AVERAGE MISS LATENCY: 50.37 cycles
L1I TOTAL        ACCESS:      22341 HIT:      18881 MISS:       3460
L1I LOAD         ACCESS:      22341 HIT:      18881 MISS:       3460
L1I RFO          ACCESS:          0 HIT:          0 MISS:          0
L1I PREFETCH     ACCESS:          0 HIT:          0 MISS:          0
L1I WRITE        ACCESS:          0 HIT:          0 MISS:          0
L1I TRANSLATION  ACCESS:          0 HIT:          0 MISS:          0
L1I PREFETCH REQUESTED:          0 ISSUED:          0 USEFUL:          0 USELESS:          0
L1I AVERAGE MISS LATENCY: 78.07 cycles
L2C TOTAL        ACCESS:    1040017 HIT:     462072 MISS:     577945
L2C LOAD         ACCESS:     744928 HIT:     307273 MISS:     437655
L2C RFO          ACCESS:     119140 HIT:       9178 MISS:     109962
L2C PREFETCH     ACCESS:          0 HIT:          0 MISS:          0
L2C WRITE        ACCESS:     175547 HIT:     145304 MISS:      30243
L2C TRANSLATION  ACCESS:        402 HIT:        317 MISS:         85
L2C PREFETCH REQUESTED:          0 ISSUED:          0 USEFUL:          0 USELESS:          0
L2C AVERAGE MISS LATENCY: 184.2 cycles
LLC TOTAL        ACCESS:     705224 HIT:     339470 MISS:     365754
LLC LOAD         ACCESS:     437655 HIT:     243271 MISS:     194384
LLC RFO          ACCESS:     109962 HIT:      18163 MISS:      91799
LLC PREFETCH     ACCESS:          0 HIT:          0 MISS:          0
LLC WRITE        ACCESS:     157522 HIT:      78020 MISS:      79502
LLC TRANSLATION  ACCESS:         85 HIT:         16 MISS:         69
LLC PREFETCH REQUESTED:          0 ISSUED:          0 USEFUL:          0 USELESS:          0
LLC AVERAGE MISS LATENCY: 260.3 cycles
cpu0_DTLB TOTAL        ACCESS:   23844960 HIT:   23318327 MISS:     526633
cpu0_DTLB LOAD         ACCESS:   23844960 HIT:   23318327 MISS:     526633
cpu0_DTLB RFO          ACCESS:          0 HIT:          0 MISS:          0
cpu0_DTLB PREFETCH     ACCESS:          0 HIT:          0 MISS:          0
cpu0_DTLB WRITE        ACCESS:          0 HIT:          0 MISS:          0
cpu0_DTLB TRANSLATION  ACCESS:          0 HIT:          0 MISS:          0
cpu0_DTLB PREFETCH REQUESTED:          0 ISSUED:          0 USEFUL:          0 USELESS:          0
cpu0_DTLB AVERAGE MISS LATENCY: 8.22 cycles
cpu0_ITLB TOTAL        ACCESS:      19839 HIT:      18933 MISS:        906
cpu0_ITLB LOAD         ACCESS:      19839 HIT:      18933 MISS:        906
cpu0_ITLB RFO          ACCESS:          0 HIT:          0 MISS:          0
cpu0_ITLB PREFETCH     ACCESS:          0 HIT:          0 MISS:          0
cpu0_ITLB WRITE        ACCESS:          0 HIT:          0 MISS:          0
cpu0_ITLB TRANSLATION  ACCESS:          0 HIT:          0 MISS:          0
cpu0_ITLB PREFETCH REQUESTED:          0 ISSUED:          0 USEFUL:          0 USELESS:          0
cpu0_ITLB AVERAGE MISS LATENCY: 11.5 cycles
cpu0_STLB TOTAL        ACCESS:     506312 HIT:     504986 MISS:       1326
cpu0_STLB LOAD         ACCESS:     506312 HIT:     504986 MISS:       1326
cpu0_STLB RFO          ACCESS:          0 HIT:          0 MISS:          0
cpu0_STLB PREFETCH     ACCESS:          0 HIT:          0 MISS:          0
cpu0_STLB WRITE        ACCESS:          0 HIT:          0 MISS:          0
cpu0_STLB TRANSLATION  ACCESS:          0 HIT:          0 MISS:          0
cpu0_STLB PREFETCH REQUESTED:          0 ISSUED:          0 USEFUL:          0 USELESS:          0
cpu0_STLB AVERAGE MISS LATENCY: 332.7 cycles

DRAM Statistics

Channel 0 RQ ROW_BUFFER_HIT:      50359
  ROW_BUFFER_MISS:     235798
 AVG DBUS CONGESTED CYCLE: 3.928
WQ ROW_BUFFER_HIT: Channel 0 
  ROW_BUFFER_MISS:      11212
  FULL:      98996
