WARNING: physical memory size is smaller than virtual memory size.

*** ChampSim Multicore Out-of-Order Simulator ***
Warmup Instructions: 25000000
Simulation Instructions: 100000000
Number of CPUs: 1
Page size: 4096

[L1D] Demand IPV: 1 2 2 1 4 Prefetch IPV: 1 2 1 1 4
[L1I] Demand IPV: 1 2 2 1 4 Prefetch IPV: 1 2 1 1 4
[L2C] Demand IPV: 1 2 2 1 4 Prefetch IPV: 1 2 1 1 4
[LLC] Demand IPV: 1 2 2 1 4 Prefetch IPV: 1 2 1 1 4
Off-chip DRAM Size: 4 GiB Channels: 1 Width: 64-bit Data Race: 3200 MT/s
Heartbeat CPU 0 instructions: 10000001 cycles: 2500131 heartbeat IPC: 4 cumulative IPC: 4 (Simulation time: 00 hr 00 min 19 sec)
Heartbeat CPU 0 instructions: 20000001 cycles: 5006910 heartbeat IPC: 3.989 cumulative IPC: 3.994 (Simulation time: 00 hr 00 min 40 sec)
Warmup finished CPU 0 instructions: 25000003 cycles: 6260844 cumulative IPC: 3.993 (Simulation time: 00 hr 00 min 50 sec)
Warmup complete CPU 0 instructions: 25000003 cycles: 6260844 cumulative IPC: 3.993 (Simulation time: 00 hr 00 min 50 sec)
Heartbeat CPU 0 instructions: 30000001 cycles: 13703949 heartbeat IPC: 1.15 cumulative IPC: 0.6718 (Simulation time: 00 hr 01 min 20 sec)
Heartbeat CPU 0 instructions: 40000003 cycles: 24461946 heartbeat IPC: 0.9295 cumulative IPC: 0.8241 (Simulation time: 00 hr 02 min 06 sec)
Heartbeat CPU 0 instructions: 50000004 cycles: 34073467 heartbeat IPC: 1.04 cumulative IPC: 0.8989 (Simulation time: 00 hr 02 min 50 sec)
Heartbeat CPU 0 instructions: 60000002 cycles: 46739272 heartbeat IPC: 0.7895 cumulative IPC: 0.8647 (Simulation time: 00 hr 03 min 43 sec)
Heartbeat CPU 0 instructions: 70000002 cycles: 55897460 heartbeat IPC: 1.092 cumulative IPC: 0.9066 (Simulation time: 00 hr 04 min 25 sec)
Heartbeat CPU 0 instructions: 80000002 cycles: 65102804 heartbeat IPC: 1.086 cumulative IPC: 0.9347 (Simulation time: 00 hr 05 min 10 sec)
Heartbeat CPU 0 instructions: 90000001 cycles: 76013786 heartbeat IPC: 0.9165 cumulative IPC: 0.9319 (Simulation time: 00 hr 05 min 59 sec)
Heartbeat CPU 0 instructions: 100000003 cycles: 85925006 heartbeat IPC: 1.009 cumulative IPC: 0.9415 (Simulation time: 00 hr 06 min 42 sec)
*** Reached end of trace: (0, "../traces/secret_traces/compute_int/compute_int_706.champsimtrace.xz")
Heartbeat CPU 0 instructions: 110000004 cycles: 91569613 heartbeat IPC: 1.772 cumulative IPC: 0.9964 (Simulation time: 00 hr 07 min 15 sec)
Heartbeat CPU 0 instructions: 120000004 cycles: 100328644 heartbeat IPC: 1.142 cumulative IPC: 1.01 (Simulation time: 00 hr 07 min 56 sec)
Simulation finished CPU 0 instructions: 100000000 cycles: 99415318 cumulative IPC: 1.006 (Simulation time: 00 hr 08 min 19 sec)
Simulation complete CPU 0 instructions: 100000000 cycles: 99415318 cumulative IPC: 1.006 (Simulation time: 00 hr 08 min 19 sec)

ChampSim completed all CPUs

=== Simulation ===
CPU 0 runs ../traces/secret_traces/compute_int/compute_int_706.champsimtrace.xz
Region of Interest Statistics

CPU 0 cumulative IPC: 1.006 instructions: 100000000 cycles: 99415318
CPU 0 Branch Prediction Accuracy: 87.49% MPKI: 24.35 Average ROB Occupancy at Mispredict: 19.46
Branch type MPKI
BRANCH_DIRECT_JUMP: 0.299
BRANCH_INDIRECT: 9.33
BRANCH_CONDITIONAL: 12
BRANCH_DIRECT_CALL: 0.365
BRANCH_INDIRECT_CALL: 2.07
BRANCH_RETURN: 0.246

L1D TOTAL        ACCESS:   30024709 HIT:   28572272 MISS:    1452437
L1D LOAD         ACCESS:   20822026 HIT:   19950828 MISS:     871198
L1D RFO          ACCESS:          0 HIT:          0 MISS:          0
L1D PREFETCH     ACCESS:          0 HIT:          0 MISS:          0
L1D WRITE        ACCESS:    9177152 HIT:    8619832 MISS:     557320
L1D TRANSLATION  ACCESS:      25531 HIT:       1612 MISS:      23919
L1D PREFETCH REQUESTED:          0 ISSUED:          0 USEFUL:          0 USELESS:          0
L1D AVERAGE MISS LATENCY: 26.65 cycles
L1I TOTAL        ACCESS:    6159796 HIT:    4550487 MISS:    1609309
L1I LOAD         ACCESS:    6159796 HIT:    4550487 MISS:    1609309
L1I RFO          ACCESS:          0 HIT:          0 MISS:          0
L1I PREFETCH     ACCESS:          0 HIT:          0 MISS:          0
L1I WRITE        ACCESS:          0 HIT:          0 MISS:          0
L1I TRANSLATION  ACCESS:          0 HIT:          0 MISS:          0
L1I PREFETCH REQUESTED:          0 ISSUED:          0 USEFUL:          0 USELESS:          0
L1I AVERAGE MISS LATENCY: 20.09 cycles
L2C TOTAL        ACCESS:    2267863 HIT:    1735158 MISS:     532705
L2C LOAD         ACCESS:    1754737 HIT:    1359651 MISS:     395086
L2C RFO          ACCESS:     160854 HIT:      78690 MISS:      82164
L2C PREFETCH     ACCESS:          0 HIT:          0 MISS:          0
L2C WRITE        ACCESS:     328411 HIT:     293575 MISS:      34836
L2C TRANSLATION  ACCESS:      23861 HIT:       3242 MISS:      20619
L2C PREFETCH REQUESTED:          0 ISSUED:          0 USEFUL:          0 USELESS:          0
L2C AVERAGE MISS LATENCY: 102.9 cycles
LLC TOTAL        ACCESS:     655625 HIT:     344981 MISS:     310644
LLC LOAD         ACCESS:     395086 HIT:     207156 MISS:     187930
LLC RFO          ACCESS:      82164 HIT:      30112 MISS:      52052
LLC PREFETCH     ACCESS:          0 HIT:          0 MISS:          0
LLC WRITE        ACCESS:     157756 HIT:     102150 MISS:      55606
LLC TRANSLATION  ACCESS:      20619 HIT:       5563 MISS:      15056
LLC PREFETCH REQUESTED:          0 ISSUED:          0 USEFUL:          0 USELESS:          0
LLC AVERAGE MISS LATENCY: 143.5 cycles
cpu0_DTLB TOTAL        ACCESS:   24017357 HIT:   23532932 MISS:     484425
cpu0_DTLB LOAD         ACCESS:   24017357 HIT:   23532932 MISS:     484425
cpu0_DTLB RFO          ACCESS:          0 HIT:          0 MISS:          0
cpu0_DTLB PREFETCH     ACCESS:          0 HIT:          0 MISS:          0
cpu0_DTLB WRITE        ACCESS:          0 HIT:          0 MISS:          0
cpu0_DTLB TRANSLATION  ACCESS:          0 HIT:          0 MISS:          0
cpu0_DTLB PREFETCH REQUESTED:          0 ISSUED:          0 USEFUL:          0 USELESS:          0
cpu0_DTLB AVERAGE MISS LATENCY: 10.56 cycles
cpu0_ITLB TOTAL        ACCESS:    5402819 HIT:    5015145 MISS:     387674
cpu0_ITLB LOAD         ACCESS:    5402819 HIT:    5015145 MISS:     387674
cpu0_ITLB RFO          ACCESS:          0 HIT:          0 MISS:          0
cpu0_ITLB PREFETCH     ACCESS:          0 HIT:          0 MISS:          0
cpu0_ITLB WRITE        ACCESS:          0 HIT:          0 MISS:          0
cpu0_ITLB TRANSLATION  ACCESS:          0 HIT:          0 MISS:          0
cpu0_ITLB PREFETCH REQUESTED:          0 ISSUED:          0 USEFUL:          0 USELESS:          0
cpu0_ITLB AVERAGE MISS LATENCY: 5.951 cycles
cpu0_STLB TOTAL        ACCESS:     496026 HIT:     472343 MISS:      23683
cpu0_STLB LOAD         ACCESS:     496026 HIT:     472343 MISS:      23683
cpu0_STLB RFO          ACCESS:          0 HIT:          0 MISS:          0
cpu0_STLB PREFETCH     ACCESS:          0 HIT:          0 MISS:          0
cpu0_STLB WRITE        ACCESS:          0 HIT:          0 MISS:          0
cpu0_STLB TRANSLATION  ACCESS:          0 HIT:          0 MISS:          0
cpu0_STLB PREFETCH REQUESTED:          0 ISSUED:          0 USEFUL:          0 USELESS:          0
cpu0_STLB AVERAGE MISS LATENCY: 184.3 cycles

DRAM Statistics

Channel 0 RQ ROW_BUFFER_HIT:      62197
  ROW_BUFFER_MISS:     192826
 AVG DBUS CONGESTED CYCLE: 3.923
WQ ROW_BUFFER_HIT: Channel 0 
  ROW_BUFFER_MISS:      28082
  FULL:      75117
