WARNING: physical memory size is smaller than virtual memory size.

*** ChampSim Multicore Out-of-Order Simulator ***
Warmup Instructions: 25000000
Simulation Instructions: 100000000
Number of CPUs: 1
Page size: 4096

[L1D] Demand IPV: 1 2 2 1 4 Prefetch IPV: 1 2 1 1 4
[L1I] Demand IPV: 1 2 2 1 4 Prefetch IPV: 1 2 1 1 4
[L2C] Demand IPV: 1 2 2 1 4 Prefetch IPV: 1 2 1 1 4
[LLC] Demand IPV: 1 2 2 1 4 Prefetch IPV: 1 2 1 1 4
Off-chip DRAM Size: 4 GiB Channels: 1 Width: 64-bit Data Race: 3200 MT/s
Heartbeat CPU 0 instructions: 10000000 cycles: 2605077 heartbeat IPC: 3.839 cumulative IPC: 3.839 (Simulation time: 00 hr 00 min 19 sec)
Heartbeat CPU 0 instructions: 20000003 cycles: 5175548 heartbeat IPC: 3.89 cumulative IPC: 3.864 (Simulation time: 00 hr 00 min 39 sec)
Warmup finished CPU 0 instructions: 25000001 cycles: 6453398 cumulative IPC: 3.874 (Simulation time: 00 hr 00 min 49 sec)
Warmup complete CPU 0 instructions: 25000001 cycles: 6453398 cumulative IPC: 3.874 (Simulation time: 00 hr 00 min 49 sec)
Heartbeat CPU 0 instructions: 30000004 cycles: 13669388 heartbeat IPC: 1.177 cumulative IPC: 0.6929 (Simulation time: 00 hr 01 min 23 sec)
Heartbeat CPU 0 instructions: 40000000 cycles: 27926658 heartbeat IPC: 0.7014 cumulative IPC: 0.6985 (Simulation time: 00 hr 02 min 29 sec)
Heartbeat CPU 0 instructions: 50000001 cycles: 40529719 heartbeat IPC: 0.7935 cumulative IPC: 0.7336 (Simulation time: 00 hr 03 min 29 sec)
Heartbeat CPU 0 instructions: 60000001 cycles: 53464881 heartbeat IPC: 0.7731 cumulative IPC: 0.7445 (Simulation time: 00 hr 04 min 32 sec)
Heartbeat CPU 0 instructions: 70000001 cycles: 64679235 heartbeat IPC: 0.8917 cumulative IPC: 0.7729 (Simulation time: 00 hr 05 min 28 sec)
Heartbeat CPU 0 instructions: 80000000 cycles: 74732940 heartbeat IPC: 0.9947 cumulative IPC: 0.8055 (Simulation time: 00 hr 06 min 20 sec)
Heartbeat CPU 0 instructions: 90000003 cycles: 85676739 heartbeat IPC: 0.9138 cumulative IPC: 0.8205 (Simulation time: 00 hr 07 min 15 sec)
Heartbeat CPU 0 instructions: 100000001 cycles: 98120459 heartbeat IPC: 0.8036 cumulative IPC: 0.8182 (Simulation time: 00 hr 08 min 15 sec)
*** Reached end of trace: (0, "../traces/secret_traces/compute_fp/compute_fp_94.champsimtrace.xz")
Heartbeat CPU 0 instructions: 110000003 cycles: 112840925 heartbeat IPC: 0.6793 cumulative IPC: 0.799 (Simulation time: 00 hr 09 min 22 sec)
Heartbeat CPU 0 instructions: 120000000 cycles: 125231576 heartbeat IPC: 0.8071 cumulative IPC: 0.7998 (Simulation time: 00 hr 10 min 22 sec)
Simulation finished CPU 0 instructions: 100000003 cycles: 124938308 cumulative IPC: 0.8004 (Simulation time: 00 hr 10 min 51 sec)
Simulation complete CPU 0 instructions: 100000003 cycles: 124938308 cumulative IPC: 0.8004 (Simulation time: 00 hr 10 min 51 sec)

ChampSim completed all CPUs

=== Simulation ===
CPU 0 runs ../traces/secret_traces/compute_fp/compute_fp_94.champsimtrace.xz
Region of Interest Statistics

CPU 0 cumulative IPC: 0.8004 instructions: 100000003 cycles: 124938308
CPU 0 Branch Prediction Accuracy: 91.87% MPKI: 10.15 Average ROB Occupancy at Mispredict: 134.2
Branch type MPKI
BRANCH_DIRECT_JUMP: 0.00886
BRANCH_INDIRECT: 3.31
BRANCH_CONDITIONAL: 6.79
BRANCH_DIRECT_CALL: 0.0223
BRANCH_INDIRECT_CALL: 0.00857
BRANCH_RETURN: 0.0121

L1D TOTAL        ACCESS:   24356664 HIT:   14735311 MISS:    9621353
L1D LOAD         ACCESS:   20287768 HIT:   11115965 MISS:    9171803
L1D RFO          ACCESS:          0 HIT:          0 MISS:          0
L1D PREFETCH     ACCESS:          0 HIT:          0 MISS:          0
L1D WRITE        ACCESS:    3958273 HIT:    3586691 MISS:     371582
L1D TRANSLATION  ACCESS:     110623 HIT:      32655 MISS:      77968
L1D PREFETCH REQUESTED:          0 ISSUED:          0 USEFUL:          0 USELESS:          0
L1D AVERAGE MISS LATENCY: 44.97 cycles
L1I TOTAL        ACCESS:     105378 HIT:      76213 MISS:      29165
L1I LOAD         ACCESS:     105378 HIT:      76213 MISS:      29165
L1I RFO          ACCESS:          0 HIT:          0 MISS:          0
L1I PREFETCH     ACCESS:          0 HIT:          0 MISS:          0
L1I WRITE        ACCESS:          0 HIT:          0 MISS:          0
L1I TRANSLATION  ACCESS:          0 HIT:          0 MISS:          0
L1I PREFETCH REQUESTED:          0 ISSUED:          0 USEFUL:          0 USELESS:          0
L1I AVERAGE MISS LATENCY: 98.25 cycles
L2C TOTAL        ACCESS:    3544073 HIT:    1236510 MISS:    2307563
L2C LOAD         ACCESS:    2904567 HIT:     766242 MISS:    2138325
L2C RFO          ACCESS:     235487 HIT:     122421 MISS:     113066
L2C PREFETCH     ACCESS:          0 HIT:          0 MISS:          0
L2C WRITE        ACCESS:     327123 HIT:     301808 MISS:      25315
L2C TRANSLATION  ACCESS:      76896 HIT:      46039 MISS:      30857
L2C PREFETCH REQUESTED:          0 ISSUED:          0 USEFUL:          0 USELESS:          0
L2C AVERAGE MISS LATENCY: 234.7 cycles
LLC TOTAL        ACCESS:    2445884 HIT:     598632 MISS:    1847252
LLC LOAD         ACCESS:    2138325 HIT:     371323 MISS:    1767002
LLC RFO          ACCESS:     113066 HIT:      83291 MISS:      29775
LLC PREFETCH     ACCESS:          0 HIT:          0 MISS:          0
LLC WRITE        ACCESS:     163636 HIT:     126261 MISS:      37375
LLC TRANSLATION  ACCESS:      30857 HIT:      17757 MISS:      13100
LLC PREFETCH REQUESTED:          0 ISSUED:          0 USEFUL:          0 USELESS:          0
LLC AVERAGE MISS LATENCY: 267.4 cycles
cpu0_DTLB TOTAL        ACCESS:   19316254 HIT:   18500660 MISS:     815594
cpu0_DTLB LOAD         ACCESS:   19316254 HIT:   18500660 MISS:     815594
cpu0_DTLB RFO          ACCESS:          0 HIT:          0 MISS:          0
cpu0_DTLB PREFETCH     ACCESS:          0 HIT:          0 MISS:          0
cpu0_DTLB WRITE        ACCESS:          0 HIT:          0 MISS:          0
cpu0_DTLB TRANSLATION  ACCESS:          0 HIT:          0 MISS:          0
cpu0_DTLB PREFETCH REQUESTED:          0 ISSUED:          0 USEFUL:          0 USELESS:          0
cpu0_DTLB AVERAGE MISS LATENCY: 7.895 cycles
cpu0_ITLB TOTAL        ACCESS:      94319 HIT:      89677 MISS:       4642
cpu0_ITLB LOAD         ACCESS:      94319 HIT:      89677 MISS:       4642
cpu0_ITLB RFO          ACCESS:          0 HIT:          0 MISS:          0
cpu0_ITLB PREFETCH     ACCESS:          0 HIT:          0 MISS:          0
cpu0_ITLB WRITE        ACCESS:          0 HIT:          0 MISS:          0
cpu0_ITLB TRANSLATION  ACCESS:          0 HIT:          0 MISS:          0
cpu0_ITLB PREFETCH REQUESTED:          0 ISSUED:          0 USEFUL:          0 USELESS:          0
cpu0_ITLB AVERAGE MISS LATENCY: 33.59 cycles
cpu0_STLB TOTAL        ACCESS:     377533 HIT:     267218 MISS:     110315
cpu0_STLB LOAD         ACCESS:     377533 HIT:     267218 MISS:     110315
cpu0_STLB RFO          ACCESS:          0 HIT:          0 MISS:          0
cpu0_STLB PREFETCH     ACCESS:          0 HIT:          0 MISS:          0
cpu0_STLB WRITE        ACCESS:          0 HIT:          0 MISS:          0
cpu0_STLB TRANSLATION  ACCESS:          0 HIT:          0 MISS:          0
cpu0_STLB PREFETCH REQUESTED:          0 ISSUED:          0 USEFUL:          0 USELESS:          0
cpu0_STLB AVERAGE MISS LATENCY: 50.53 cycles

DRAM Statistics

Channel 0 RQ ROW_BUFFER_HIT:    1181991
  ROW_BUFFER_MISS:     627813
 AVG DBUS CONGESTED CYCLE: 3.93
WQ ROW_BUFFER_HIT: Channel 0 
  ROW_BUFFER_MISS:       9589
  FULL:      41223
