WARNING: physical memory size is smaller than virtual memory size.

*** ChampSim Multicore Out-of-Order Simulator ***
Warmup Instructions: 25000000
Simulation Instructions: 100000000
Number of CPUs: 1
Page size: 4096

[L1D] Demand IPV: 1 2 2 1 4 Prefetch IPV: 1 2 1 1 4
[L1I] Demand IPV: 1 2 2 1 4 Prefetch IPV: 1 2 1 1 4
[L2C] Demand IPV: 1 2 2 1 4 Prefetch IPV: 1 2 1 1 4
[LLC] Demand IPV: 1 2 2 1 4 Prefetch IPV: 1 2 1 1 4
Off-chip DRAM Size: 4 GiB Channels: 1 Width: 64-bit Data Race: 3200 MT/s
Heartbeat CPU 0 instructions: 10000000 cycles: 2508180 heartbeat IPC: 3.987 cumulative IPC: 3.987 (Simulation time: 00 hr 00 min 20 sec)
Heartbeat CPU 0 instructions: 20000001 cycles: 5017764 heartbeat IPC: 3.985 cumulative IPC: 3.986 (Simulation time: 00 hr 00 min 39 sec)
Warmup finished CPU 0 instructions: 25000000 cycles: 6268511 cumulative IPC: 3.988 (Simulation time: 00 hr 00 min 49 sec)
Warmup complete CPU 0 instructions: 25000000 cycles: 6268511 cumulative IPC: 3.988 (Simulation time: 00 hr 00 min 49 sec)
Heartbeat CPU 0 instructions: 30000002 cycles: 10558273 heartbeat IPC: 1.805 cumulative IPC: 1.166 (Simulation time: 00 hr 01 min 08 sec)
Heartbeat CPU 0 instructions: 40000001 cycles: 19288483 heartbeat IPC: 1.145 cumulative IPC: 1.152 (Simulation time: 00 hr 01 min 48 sec)
Heartbeat CPU 0 instructions: 50000003 cycles: 27956860 heartbeat IPC: 1.154 cumulative IPC: 1.153 (Simulation time: 00 hr 02 min 27 sec)
Heartbeat CPU 0 instructions: 60000000 cycles: 36535263 heartbeat IPC: 1.166 cumulative IPC: 1.156 (Simulation time: 00 hr 03 min 06 sec)
Heartbeat CPU 0 instructions: 70000003 cycles: 45189845 heartbeat IPC: 1.155 cumulative IPC: 1.156 (Simulation time: 00 hr 03 min 45 sec)
Heartbeat CPU 0 instructions: 80000000 cycles: 53902190 heartbeat IPC: 1.148 cumulative IPC: 1.155 (Simulation time: 00 hr 04 min 25 sec)
Heartbeat CPU 0 instructions: 90000000 cycles: 62691670 heartbeat IPC: 1.138 cumulative IPC: 1.152 (Simulation time: 00 hr 05 min 04 sec)
Heartbeat CPU 0 instructions: 100000004 cycles: 71168849 heartbeat IPC: 1.18 cumulative IPC: 1.156 (Simulation time: 00 hr 05 min 42 sec)
*** Reached end of trace: (0, "../traces/secret_traces/compute_int/compute_int_80.champsimtrace.xz")
Heartbeat CPU 0 instructions: 110000000 cycles: 79833157 heartbeat IPC: 1.154 cumulative IPC: 1.155 (Simulation time: 00 hr 06 min 22 sec)
Heartbeat CPU 0 instructions: 120000001 cycles: 89225664 heartbeat IPC: 1.065 cumulative IPC: 1.145 (Simulation time: 00 hr 07 min 03 sec)
Simulation finished CPU 0 instructions: 100000001 cycles: 87568983 cumulative IPC: 1.142 (Simulation time: 00 hr 07 min 23 sec)
Simulation complete CPU 0 instructions: 100000001 cycles: 87568983 cumulative IPC: 1.142 (Simulation time: 00 hr 07 min 23 sec)

ChampSim completed all CPUs

=== Simulation ===
CPU 0 runs ../traces/secret_traces/compute_int/compute_int_80.champsimtrace.xz
Region of Interest Statistics

CPU 0 cumulative IPC: 1.142 instructions: 100000001 cycles: 87568983
CPU 0 Branch Prediction Accuracy: 80.02% MPKI: 34.17 Average ROB Occupancy at Mispredict: 8.218
Branch type MPKI
BRANCH_DIRECT_JUMP: 0.02
BRANCH_INDIRECT: 13.8
BRANCH_CONDITIONAL: 20.3
BRANCH_DIRECT_CALL: 0.0354
BRANCH_INDIRECT_CALL: 0.026
BRANCH_RETURN: 0.0174

L1D TOTAL        ACCESS:   23770279 HIT:   23172211 MISS:     598068
L1D LOAD         ACCESS:   15796890 HIT:   15492330 MISS:     304560
L1D RFO          ACCESS:          0 HIT:          0 MISS:          0
L1D PREFETCH     ACCESS:          0 HIT:          0 MISS:          0
L1D WRITE        ACCESS:    7965510 HIT:    7679524 MISS:     285986
L1D TRANSLATION  ACCESS:       7879 HIT:        357 MISS:       7522
L1D PREFETCH REQUESTED:          0 ISSUED:          0 USEFUL:          0 USELESS:          0
L1D AVERAGE MISS LATENCY: 18.46 cycles
L1I TOTAL        ACCESS:    7622955 HIT:    6611818 MISS:    1011137
L1I LOAD         ACCESS:    7622955 HIT:    6611818 MISS:    1011137
L1I RFO          ACCESS:          0 HIT:          0 MISS:          0
L1I PREFETCH     ACCESS:          0 HIT:          0 MISS:          0
L1I WRITE        ACCESS:          0 HIT:          0 MISS:          0
L1I TRANSLATION  ACCESS:          0 HIT:          0 MISS:          0
L1I PREFETCH REQUESTED:          0 ISSUED:          0 USEFUL:          0 USELESS:          0
L1I AVERAGE MISS LATENCY: 8.124 cycles
L2C TOTAL        ACCESS:    1224047 HIT:    1110980 MISS:     113067
L2C LOAD         ACCESS:     939390 HIT:     853739 MISS:      85651
L2C RFO          ACCESS:     115965 HIT:      98338 MISS:      17627
L2C PREFETCH     ACCESS:          0 HIT:          0 MISS:          0
L2C WRITE        ACCESS:     161178 HIT:     155478 MISS:       5700
L2C TRANSLATION  ACCESS:       7514 HIT:       3425 MISS:       4089
L2C PREFETCH REQUESTED:          0 ISSUED:          0 USEFUL:          0 USELESS:          0
L2C AVERAGE MISS LATENCY: 84.78 cycles
LLC TOTAL        ACCESS:     149488 HIT:      97238 MISS:      52250
LLC LOAD         ACCESS:      85651 HIT:      49366 MISS:      36285
LLC RFO          ACCESS:      17627 HIT:      14216 MISS:       3411
LLC PREFETCH     ACCESS:          0 HIT:          0 MISS:          0
LLC WRITE        ACCESS:      42121 HIT:      31205 MISS:      10916
LLC TRANSLATION  ACCESS:       4089 HIT:       2451 MISS:       1638
LLC PREFETCH REQUESTED:          0 ISSUED:          0 USEFUL:          0 USELESS:          0
LLC AVERAGE MISS LATENCY: 141.5 cycles
cpu0_DTLB TOTAL        ACCESS:   20156802 HIT:   20067295 MISS:      89507
cpu0_DTLB LOAD         ACCESS:   20156802 HIT:   20067295 MISS:      89507
cpu0_DTLB RFO          ACCESS:          0 HIT:          0 MISS:          0
cpu0_DTLB PREFETCH     ACCESS:          0 HIT:          0 MISS:          0
cpu0_DTLB WRITE        ACCESS:          0 HIT:          0 MISS:          0
cpu0_DTLB TRANSLATION  ACCESS:          0 HIT:          0 MISS:          0
cpu0_DTLB PREFETCH REQUESTED:          0 ISSUED:          0 USEFUL:          0 USELESS:          0
cpu0_DTLB AVERAGE MISS LATENCY: 10.1 cycles
cpu0_ITLB TOTAL        ACCESS:    6684443 HIT:    6676217 MISS:       8226
cpu0_ITLB LOAD         ACCESS:    6684443 HIT:    6676217 MISS:       8226
cpu0_ITLB RFO          ACCESS:          0 HIT:          0 MISS:          0
cpu0_ITLB PREFETCH     ACCESS:          0 HIT:          0 MISS:          0
cpu0_ITLB WRITE        ACCESS:          0 HIT:          0 MISS:          0
cpu0_ITLB TRANSLATION  ACCESS:          0 HIT:          0 MISS:          0
cpu0_ITLB PREFETCH REQUESTED:          0 ISSUED:          0 USEFUL:          0 USELESS:          0
cpu0_ITLB AVERAGE MISS LATENCY: 12.18 cycles
cpu0_STLB TOTAL        ACCESS:      57941 HIT:      50162 MISS:       7779
cpu0_STLB LOAD         ACCESS:      57941 HIT:      50162 MISS:       7779
cpu0_STLB RFO          ACCESS:          0 HIT:          0 MISS:          0
cpu0_STLB PREFETCH     ACCESS:          0 HIT:          0 MISS:          0
cpu0_STLB WRITE        ACCESS:          0 HIT:          0 MISS:          0
cpu0_STLB TRANSLATION  ACCESS:          0 HIT:          0 MISS:          0
cpu0_STLB PREFETCH REQUESTED:          0 ISSUED:          0 USEFUL:          0 USELESS:          0
cpu0_STLB AVERAGE MISS LATENCY: 79.06 cycles

DRAM Statistics

Channel 0 RQ ROW_BUFFER_HIT:       6921
  ROW_BUFFER_MISS:      34408
 AVG DBUS CONGESTED CYCLE: 3.887
WQ ROW_BUFFER_HIT: Channel 0 
  ROW_BUFFER_MISS:       3040
  FULL:      12634
