WARNING: physical memory size is smaller than virtual memory size.

*** ChampSim Multicore Out-of-Order Simulator ***
Warmup Instructions: 25000000
Simulation Instructions: 100000000
Number of CPUs: 1
Page size: 4096

[L1D] Demand IPV: 1 2 2 1 4 Prefetch IPV: 1 2 1 1 4
[L1I] Demand IPV: 1 2 2 1 4 Prefetch IPV: 1 2 1 1 4
[L2C] Demand IPV: 1 2 2 1 4 Prefetch IPV: 1 2 1 1 4
[LLC] Demand IPV: 1 2 2 1 4 Prefetch IPV: 1 2 1 1 4
Off-chip DRAM Size: 4 GiB Channels: 1 Width: 64-bit Data Race: 3200 MT/s
Heartbeat CPU 0 instructions: 10000002 cycles: 2502630 heartbeat IPC: 3.996 cumulative IPC: 3.996 (Simulation time: 00 hr 00 min 20 sec)
Heartbeat CPU 0 instructions: 20000000 cycles: 5004986 heartbeat IPC: 3.996 cumulative IPC: 3.996 (Simulation time: 00 hr 00 min 41 sec)
Warmup finished CPU 0 instructions: 25000002 cycles: 6256358 cumulative IPC: 3.996 (Simulation time: 00 hr 00 min 51 sec)
Warmup complete CPU 0 instructions: 25000002 cycles: 6256358 cumulative IPC: 3.996 (Simulation time: 00 hr 00 min 51 sec)
Heartbeat CPU 0 instructions: 30000001 cycles: 9754558 heartbeat IPC: 2.105 cumulative IPC: 1.429 (Simulation time: 00 hr 01 min 10 sec)
Heartbeat CPU 0 instructions: 40000003 cycles: 16788226 heartbeat IPC: 1.422 cumulative IPC: 1.424 (Simulation time: 00 hr 01 min 47 sec)
Heartbeat CPU 0 instructions: 50000000 cycles: 23980087 heartbeat IPC: 1.39 cumulative IPC: 1.411 (Simulation time: 00 hr 02 min 24 sec)
Heartbeat CPU 0 instructions: 60000001 cycles: 31165912 heartbeat IPC: 1.392 cumulative IPC: 1.405 (Simulation time: 00 hr 03 min 02 sec)
Heartbeat CPU 0 instructions: 70000003 cycles: 38460503 heartbeat IPC: 1.371 cumulative IPC: 1.397 (Simulation time: 00 hr 03 min 39 sec)
Heartbeat CPU 0 instructions: 80000001 cycles: 45456262 heartbeat IPC: 1.429 cumulative IPC: 1.403 (Simulation time: 00 hr 04 min 16 sec)
Heartbeat CPU 0 instructions: 90000001 cycles: 53453167 heartbeat IPC: 1.25 cumulative IPC: 1.377 (Simulation time: 00 hr 04 min 56 sec)
Heartbeat CPU 0 instructions: 100000000 cycles: 60783410 heartbeat IPC: 1.364 cumulative IPC: 1.375 (Simulation time: 00 hr 05 min 34 sec)
*** Reached end of trace: (0, "../traces/secret_traces/compute_int/compute_int_316.champsimtrace.xz")
Heartbeat CPU 0 instructions: 110000002 cycles: 68039271 heartbeat IPC: 1.378 cumulative IPC: 1.376 (Simulation time: 00 hr 06 min 11 sec)
Heartbeat CPU 0 instructions: 120000003 cycles: 75439793 heartbeat IPC: 1.351 cumulative IPC: 1.373 (Simulation time: 00 hr 06 min 49 sec)
Simulation finished CPU 0 instructions: 100000003 cycles: 72585833 cumulative IPC: 1.378 (Simulation time: 00 hr 07 min 07 sec)
Simulation complete CPU 0 instructions: 100000003 cycles: 72585833 cumulative IPC: 1.378 (Simulation time: 00 hr 07 min 07 sec)

ChampSim completed all CPUs

=== Simulation ===
CPU 0 runs ../traces/secret_traces/compute_int/compute_int_316.champsimtrace.xz
Region of Interest Statistics

CPU 0 cumulative IPC: 1.378 instructions: 100000003 cycles: 72585833
CPU 0 Branch Prediction Accuracy: 89.3% MPKI: 19.55 Average ROB Occupancy at Mispredict: 16.19
Branch type MPKI
BRANCH_DIRECT_JUMP: 0.163
BRANCH_INDIRECT: 9.33
BRANCH_CONDITIONAL: 8.57
BRANCH_DIRECT_CALL: 0.34
BRANCH_INDIRECT_CALL: 0.932
BRANCH_RETURN: 0.213

L1D TOTAL        ACCESS:   31616945 HIT:   30410926 MISS:    1206019
L1D LOAD         ACCESS:   18469262 HIT:   18019285 MISS:     449977
L1D RFO          ACCESS:          0 HIT:          0 MISS:          0
L1D PREFETCH     ACCESS:          0 HIT:          0 MISS:          0
L1D WRITE        ACCESS:   13131158 HIT:   12389666 MISS:     741492
L1D TRANSLATION  ACCESS:      16525 HIT:       1975 MISS:      14550
L1D PREFETCH REQUESTED:          0 ISSUED:          0 USEFUL:          0 USELESS:          0
L1D AVERAGE MISS LATENCY: 22.17 cycles
L1I TOTAL        ACCESS:    8008356 HIT:    6804464 MISS:    1203892
L1I LOAD         ACCESS:    8008356 HIT:    6804464 MISS:    1203892
L1I RFO          ACCESS:          0 HIT:          0 MISS:          0
L1I PREFETCH     ACCESS:          0 HIT:          0 MISS:          0
L1I WRITE        ACCESS:          0 HIT:          0 MISS:          0
L1I TRANSLATION  ACCESS:          0 HIT:          0 MISS:          0
L1I PREFETCH REQUESTED:          0 ISSUED:          0 USEFUL:          0 USELESS:          0
L1I AVERAGE MISS LATENCY: 11.1 cycles
L2C TOTAL        ACCESS:    1669128 HIT:    1298868 MISS:     370260
L2C LOAD         ACCESS:    1237875 HIT:     995974 MISS:     241901
L2C RFO          ACCESS:     185699 HIT:      81977 MISS:     103722
L2C PREFETCH     ACCESS:          0 HIT:          0 MISS:          0
L2C WRITE        ACCESS:     231013 HIT:     211525 MISS:      19488
L2C TRANSLATION  ACCESS:      14541 HIT:       9392 MISS:       5149
L2C PREFETCH REQUESTED:          0 ISSUED:          0 USEFUL:          0 USELESS:          0
L2C AVERAGE MISS LATENCY: 76.91 cycles
LLC TOTAL        ACCESS:     466848 HIT:     346749 MISS:     120099
LLC LOAD         ACCESS:     241901 HIT:     206239 MISS:      35662
LLC RFO          ACCESS:     103722 HIT:      42356 MISS:      61366
LLC PREFETCH     ACCESS:          0 HIT:          0 MISS:          0
LLC WRITE        ACCESS:     116076 HIT:      94878 MISS:      21198
LLC TRANSLATION  ACCESS:       5149 HIT:       3276 MISS:       1873
LLC PREFETCH REQUESTED:          0 ISSUED:          0 USEFUL:          0 USELESS:          0
LLC AVERAGE MISS LATENCY: 177.9 cycles
cpu0_DTLB TOTAL        ACCESS:   24042482 HIT:   23644040 MISS:     398442
cpu0_DTLB LOAD         ACCESS:   24042482 HIT:   23644040 MISS:     398442
cpu0_DTLB RFO          ACCESS:          0 HIT:          0 MISS:          0
cpu0_DTLB PREFETCH     ACCESS:          0 HIT:          0 MISS:          0
cpu0_DTLB WRITE        ACCESS:          0 HIT:          0 MISS:          0
cpu0_DTLB TRANSLATION  ACCESS:          0 HIT:          0 MISS:          0
cpu0_DTLB PREFETCH REQUESTED:          0 ISSUED:          0 USEFUL:          0 USELESS:          0
cpu0_DTLB AVERAGE MISS LATENCY: 7.581 cycles
cpu0_ITLB TOTAL        ACCESS:    7079948 HIT:    6652248 MISS:     427700
cpu0_ITLB LOAD         ACCESS:    7079948 HIT:    6652248 MISS:     427700
cpu0_ITLB RFO          ACCESS:          0 HIT:          0 MISS:          0
cpu0_ITLB PREFETCH     ACCESS:          0 HIT:          0 MISS:          0
cpu0_ITLB WRITE        ACCESS:          0 HIT:          0 MISS:          0
cpu0_ITLB TRANSLATION  ACCESS:          0 HIT:          0 MISS:          0
cpu0_ITLB PREFETCH REQUESTED:          0 ISSUED:          0 USEFUL:          0 USELESS:          0
cpu0_ITLB AVERAGE MISS LATENCY: 2.92 cycles
cpu0_STLB TOTAL        ACCESS:     492353 HIT:     476098 MISS:      16255
cpu0_STLB LOAD         ACCESS:     492353 HIT:     476098 MISS:      16255
cpu0_STLB RFO          ACCESS:          0 HIT:          0 MISS:          0
cpu0_STLB PREFETCH     ACCESS:          0 HIT:          0 MISS:          0
cpu0_STLB WRITE        ACCESS:          0 HIT:          0 MISS:          0
cpu0_STLB TRANSLATION  ACCESS:          0 HIT:          0 MISS:          0
cpu0_STLB PREFETCH REQUESTED:          0 ISSUED:          0 USEFUL:          0 USELESS:          0
cpu0_STLB AVERAGE MISS LATENCY: 62.53 cycles

DRAM Statistics

Channel 0 RQ ROW_BUFFER_HIT:      43716
  ROW_BUFFER_MISS:      55182
 AVG DBUS CONGESTED CYCLE: 3.96
WQ ROW_BUFFER_HIT: Channel 0 
  ROW_BUFFER_MISS:       6698
  FULL:      51340
