WARNING: physical memory size is smaller than virtual memory size.

*** ChampSim Multicore Out-of-Order Simulator ***
Warmup Instructions: 25000000
Simulation Instructions: 100000000
Number of CPUs: 1
Page size: 4096

[L1D] Demand IPV: 1 2 2 1 4 Prefetch IPV: 1 2 1 1 4
[L1I] Demand IPV: 1 2 2 1 4 Prefetch IPV: 1 2 1 1 4
[L2C] Demand IPV: 1 2 2 1 4 Prefetch IPV: 1 2 1 1 4
[LLC] Demand IPV: 1 2 2 1 4 Prefetch IPV: 1 2 1 1 4
Off-chip DRAM Size: 4 GiB Channels: 1 Width: 64-bit Data Race: 3200 MT/s
Heartbeat CPU 0 instructions: 10000001 cycles: 2549489 heartbeat IPC: 3.922 cumulative IPC: 3.922 (Simulation time: 00 hr 00 min 19 sec)
Heartbeat CPU 0 instructions: 20000001 cycles: 5053103 heartbeat IPC: 3.994 cumulative IPC: 3.958 (Simulation time: 00 hr 00 min 37 sec)
Warmup finished CPU 0 instructions: 25000001 cycles: 6303104 cumulative IPC: 3.966 (Simulation time: 00 hr 00 min 47 sec)
Warmup complete CPU 0 instructions: 25000001 cycles: 6303104 cumulative IPC: 3.966 (Simulation time: 00 hr 00 min 47 sec)
Heartbeat CPU 0 instructions: 30000001 cycles: 9550235 heartbeat IPC: 2.224 cumulative IPC: 1.54 (Simulation time: 00 hr 01 min 03 sec)
Heartbeat CPU 0 instructions: 40000000 cycles: 15768720 heartbeat IPC: 1.608 cumulative IPC: 1.585 (Simulation time: 00 hr 01 min 36 sec)
Heartbeat CPU 0 instructions: 50000004 cycles: 22452961 heartbeat IPC: 1.496 cumulative IPC: 1.548 (Simulation time: 00 hr 02 min 08 sec)
Heartbeat CPU 0 instructions: 60000000 cycles: 28219568 heartbeat IPC: 1.734 cumulative IPC: 1.597 (Simulation time: 00 hr 02 min 39 sec)
Heartbeat CPU 0 instructions: 70000001 cycles: 32883059 heartbeat IPC: 2.144 cumulative IPC: 1.693 (Simulation time: 00 hr 03 min 08 sec)
*** Reached end of trace: (0, "../traces/secret_traces/compute_int/compute_int_401.champsimtrace.xz")
Heartbeat CPU 0 instructions: 80000003 cycles: 37486043 heartbeat IPC: 2.173 cumulative IPC: 1.764 (Simulation time: 00 hr 03 min 35 sec)
Heartbeat CPU 0 instructions: 90000001 cycles: 46252407 heartbeat IPC: 1.141 cumulative IPC: 1.627 (Simulation time: 00 hr 04 min 15 sec)
Heartbeat CPU 0 instructions: 100000001 cycles: 52586543 heartbeat IPC: 1.579 cumulative IPC: 1.62 (Simulation time: 00 hr 04 min 48 sec)
Heartbeat CPU 0 instructions: 110000002 cycles: 58771633 heartbeat IPC: 1.617 cumulative IPC: 1.62 (Simulation time: 00 hr 05 min 20 sec)
Heartbeat CPU 0 instructions: 120000000 cycles: 65094672 heartbeat IPC: 1.582 cumulative IPC: 1.616 (Simulation time: 00 hr 05 min 53 sec)
Simulation finished CPU 0 instructions: 100000004 cycles: 62124123 cumulative IPC: 1.61 (Simulation time: 00 hr 06 min 09 sec)
Simulation complete CPU 0 instructions: 100000004 cycles: 62124123 cumulative IPC: 1.61 (Simulation time: 00 hr 06 min 09 sec)

ChampSim completed all CPUs

=== Simulation ===
CPU 0 runs ../traces/secret_traces/compute_int/compute_int_401.champsimtrace.xz
Region of Interest Statistics

CPU 0 cumulative IPC: 1.61 instructions: 100000004 cycles: 62124123
CPU 0 Branch Prediction Accuracy: 91.91% MPKI: 12.49 Average ROB Occupancy at Mispredict: 32.72
Branch type MPKI
BRANCH_DIRECT_JUMP: 0.00597
BRANCH_INDIRECT: 0.224
BRANCH_CONDITIONAL: 12.2
BRANCH_DIRECT_CALL: 0.0162
BRANCH_INDIRECT_CALL: 0.0063
BRANCH_RETURN: 0.00926

L1D TOTAL        ACCESS:   21149617 HIT:   18095018 MISS:    3054599
L1D LOAD         ACCESS:   14045304 HIT:   12232805 MISS:    1812499
L1D RFO          ACCESS:          0 HIT:          0 MISS:          0
L1D PREFETCH     ACCESS:          0 HIT:          0 MISS:          0
L1D WRITE        ACCESS:    7100508 HIT:    5860348 MISS:    1240160
L1D TRANSLATION  ACCESS:       3805 HIT:       1865 MISS:       1940
L1D PREFETCH REQUESTED:          0 ISSUED:          0 USEFUL:          0 USELESS:          0
L1D AVERAGE MISS LATENCY: 37.55 cycles
L1I TOTAL        ACCESS:      57610 HIT:      39186 MISS:      18424
L1I LOAD         ACCESS:      57610 HIT:      39186 MISS:      18424
L1I RFO          ACCESS:          0 HIT:          0 MISS:          0
L1I PREFETCH     ACCESS:          0 HIT:          0 MISS:          0
L1I WRITE        ACCESS:          0 HIT:          0 MISS:          0
L1I TRANSLATION  ACCESS:          0 HIT:          0 MISS:          0
L1I PREFETCH REQUESTED:          0 ISSUED:          0 USEFUL:          0 USELESS:          0
L1I AVERAGE MISS LATENCY: 112.2 cycles
L2C TOTAL        ACCESS:    3495687 HIT:    3102710 MISS:     392977
L2C LOAD         ACCESS:    1184681 HIT:     896741 MISS:     287940
L2C RFO          ACCESS:     755824 HIT:     660976 MISS:      94848
L2C PREFETCH     ACCESS:          0 HIT:          0 MISS:          0
L2C WRITE        ACCESS:    1553248 HIT:    1544067 MISS:       9181
L2C TRANSLATION  ACCESS:       1934 HIT:        926 MISS:       1008
L2C PREFETCH REQUESTED:          0 ISSUED:          0 USEFUL:          0 USELESS:          0
L2C AVERAGE MISS LATENCY: 263.6 cycles
LLC TOTAL        ACCESS:     492559 HIT:     150139 MISS:     342420
LLC LOAD         ACCESS:     287940 HIT:      68707 MISS:     219233
LLC RFO          ACCESS:      94848 HIT:      25348 MISS:      69500
LLC PREFETCH     ACCESS:          0 HIT:          0 MISS:          0
LLC WRITE        ACCESS:     108763 HIT:      55956 MISS:      52807
LLC TRANSLATION  ACCESS:       1008 HIT:        128 MISS:        880
LLC PREFETCH REQUESTED:          0 ISSUED:          0 USEFUL:          0 USELESS:          0
LLC AVERAGE MISS LATENCY: 279.2 cycles
cpu0_DTLB TOTAL        ACCESS:   17836075 HIT:   17604597 MISS:     231478
cpu0_DTLB LOAD         ACCESS:   17836075 HIT:   17604597 MISS:     231478
cpu0_DTLB RFO          ACCESS:          0 HIT:          0 MISS:          0
cpu0_DTLB PREFETCH     ACCESS:          0 HIT:          0 MISS:          0
cpu0_DTLB WRITE        ACCESS:          0 HIT:          0 MISS:          0
cpu0_DTLB TRANSLATION  ACCESS:          0 HIT:          0 MISS:          0
cpu0_DTLB PREFETCH REQUESTED:          0 ISSUED:          0 USEFUL:          0 USELESS:          0
cpu0_DTLB AVERAGE MISS LATENCY: 7.359 cycles
cpu0_ITLB TOTAL        ACCESS:      51645 HIT:      47801 MISS:       3844
cpu0_ITLB LOAD         ACCESS:      51645 HIT:      47801 MISS:       3844
cpu0_ITLB RFO          ACCESS:          0 HIT:          0 MISS:          0
cpu0_ITLB PREFETCH     ACCESS:          0 HIT:          0 MISS:          0
cpu0_ITLB WRITE        ACCESS:          0 HIT:          0 MISS:          0
cpu0_ITLB TRANSLATION  ACCESS:          0 HIT:          0 MISS:          0
cpu0_ITLB PREFETCH REQUESTED:          0 ISSUED:          0 USEFUL:          0 USELESS:          0
cpu0_ITLB AVERAGE MISS LATENCY: 21.42 cycles
cpu0_STLB TOTAL        ACCESS:     178429 HIT:     174750 MISS:       3679
cpu0_STLB LOAD         ACCESS:     178429 HIT:     174750 MISS:       3679
cpu0_STLB RFO          ACCESS:          0 HIT:          0 MISS:          0
cpu0_STLB PREFETCH     ACCESS:          0 HIT:          0 MISS:          0
cpu0_STLB WRITE        ACCESS:          0 HIT:          0 MISS:          0
cpu0_STLB TRANSLATION  ACCESS:          0 HIT:          0 MISS:          0
cpu0_STLB PREFETCH REQUESTED:          0 ISSUED:          0 USEFUL:          0 USELESS:          0
cpu0_STLB AVERAGE MISS LATENCY: 193.7 cycles

DRAM Statistics

Channel 0 RQ ROW_BUFFER_HIT:     168820
  ROW_BUFFER_MISS:     120760
 AVG DBUS CONGESTED CYCLE: 3.99
WQ ROW_BUFFER_HIT: Channel 0 
  ROW_BUFFER_MISS:       4922
  FULL:      75652
