WARNING: physical memory size is smaller than virtual memory size.

*** ChampSim Multicore Out-of-Order Simulator ***
Warmup Instructions: 25000000
Simulation Instructions: 100000000
Number of CPUs: 1
Page size: 4096

[L1D] Demand IPV: 1 2 2 1 4 Prefetch IPV: 1 2 1 1 4
[L1I] Demand IPV: 1 2 2 1 4 Prefetch IPV: 1 2 1 1 4
[L2C] Demand IPV: 1 2 2 1 4 Prefetch IPV: 1 2 1 1 4
[LLC] Demand IPV: 1 2 2 1 4 Prefetch IPV: 1 2 1 1 4
Off-chip DRAM Size: 4 GiB Channels: 1 Width: 64-bit Data Race: 3200 MT/s
Heartbeat CPU 0 instructions: 10000003 cycles: 2541052 heartbeat IPC: 3.935 cumulative IPC: 3.935 (Simulation time: 00 hr 00 min 20 sec)
Heartbeat CPU 0 instructions: 20000000 cycles: 5112998 heartbeat IPC: 3.888 cumulative IPC: 3.912 (Simulation time: 00 hr 00 min 39 sec)
Warmup finished CPU 0 instructions: 25000003 cycles: 6374678 cumulative IPC: 3.922 (Simulation time: 00 hr 00 min 49 sec)
Warmup complete CPU 0 instructions: 25000003 cycles: 6374678 cumulative IPC: 3.922 (Simulation time: 00 hr 00 min 49 sec)
Heartbeat CPU 0 instructions: 30000000 cycles: 10517275 heartbeat IPC: 1.85 cumulative IPC: 1.207 (Simulation time: 00 hr 01 min 08 sec)
Heartbeat CPU 0 instructions: 40000001 cycles: 17256075 heartbeat IPC: 1.484 cumulative IPC: 1.378 (Simulation time: 00 hr 01 min 41 sec)
Heartbeat CPU 0 instructions: 50000000 cycles: 21284861 heartbeat IPC: 2.482 cumulative IPC: 1.677 (Simulation time: 00 hr 02 min 09 sec)
Heartbeat CPU 0 instructions: 60000004 cycles: 26478717 heartbeat IPC: 1.925 cumulative IPC: 1.741 (Simulation time: 00 hr 02 min 40 sec)
Heartbeat CPU 0 instructions: 70000002 cycles: 31498593 heartbeat IPC: 1.992 cumulative IPC: 1.791 (Simulation time: 00 hr 03 min 09 sec)
Heartbeat CPU 0 instructions: 80000003 cycles: 36093775 heartbeat IPC: 2.176 cumulative IPC: 1.851 (Simulation time: 00 hr 03 min 39 sec)
Heartbeat CPU 0 instructions: 90000004 cycles: 39553528 heartbeat IPC: 2.89 cumulative IPC: 1.959 (Simulation time: 00 hr 04 min 04 sec)
Heartbeat CPU 0 instructions: 100000000 cycles: 43038895 heartbeat IPC: 2.869 cumulative IPC: 2.046 (Simulation time: 00 hr 04 min 29 sec)
Heartbeat CPU 0 instructions: 110000001 cycles: 46641724 heartbeat IPC: 2.776 cumulative IPC: 2.111 (Simulation time: 00 hr 04 min 54 sec)
Heartbeat CPU 0 instructions: 120000002 cycles: 50176713 heartbeat IPC: 2.829 cumulative IPC: 2.169 (Simulation time: 00 hr 05 min 18 sec)
Simulation finished CPU 0 instructions: 100000001 cycles: 45681225 cumulative IPC: 2.189 (Simulation time: 00 hr 05 min 31 sec)
Simulation complete CPU 0 instructions: 100000001 cycles: 45681225 cumulative IPC: 2.189 (Simulation time: 00 hr 05 min 31 sec)

ChampSim completed all CPUs

=== Simulation ===
CPU 0 runs ../traces/secret_traces/compute_int/compute_int_610.champsimtrace.xz
Region of Interest Statistics

CPU 0 cumulative IPC: 2.189 instructions: 100000001 cycles: 45681225
CPU 0 Branch Prediction Accuracy: 92.56% MPKI: 10.94 Average ROB Occupancy at Mispredict: 27.44
Branch type MPKI
BRANCH_DIRECT_JUMP: 0.00087
BRANCH_INDIRECT: 2.61
BRANCH_CONDITIONAL: 8.33
BRANCH_DIRECT_CALL: 0.00053
BRANCH_INDIRECT_CALL: 0.00185
BRANCH_RETURN: 0.00056

L1D TOTAL        ACCESS:   30242012 HIT:   28254449 MISS:    1987563
L1D LOAD         ACCESS:   21760063 HIT:   20521197 MISS:    1238866
L1D RFO          ACCESS:          0 HIT:          0 MISS:          0
L1D PREFETCH     ACCESS:          0 HIT:          0 MISS:          0
L1D WRITE        ACCESS:    8481350 HIT:    7732889 MISS:     748461
L1D TRANSLATION  ACCESS:        599 HIT:        363 MISS:        236
L1D PREFETCH REQUESTED:          0 ISSUED:          0 USEFUL:          0 USELESS:          0
L1D AVERAGE MISS LATENCY: 25.78 cycles
L1I TOTAL        ACCESS:    1426864 HIT:    1344536 MISS:      82328
L1I LOAD         ACCESS:    1426864 HIT:    1344536 MISS:      82328
L1I RFO          ACCESS:          0 HIT:          0 MISS:          0
L1I PREFETCH     ACCESS:          0 HIT:          0 MISS:          0
L1I WRITE        ACCESS:          0 HIT:          0 MISS:          0
L1I TRANSLATION  ACCESS:          0 HIT:          0 MISS:          0
L1I PREFETCH REQUESTED:          0 ISSUED:          0 USEFUL:          0 USELESS:          0
L1I AVERAGE MISS LATENCY: 10.63 cycles
L2C TOTAL        ACCESS:    1651471 HIT:    1465566 MISS:     185905
L2C LOAD         ACCESS:     828290 HIT:     730362 MISS:      97928
L2C RFO          ACCESS:     353209 HIT:     275088 MISS:      78121
L2C PREFETCH     ACCESS:          0 HIT:          0 MISS:          0
L2C WRITE        ACCESS:     469736 HIT:     460016 MISS:       9720
L2C TRANSLATION  ACCESS:        236 HIT:        100 MISS:        136
L2C PREFETCH REQUESTED:          0 ISSUED:          0 USEFUL:          0 USELESS:          0
L2C AVERAGE MISS LATENCY: 216.6 cycles
LLC TOTAL        ACCESS:     293092 HIT:     211550 MISS:      81542
LLC LOAD         ACCESS:      97927 HIT:      83510 MISS:      14417
LLC RFO          ACCESS:      78120 HIT:      37244 MISS:      40876
LLC PREFETCH     ACCESS:          0 HIT:          0 MISS:          0
LLC WRITE        ACCESS:     116909 HIT:      90764 MISS:      26145
LLC TRANSLATION  ACCESS:        136 HIT:         32 MISS:        104
LLC PREFETCH REQUESTED:          0 ISSUED:          0 USEFUL:          0 USELESS:          0
LLC AVERAGE MISS LATENCY: 449.7 cycles
cpu0_DTLB TOTAL        ACCESS:   22632406 HIT:   22212126 MISS:     420280
cpu0_DTLB LOAD         ACCESS:   22632406 HIT:   22212126 MISS:     420280
cpu0_DTLB RFO          ACCESS:          0 HIT:          0 MISS:          0
cpu0_DTLB PREFETCH     ACCESS:          0 HIT:          0 MISS:          0
cpu0_DTLB WRITE        ACCESS:          0 HIT:          0 MISS:          0
cpu0_DTLB TRANSLATION  ACCESS:          0 HIT:          0 MISS:          0
cpu0_DTLB PREFETCH REQUESTED:          0 ISSUED:          0 USEFUL:          0 USELESS:          0
cpu0_DTLB AVERAGE MISS LATENCY: 4.036 cycles
cpu0_ITLB TOTAL        ACCESS:    1228565 HIT:    1227721 MISS:        844
cpu0_ITLB LOAD         ACCESS:    1228565 HIT:    1227721 MISS:        844
cpu0_ITLB RFO          ACCESS:          0 HIT:          0 MISS:          0
cpu0_ITLB PREFETCH     ACCESS:          0 HIT:          0 MISS:          0
cpu0_ITLB WRITE        ACCESS:          0 HIT:          0 MISS:          0
cpu0_ITLB TRANSLATION  ACCESS:          0 HIT:          0 MISS:          0
cpu0_ITLB PREFETCH REQUESTED:          0 ISSUED:          0 USEFUL:          0 USELESS:          0
cpu0_ITLB AVERAGE MISS LATENCY: 7.981 cycles
cpu0_STLB TOTAL        ACCESS:     245694 HIT:     245103 MISS:        591
cpu0_STLB LOAD         ACCESS:     245694 HIT:     245103 MISS:        591
cpu0_STLB RFO          ACCESS:          0 HIT:          0 MISS:          0
cpu0_STLB PREFETCH     ACCESS:          0 HIT:          0 MISS:          0
cpu0_STLB WRITE        ACCESS:          0 HIT:          0 MISS:          0
cpu0_STLB TRANSLATION  ACCESS:          0 HIT:          0 MISS:          0
cpu0_STLB PREFETCH REQUESTED:          0 ISSUED:          0 USEFUL:          0 USELESS:          0
cpu0_STLB AVERAGE MISS LATENCY: 401.7 cycles

DRAM Statistics

Channel 0 RQ ROW_BUFFER_HIT:      17607
  ROW_BUFFER_MISS:      37747
 AVG DBUS CONGESTED CYCLE: 3.985
WQ ROW_BUFFER_HIT: Channel 0 
  ROW_BUFFER_MISS:       2360
  FULL:      44866
