WARNING: physical memory size is smaller than virtual memory size.

*** ChampSim Multicore Out-of-Order Simulator ***
Warmup Instructions: 25000000
Simulation Instructions: 100000000
Number of CPUs: 1
Page size: 4096

[L1D] Demand IPV: 1 2 2 1 4 Prefetch IPV: 1 2 1 1 4
[L1I] Demand IPV: 1 2 2 1 4 Prefetch IPV: 1 2 1 1 4
[L2C] Demand IPV: 1 2 2 1 4 Prefetch IPV: 1 2 1 1 4
[LLC] Demand IPV: 1 2 2 1 4 Prefetch IPV: 1 2 1 1 4
Off-chip DRAM Size: 4 GiB Channels: 1 Width: 64-bit Data Race: 3200 MT/s
Heartbeat CPU 0 instructions: 10000001 cycles: 2523313 heartbeat IPC: 3.963 cumulative IPC: 3.963 (Simulation time: 00 hr 00 min 20 sec)
Heartbeat CPU 0 instructions: 20000001 cycles: 5023313 heartbeat IPC: 4 cumulative IPC: 3.981 (Simulation time: 00 hr 00 min 40 sec)
Warmup finished CPU 0 instructions: 25000001 cycles: 6273314 cumulative IPC: 3.985 (Simulation time: 00 hr 00 min 50 sec)
Warmup complete CPU 0 instructions: 25000001 cycles: 6273314 cumulative IPC: 3.985 (Simulation time: 00 hr 00 min 50 sec)
Heartbeat CPU 0 instructions: 30000000 cycles: 8607089 heartbeat IPC: 2.79 cumulative IPC: 2.142 (Simulation time: 00 hr 01 min 04 sec)
Heartbeat CPU 0 instructions: 40000004 cycles: 13229128 heartbeat IPC: 2.164 cumulative IPC: 2.156 (Simulation time: 00 hr 01 min 32 sec)
Heartbeat CPU 0 instructions: 50000001 cycles: 17863111 heartbeat IPC: 2.158 cumulative IPC: 2.157 (Simulation time: 00 hr 02 min 01 sec)
Heartbeat CPU 0 instructions: 60000001 cycles: 22715534 heartbeat IPC: 2.061 cumulative IPC: 2.129 (Simulation time: 00 hr 02 min 30 sec)
Heartbeat CPU 0 instructions: 70000002 cycles: 27295087 heartbeat IPC: 2.184 cumulative IPC: 2.141 (Simulation time: 00 hr 02 min 58 sec)
Heartbeat CPU 0 instructions: 80000000 cycles: 31872306 heartbeat IPC: 2.185 cumulative IPC: 2.149 (Simulation time: 00 hr 03 min 27 sec)
Heartbeat CPU 0 instructions: 90000000 cycles: 36439234 heartbeat IPC: 2.19 cumulative IPC: 2.155 (Simulation time: 00 hr 03 min 56 sec)
Heartbeat CPU 0 instructions: 100000000 cycles: 40870247 heartbeat IPC: 2.257 cumulative IPC: 2.168 (Simulation time: 00 hr 04 min 24 sec)
*** Reached end of trace: (0, "../traces/secret_traces/compute_fp/compute_fp_138.champsimtrace.xz")
Heartbeat CPU 0 instructions: 110000000 cycles: 47390565 heartbeat IPC: 1.534 cumulative IPC: 2.067 (Simulation time: 00 hr 04 min 59 sec)
Heartbeat CPU 0 instructions: 120000000 cycles: 52167015 heartbeat IPC: 2.094 cumulative IPC: 2.07 (Simulation time: 00 hr 05 min 28 sec)
Simulation finished CPU 0 instructions: 100000001 cycles: 48241201 cumulative IPC: 2.073 (Simulation time: 00 hr 05 min 42 sec)
Simulation complete CPU 0 instructions: 100000001 cycles: 48241201 cumulative IPC: 2.073 (Simulation time: 00 hr 05 min 42 sec)

ChampSim completed all CPUs

=== Simulation ===
CPU 0 runs ../traces/secret_traces/compute_fp/compute_fp_138.champsimtrace.xz
Region of Interest Statistics

CPU 0 cumulative IPC: 2.073 instructions: 100000001 cycles: 48241201
CPU 0 Branch Prediction Accuracy: 92.19% MPKI: 13.84 Average ROB Occupancy at Mispredict: 20.97
Branch type MPKI
BRANCH_DIRECT_JUMP: 0.00948
BRANCH_INDIRECT: 8.48
BRANCH_CONDITIONAL: 3.6
BRANCH_DIRECT_CALL: 0.0259
BRANCH_INDIRECT_CALL: 1.71
BRANCH_RETURN: 0.0144

L1D TOTAL        ACCESS:   34171032 HIT:   33914154 MISS:     256878
L1D LOAD         ACCESS:   23312972 HIT:   23162394 MISS:     150578
L1D RFO          ACCESS:          0 HIT:          0 MISS:          0
L1D PREFETCH     ACCESS:          0 HIT:          0 MISS:          0
L1D WRITE        ACCESS:   10857057 HIT:   10751476 MISS:     105581
L1D TRANSLATION  ACCESS:       1003 HIT:        284 MISS:        719
L1D PREFETCH REQUESTED:          0 ISSUED:          0 USEFUL:          0 USELESS:          0
L1D AVERAGE MISS LATENCY: 23.68 cycles
L1I TOTAL        ACCESS:    2255257 HIT:    2102201 MISS:     153056
L1I LOAD         ACCESS:    2255257 HIT:    2102201 MISS:     153056
L1I RFO          ACCESS:          0 HIT:          0 MISS:          0
L1I PREFETCH     ACCESS:          0 HIT:          0 MISS:          0
L1I WRITE        ACCESS:          0 HIT:          0 MISS:          0
L1I TRANSLATION  ACCESS:          0 HIT:          0 MISS:          0
L1I PREFETCH REQUESTED:          0 ISSUED:          0 USEFUL:          0 USELESS:          0
L1I AVERAGE MISS LATENCY: 12.67 cycles
L2C TOTAL        ACCESS:     291626 HIT:     227318 MISS:      64308
L2C LOAD         ACCESS:     199068 HIT:     167419 MISS:      31649
L2C RFO          ACCESS:      43273 HIT:      15056 MISS:      28217
L2C PREFETCH     ACCESS:          0 HIT:          0 MISS:          0
L2C WRITE        ACCESS:      48570 HIT:      44712 MISS:       3858
L2C TRANSLATION  ACCESS:        715 HIT:        131 MISS:        584
L2C PREFETCH REQUESTED:          0 ISSUED:          0 USEFUL:          0 USELESS:          0
L2C AVERAGE MISS LATENCY: 92.81 cycles
LLC TOTAL        ACCESS:      91777 HIT:      67412 MISS:      24365
LLC LOAD         ACCESS:      31649 HIT:      15755 MISS:      15894
LLC RFO          ACCESS:      28217 HIT:      24448 MISS:       3769
LLC PREFETCH     ACCESS:          0 HIT:          0 MISS:          0
LLC WRITE        ACCESS:      31327 HIT:      27077 MISS:       4250
LLC TRANSLATION  ACCESS:        584 HIT:        132 MISS:        452
LLC PREFETCH REQUESTED:          0 ISSUED:          0 USEFUL:          0 USELESS:          0
LLC AVERAGE MISS LATENCY: 194.1 cycles
cpu0_DTLB TOTAL        ACCESS:   26228135 HIT:   25932526 MISS:     295609
cpu0_DTLB LOAD         ACCESS:   26228135 HIT:   25932526 MISS:     295609
cpu0_DTLB RFO          ACCESS:          0 HIT:          0 MISS:          0
cpu0_DTLB PREFETCH     ACCESS:          0 HIT:          0 MISS:          0
cpu0_DTLB WRITE        ACCESS:          0 HIT:          0 MISS:          0
cpu0_DTLB TRANSLATION  ACCESS:          0 HIT:          0 MISS:          0
cpu0_DTLB PREFETCH REQUESTED:          0 ISSUED:          0 USEFUL:          0 USELESS:          0
cpu0_DTLB AVERAGE MISS LATENCY: 3.21 cycles
cpu0_ITLB TOTAL        ACCESS:    1964202 HIT:    1896384 MISS:      67818
cpu0_ITLB LOAD         ACCESS:    1964202 HIT:    1896384 MISS:      67818
cpu0_ITLB RFO          ACCESS:          0 HIT:          0 MISS:          0
cpu0_ITLB PREFETCH     ACCESS:          0 HIT:          0 MISS:          0
cpu0_ITLB WRITE        ACCESS:          0 HIT:          0 MISS:          0
cpu0_ITLB TRANSLATION  ACCESS:          0 HIT:          0 MISS:          0
cpu0_ITLB PREFETCH REQUESTED:          0 ISSUED:          0 USEFUL:          0 USELESS:          0
cpu0_ITLB AVERAGE MISS LATENCY: 1.799 cycles
cpu0_STLB TOTAL        ACCESS:     165576 HIT:     164644 MISS:        932
cpu0_STLB LOAD         ACCESS:     165576 HIT:     164644 MISS:        932
cpu0_STLB RFO          ACCESS:          0 HIT:          0 MISS:          0
cpu0_STLB PREFETCH     ACCESS:          0 HIT:          0 MISS:          0
cpu0_STLB WRITE        ACCESS:          0 HIT:          0 MISS:          0
cpu0_STLB TRANSLATION  ACCESS:          0 HIT:          0 MISS:          0
cpu0_STLB PREFETCH REQUESTED:          0 ISSUED:          0 USEFUL:          0 USELESS:          0
cpu0_STLB AVERAGE MISS LATENCY: 157.5 cycles

DRAM Statistics

Channel 0 RQ ROW_BUFFER_HIT:      10027
  ROW_BUFFER_MISS:      10078
 AVG DBUS CONGESTED CYCLE: 3.961
WQ ROW_BUFFER_HIT: Channel 0 
  ROW_BUFFER_MISS:       1170
  FULL:       3875
