WARNING: physical memory size is smaller than virtual memory size.

*** ChampSim Multicore Out-of-Order Simulator ***
Warmup Instructions: 25000000
Simulation Instructions: 100000000
Number of CPUs: 1
Page size: 4096

[L1D] Demand IPV: 1 2 2 1 4 Prefetch IPV: 1 2 1 1 4
[L1I] Demand IPV: 1 2 2 1 4 Prefetch IPV: 1 2 1 1 4
[L2C] Demand IPV: 1 2 2 1 4 Prefetch IPV: 1 2 1 1 4
[LLC] Demand IPV: 1 2 2 1 4 Prefetch IPV: 1 2 1 1 4
Off-chip DRAM Size: 4 GiB Channels: 1 Width: 64-bit Data Race: 3200 MT/s
Heartbeat CPU 0 instructions: 10000001 cycles: 2529851 heartbeat IPC: 3.953 cumulative IPC: 3.953 (Simulation time: 00 hr 00 min 19 sec)
Heartbeat CPU 0 instructions: 20000001 cycles: 5029851 heartbeat IPC: 4 cumulative IPC: 3.976 (Simulation time: 00 hr 00 min 38 sec)
Warmup finished CPU 0 instructions: 25000001 cycles: 6279852 cumulative IPC: 3.981 (Simulation time: 00 hr 00 min 47 sec)
Warmup complete CPU 0 instructions: 25000001 cycles: 6279852 cumulative IPC: 3.981 (Simulation time: 00 hr 00 min 47 sec)
Heartbeat CPU 0 instructions: 30000000 cycles: 9924715 heartbeat IPC: 2.043 cumulative IPC: 1.372 (Simulation time: 00 hr 01 min 06 sec)
Heartbeat CPU 0 instructions: 40000000 cycles: 16222703 heartbeat IPC: 1.588 cumulative IPC: 1.509 (Simulation time: 00 hr 01 min 38 sec)
Heartbeat CPU 0 instructions: 50000003 cycles: 22164063 heartbeat IPC: 1.683 cumulative IPC: 1.574 (Simulation time: 00 hr 02 min 09 sec)
Heartbeat CPU 0 instructions: 60000000 cycles: 27940502 heartbeat IPC: 1.731 cumulative IPC: 1.616 (Simulation time: 00 hr 02 min 41 sec)
Heartbeat CPU 0 instructions: 70000000 cycles: 33899150 heartbeat IPC: 1.678 cumulative IPC: 1.629 (Simulation time: 00 hr 03 min 12 sec)
*** Reached end of trace: (0, "../traces/secret_traces/compute_int/compute_int_451.champsimtrace.xz")
Heartbeat CPU 0 instructions: 80000003 cycles: 39248584 heartbeat IPC: 1.869 cumulative IPC: 1.668 (Simulation time: 00 hr 03 min 41 sec)
Heartbeat CPU 0 instructions: 90000001 cycles: 49057519 heartbeat IPC: 1.019 cumulative IPC: 1.519 (Simulation time: 00 hr 04 min 26 sec)
Heartbeat CPU 0 instructions: 100000002 cycles: 56127164 heartbeat IPC: 1.414 cumulative IPC: 1.505 (Simulation time: 00 hr 05 min 00 sec)
Heartbeat CPU 0 instructions: 110000000 cycles: 62847335 heartbeat IPC: 1.488 cumulative IPC: 1.503 (Simulation time: 00 hr 05 min 35 sec)
Heartbeat CPU 0 instructions: 120000004 cycles: 69105749 heartbeat IPC: 1.598 cumulative IPC: 1.512 (Simulation time: 00 hr 06 min 06 sec)
Simulation finished CPU 0 instructions: 100000002 cycles: 65697996 cumulative IPC: 1.522 (Simulation time: 00 hr 06 min 22 sec)
Simulation complete CPU 0 instructions: 100000002 cycles: 65697996 cumulative IPC: 1.522 (Simulation time: 00 hr 06 min 22 sec)

ChampSim completed all CPUs

=== Simulation ===
CPU 0 runs ../traces/secret_traces/compute_int/compute_int_451.champsimtrace.xz
Region of Interest Statistics

CPU 0 cumulative IPC: 1.522 instructions: 100000002 cycles: 65697996
CPU 0 Branch Prediction Accuracy: 90.55% MPKI: 16.62 Average ROB Occupancy at Mispredict: 22.1
Branch type MPKI
BRANCH_DIRECT_JUMP: 0.00575
BRANCH_INDIRECT: 0.62
BRANCH_CONDITIONAL: 16
BRANCH_DIRECT_CALL: 0.0158
BRANCH_INDIRECT_CALL: 0.006
BRANCH_RETURN: 0.00918

L1D TOTAL        ACCESS:   22554057 HIT:   20467179 MISS:    2086878
L1D LOAD         ACCESS:   16003694 HIT:   14708569 MISS:    1295125
L1D RFO          ACCESS:          0 HIT:          0 MISS:          0
L1D PREFETCH     ACCESS:          0 HIT:          0 MISS:          0
L1D WRITE        ACCESS:    6546734 HIT:    5756587 MISS:     790147
L1D TRANSLATION  ACCESS:       3629 HIT:       2023 MISS:       1606
L1D PREFETCH REQUESTED:          0 ISSUED:          0 USEFUL:          0 USELESS:          0
L1D AVERAGE MISS LATENCY: 49.41 cycles
L1I TOTAL        ACCESS:      55622 HIT:      38016 MISS:      17606
L1I LOAD         ACCESS:      55622 HIT:      38016 MISS:      17606
L1I RFO          ACCESS:          0 HIT:          0 MISS:          0
L1I PREFETCH     ACCESS:          0 HIT:          0 MISS:          0
L1I WRITE        ACCESS:          0 HIT:          0 MISS:          0
L1I TRANSLATION  ACCESS:          0 HIT:          0 MISS:          0
L1I PREFETCH REQUESTED:          0 ISSUED:          0 USEFUL:          0 USELESS:          0
L1I AVERAGE MISS LATENCY: 110.3 cycles
L2C TOTAL        ACCESS:    1622953 HIT:    1283014 MISS:     339939
L2C LOAD         ACCESS:     704465 HIT:     444438 MISS:     260027
L2C RFO          ACCESS:     276949 HIT:     205592 MISS:      71357
L2C PREFETCH     ACCESS:          0 HIT:          0 MISS:          0
L2C WRITE        ACCESS:     639936 HIT:     632339 MISS:       7597
L2C TRANSLATION  ACCESS:       1603 HIT:        645 MISS:        958
L2C PREFETCH REQUESTED:          0 ISSUED:          0 USEFUL:          0 USELESS:          0
L2C AVERAGE MISS LATENCY: 301.7 cycles
LLC TOTAL        ACCESS:     408112 HIT:     100877 MISS:     307235
LLC LOAD         ACCESS:     260027 HIT:      67976 MISS:     192051
LLC RFO          ACCESS:      71357 HIT:       6483 MISS:      64874
LLC PREFETCH     ACCESS:          0 HIT:          0 MISS:          0
LLC WRITE        ACCESS:      75770 HIT:      26346 MISS:      49424
LLC TRANSLATION  ACCESS:        958 HIT:         72 MISS:        886
LLC PREFETCH REQUESTED:          0 ISSUED:          0 USEFUL:          0 USELESS:          0
LLC AVERAGE MISS LATENCY: 311.3 cycles
cpu0_DTLB TOTAL        ACCESS:   18171289 HIT:   18133323 MISS:      37966
cpu0_DTLB LOAD         ACCESS:   18171289 HIT:   18133323 MISS:      37966
cpu0_DTLB RFO          ACCESS:          0 HIT:          0 MISS:          0
cpu0_DTLB PREFETCH     ACCESS:          0 HIT:          0 MISS:          0
cpu0_DTLB WRITE        ACCESS:          0 HIT:          0 MISS:          0
cpu0_DTLB TRANSLATION  ACCESS:          0 HIT:          0 MISS:          0
cpu0_DTLB PREFETCH REQUESTED:          0 ISSUED:          0 USEFUL:          0 USELESS:          0
cpu0_DTLB AVERAGE MISS LATENCY: 10.12 cycles
cpu0_ITLB TOTAL        ACCESS:      49728 HIT:      45980 MISS:       3748
cpu0_ITLB LOAD         ACCESS:      49728 HIT:      45980 MISS:       3748
cpu0_ITLB RFO          ACCESS:          0 HIT:          0 MISS:          0
cpu0_ITLB PREFETCH     ACCESS:          0 HIT:          0 MISS:          0
cpu0_ITLB WRITE        ACCESS:          0 HIT:          0 MISS:          0
cpu0_ITLB TRANSLATION  ACCESS:          0 HIT:          0 MISS:          0
cpu0_ITLB PREFETCH REQUESTED:          0 ISSUED:          0 USEFUL:          0 USELESS:          0
cpu0_ITLB AVERAGE MISS LATENCY: 22.06 cycles
cpu0_STLB TOTAL        ACCESS:      10653 HIT:       7148 MISS:       3505
cpu0_STLB LOAD         ACCESS:      10653 HIT:       7148 MISS:       3505
cpu0_STLB RFO          ACCESS:          0 HIT:          0 MISS:          0
cpu0_STLB PREFETCH     ACCESS:          0 HIT:          0 MISS:          0
cpu0_STLB WRITE        ACCESS:          0 HIT:          0 MISS:          0
cpu0_STLB TRANSLATION  ACCESS:          0 HIT:          0 MISS:          0
cpu0_STLB PREFETCH REQUESTED:          0 ISSUED:          0 USEFUL:          0 USELESS:          0
cpu0_STLB AVERAGE MISS LATENCY: 194.7 cycles

DRAM Statistics

Channel 0 RQ ROW_BUFFER_HIT:     148306
  ROW_BUFFER_MISS:     109493
 AVG DBUS CONGESTED CYCLE: 3.991
WQ ROW_BUFFER_HIT: Channel 0 
  ROW_BUFFER_MISS:       3765
  FULL:      72629
