WARNING: physical memory size is smaller than virtual memory size.

*** ChampSim Multicore Out-of-Order Simulator ***
Warmup Instructions: 25000000
Simulation Instructions: 100000000
Number of CPUs: 1
Page size: 4096

[L1D] Demand IPV: 1 2 2 1 4 Prefetch IPV: 1 2 1 1 4
[L1I] Demand IPV: 1 2 2 1 4 Prefetch IPV: 1 2 1 1 4
[L2C] Demand IPV: 1 2 2 1 4 Prefetch IPV: 1 2 1 1 4
[LLC] Demand IPV: 1 2 2 1 4 Prefetch IPV: 1 2 1 1 4
Off-chip DRAM Size: 4 GiB Channels: 1 Width: 64-bit Data Race: 3200 MT/s
Heartbeat CPU 0 instructions: 10000001 cycles: 2530180 heartbeat IPC: 3.952 cumulative IPC: 3.952 (Simulation time: 00 hr 00 min 18 sec)
Heartbeat CPU 0 instructions: 20000001 cycles: 5030180 heartbeat IPC: 4 cumulative IPC: 3.976 (Simulation time: 00 hr 00 min 37 sec)
Warmup finished CPU 0 instructions: 25000001 cycles: 6280181 cumulative IPC: 3.981 (Simulation time: 00 hr 00 min 47 sec)
Warmup complete CPU 0 instructions: 25000001 cycles: 6280181 cumulative IPC: 3.981 (Simulation time: 00 hr 00 min 47 sec)
Heartbeat CPU 0 instructions: 30000000 cycles: 9912921 heartbeat IPC: 2.048 cumulative IPC: 1.376 (Simulation time: 00 hr 01 min 04 sec)
Heartbeat CPU 0 instructions: 40000001 cycles: 16691315 heartbeat IPC: 1.475 cumulative IPC: 1.441 (Simulation time: 00 hr 01 min 38 sec)
Heartbeat CPU 0 instructions: 50000001 cycles: 23141327 heartbeat IPC: 1.55 cumulative IPC: 1.483 (Simulation time: 00 hr 02 min 11 sec)
Heartbeat CPU 0 instructions: 60000001 cycles: 28579353 heartbeat IPC: 1.839 cumulative IPC: 1.57 (Simulation time: 00 hr 02 min 40 sec)
Heartbeat CPU 0 instructions: 70000000 cycles: 34622759 heartbeat IPC: 1.655 cumulative IPC: 1.588 (Simulation time: 00 hr 03 min 11 sec)
*** Reached end of trace: (0, "../traces/secret_traces/compute_int/compute_int_208.champsimtrace.xz")
Heartbeat CPU 0 instructions: 80000000 cycles: 40384331 heartbeat IPC: 1.736 cumulative IPC: 1.613 (Simulation time: 00 hr 03 min 42 sec)
Heartbeat CPU 0 instructions: 90000000 cycles: 49497440 heartbeat IPC: 1.097 cumulative IPC: 1.504 (Simulation time: 00 hr 04 min 24 sec)
Heartbeat CPU 0 instructions: 100000004 cycles: 56110380 heartbeat IPC: 1.512 cumulative IPC: 1.505 (Simulation time: 00 hr 04 min 57 sec)
Heartbeat CPU 0 instructions: 110000001 cycles: 63179970 heartbeat IPC: 1.415 cumulative IPC: 1.494 (Simulation time: 00 hr 05 min 31 sec)
Heartbeat CPU 0 instructions: 120000000 cycles: 69821832 heartbeat IPC: 1.506 cumulative IPC: 1.495 (Simulation time: 00 hr 06 min 05 sec)
Simulation finished CPU 0 instructions: 100000004 cycles: 66737755 cumulative IPC: 1.498 (Simulation time: 00 hr 06 min 21 sec)
Simulation complete CPU 0 instructions: 100000004 cycles: 66737755 cumulative IPC: 1.498 (Simulation time: 00 hr 06 min 21 sec)

ChampSim completed all CPUs

=== Simulation ===
CPU 0 runs ../traces/secret_traces/compute_int/compute_int_208.champsimtrace.xz
Region of Interest Statistics

CPU 0 cumulative IPC: 1.498 instructions: 100000004 cycles: 66737755
CPU 0 Branch Prediction Accuracy: 90.32% MPKI: 17.09 Average ROB Occupancy at Mispredict: 21.69
Branch type MPKI
BRANCH_DIRECT_JUMP: 0.00579
BRANCH_INDIRECT: 0.641
BRANCH_CONDITIONAL: 16.4
BRANCH_DIRECT_CALL: 0.0159
BRANCH_INDIRECT_CALL: 0.00605
BRANCH_RETURN: 0.00919

L1D TOTAL        ACCESS:   22424357 HIT:   20354202 MISS:    2070155
L1D LOAD         ACCESS:   15835844 HIT:   14574982 MISS:    1260862
L1D RFO          ACCESS:          0 HIT:          0 MISS:          0
L1D PREFETCH     ACCESS:          0 HIT:          0 MISS:          0
L1D WRITE        ACCESS:    6584876 HIT:    5777309 MISS:     807567
L1D TRANSLATION  ACCESS:       3637 HIT:       1911 MISS:       1726
L1D PREFETCH REQUESTED:          0 ISSUED:          0 USEFUL:          0 USELESS:          0
L1D AVERAGE MISS LATENCY: 47.27 cycles
L1I TOTAL        ACCESS:      55455 HIT:      37728 MISS:      17727
L1I LOAD         ACCESS:      55455 HIT:      37728 MISS:      17727
L1I RFO          ACCESS:          0 HIT:          0 MISS:          0
L1I PREFETCH     ACCESS:          0 HIT:          0 MISS:          0
L1I WRITE        ACCESS:          0 HIT:          0 MISS:          0
L1I TRANSLATION  ACCESS:          0 HIT:          0 MISS:          0
L1I PREFETCH REQUESTED:          0 ISSUED:          0 USEFUL:          0 USELESS:          0
L1I AVERAGE MISS LATENCY: 109.9 cycles
L2C TOTAL        ACCESS:    1601781 HIT:    1262680 MISS:     339101
L2C LOAD         ACCESS:     673077 HIT:     413812 MISS:     259265
L2C RFO          ACCESS:     294300 HIT:     222906 MISS:      71394
L2C PREFETCH     ACCESS:          0 HIT:          0 MISS:          0
L2C WRITE        ACCESS:     632683 HIT:     625212 MISS:       7471
L2C TRANSLATION  ACCESS:       1721 HIT:        750 MISS:        971
L2C PREFETCH REQUESTED:          0 ISSUED:          0 USEFUL:          0 USELESS:          0
L2C AVERAGE MISS LATENCY: 287.4 cycles
LLC TOTAL        ACCESS:     407150 HIT:      90376 MISS:     316774
LLC LOAD         ACCESS:     259265 HIT:      60662 MISS:     198603
LLC RFO          ACCESS:      71394 HIT:       5810 MISS:      65584
LLC PREFETCH     ACCESS:          0 HIT:          0 MISS:          0
LLC WRITE        ACCESS:      75520 HIT:      23814 MISS:      51706
LLC TRANSLATION  ACCESS:        971 HIT:         90 MISS:        881
LLC PREFETCH REQUESTED:          0 ISSUED:          0 USEFUL:          0 USELESS:          0
LLC AVERAGE MISS LATENCY: 285.9 cycles
cpu0_DTLB TOTAL        ACCESS:   18043419 HIT:   18005785 MISS:      37634
cpu0_DTLB LOAD         ACCESS:   18043419 HIT:   18005785 MISS:      37634
cpu0_DTLB RFO          ACCESS:          0 HIT:          0 MISS:          0
cpu0_DTLB PREFETCH     ACCESS:          0 HIT:          0 MISS:          0
cpu0_DTLB WRITE        ACCESS:          0 HIT:          0 MISS:          0
cpu0_DTLB TRANSLATION  ACCESS:          0 HIT:          0 MISS:          0
cpu0_DTLB PREFETCH REQUESTED:          0 ISSUED:          0 USEFUL:          0 USELESS:          0
cpu0_DTLB AVERAGE MISS LATENCY: 10.61 cycles
cpu0_ITLB TOTAL        ACCESS:      49602 HIT:      45882 MISS:       3720
cpu0_ITLB LOAD         ACCESS:      49602 HIT:      45882 MISS:       3720
cpu0_ITLB RFO          ACCESS:          0 HIT:          0 MISS:          0
cpu0_ITLB PREFETCH     ACCESS:          0 HIT:          0 MISS:          0
cpu0_ITLB WRITE        ACCESS:          0 HIT:          0 MISS:          0
cpu0_ITLB TRANSLATION  ACCESS:          0 HIT:          0 MISS:          0
cpu0_ITLB PREFETCH REQUESTED:          0 ISSUED:          0 USEFUL:          0 USELESS:          0
cpu0_ITLB AVERAGE MISS LATENCY: 21.69 cycles
cpu0_STLB TOTAL        ACCESS:      10770 HIT:       7261 MISS:       3509
cpu0_STLB LOAD         ACCESS:      10770 HIT:       7261 MISS:       3509
cpu0_STLB RFO          ACCESS:          0 HIT:          0 MISS:          0
cpu0_STLB PREFETCH     ACCESS:          0 HIT:          0 MISS:          0
cpu0_STLB WRITE        ACCESS:          0 HIT:          0 MISS:          0
cpu0_STLB TRANSLATION  ACCESS:          0 HIT:          0 MISS:          0
cpu0_STLB PREFETCH REQUESTED:          0 ISSUED:          0 USEFUL:          0 USELESS:          0
cpu0_STLB AVERAGE MISS LATENCY: 193.3 cycles

DRAM Statistics

Channel 0 RQ ROW_BUFFER_HIT:     153382
  ROW_BUFFER_MISS:     111680
 AVG DBUS CONGESTED CYCLE: 3.989
WQ ROW_BUFFER_HIT: Channel 0 
  ROW_BUFFER_MISS:       4106
  FULL:      70092
