WARNING: physical memory size is smaller than virtual memory size.

*** ChampSim Multicore Out-of-Order Simulator ***
Warmup Instructions: 25000000
Simulation Instructions: 100000000
Number of CPUs: 1
Page size: 4096

[L1D] Demand IPV: 1 2 2 1 4 Prefetch IPV: 1 2 1 1 4
[L1I] Demand IPV: 1 2 2 1 4 Prefetch IPV: 1 2 1 1 4
[L2C] Demand IPV: 1 2 2 1 4 Prefetch IPV: 1 2 1 1 4
[LLC] Demand IPV: 1 2 2 1 4 Prefetch IPV: 1 2 1 1 4
Off-chip DRAM Size: 4 GiB Channels: 1 Width: 64-bit Data Race: 3200 MT/s
Heartbeat CPU 0 instructions: 10000000 cycles: 2534438 heartbeat IPC: 3.946 cumulative IPC: 3.946 (Simulation time: 00 hr 00 min 21 sec)
Heartbeat CPU 0 instructions: 20000001 cycles: 5075006 heartbeat IPC: 3.936 cumulative IPC: 3.941 (Simulation time: 00 hr 00 min 41 sec)
Warmup finished CPU 0 instructions: 25000000 cycles: 6354159 cumulative IPC: 3.934 (Simulation time: 00 hr 00 min 51 sec)
Warmup complete CPU 0 instructions: 25000000 cycles: 6354159 cumulative IPC: 3.934 (Simulation time: 00 hr 00 min 51 sec)
Heartbeat CPU 0 instructions: 30000003 cycles: 10308937 heartbeat IPC: 1.911 cumulative IPC: 1.264 (Simulation time: 00 hr 01 min 10 sec)
Heartbeat CPU 0 instructions: 40000000 cycles: 16146800 heartbeat IPC: 1.713 cumulative IPC: 1.532 (Simulation time: 00 hr 01 min 44 sec)
Heartbeat CPU 0 instructions: 50000003 cycles: 22443358 heartbeat IPC: 1.588 cumulative IPC: 1.554 (Simulation time: 00 hr 02 min 20 sec)
Heartbeat CPU 0 instructions: 60000003 cycles: 30267098 heartbeat IPC: 1.278 cumulative IPC: 1.464 (Simulation time: 00 hr 02 min 58 sec)
Heartbeat CPU 0 instructions: 70000004 cycles: 38706238 heartbeat IPC: 1.185 cumulative IPC: 1.391 (Simulation time: 00 hr 03 min 39 sec)
Heartbeat CPU 0 instructions: 80000004 cycles: 45914982 heartbeat IPC: 1.387 cumulative IPC: 1.39 (Simulation time: 00 hr 04 min 15 sec)
Heartbeat CPU 0 instructions: 90000000 cycles: 53132568 heartbeat IPC: 1.386 cumulative IPC: 1.39 (Simulation time: 00 hr 04 min 52 sec)
Heartbeat CPU 0 instructions: 100000003 cycles: 62395817 heartbeat IPC: 1.08 cumulative IPC: 1.338 (Simulation time: 00 hr 05 min 34 sec)
*** Reached end of trace: (0, "../traces/secret_traces/compute_int/compute_int_945.champsimtrace.xz")
Heartbeat CPU 0 instructions: 110000003 cycles: 70370432 heartbeat IPC: 1.254 cumulative IPC: 1.328 (Simulation time: 00 hr 06 min 13 sec)
Heartbeat CPU 0 instructions: 120000002 cycles: 78326751 heartbeat IPC: 1.257 cumulative IPC: 1.32 (Simulation time: 00 hr 06 min 52 sec)
Simulation finished CPU 0 instructions: 100000004 cycles: 76647996 cumulative IPC: 1.305 (Simulation time: 00 hr 07 min 13 sec)
Simulation complete CPU 0 instructions: 100000004 cycles: 76647996 cumulative IPC: 1.305 (Simulation time: 00 hr 07 min 13 sec)

ChampSim completed all CPUs

=== Simulation ===
CPU 0 runs ../traces/secret_traces/compute_int/compute_int_945.champsimtrace.xz
Region of Interest Statistics

CPU 0 cumulative IPC: 1.305 instructions: 100000004 cycles: 76647996
CPU 0 Branch Prediction Accuracy: 89.52% MPKI: 21.33 Average ROB Occupancy at Mispredict: 17.58
Branch type MPKI
BRANCH_DIRECT_JUMP: 0.104
BRANCH_INDIRECT: 9.72
BRANCH_CONDITIONAL: 6.65
BRANCH_DIRECT_CALL: 0.188
BRANCH_INDIRECT_CALL: 4.55
BRANCH_RETURN: 0.128

L1D TOTAL        ACCESS:   32478661 HIT:   29713062 MISS:    2765599
L1D LOAD         ACCESS:   19188575 HIT:   17761389 MISS:    1427186
L1D RFO          ACCESS:          0 HIT:          0 MISS:          0
L1D PREFETCH     ACCESS:          0 HIT:          0 MISS:          0
L1D WRITE        ACCESS:   13285220 HIT:   11950843 MISS:    1334377
L1D TRANSLATION  ACCESS:       4866 HIT:        830 MISS:       4036
L1D PREFETCH REQUESTED:          0 ISSUED:          0 USEFUL:          0 USELESS:          0
L1D AVERAGE MISS LATENCY: 16 cycles
L1I TOTAL        ACCESS:    5772989 HIT:    5148457 MISS:     624532
L1I LOAD         ACCESS:    5772989 HIT:    5148457 MISS:     624532
L1I RFO          ACCESS:          0 HIT:          0 MISS:          0
L1I PREFETCH     ACCESS:          0 HIT:          0 MISS:          0
L1I WRITE        ACCESS:          0 HIT:          0 MISS:          0
L1I TRANSLATION  ACCESS:          0 HIT:          0 MISS:          0
L1I PREFETCH REQUESTED:          0 ISSUED:          0 USEFUL:          0 USELESS:          0
L1I AVERAGE MISS LATENCY: 20.35 cycles
L2C TOTAL        ACCESS:    2120468 HIT:    1578443 MISS:     542025
L2C LOAD         ACCESS:    1410240 HIT:    1122443 MISS:     287797
L2C RFO          ACCESS:     273481 HIT:      58728 MISS:     214753
L2C PREFETCH     ACCESS:          0 HIT:          0 MISS:          0
L2C WRITE        ACCESS:     432718 HIT:     396427 MISS:      36291
L2C TRANSLATION  ACCESS:       4029 HIT:        845 MISS:       3184
L2C PREFETCH REQUESTED:          0 ISSUED:          0 USEFUL:          0 USELESS:          0
L2C AVERAGE MISS LATENCY: 84.35 cycles
LLC TOTAL        ACCESS:     766883 HIT:     539278 MISS:     227605
LLC LOAD         ACCESS:     287797 HIT:     221266 MISS:      66531
LLC RFO          ACCESS:     214753 HIT:     111713 MISS:     103040
LLC PREFETCH     ACCESS:          0 HIT:          0 MISS:          0
LLC WRITE        ACCESS:     261149 HIT:     205522 MISS:      55627
LLC TRANSLATION  ACCESS:       3184 HIT:        777 MISS:       2407
LLC PREFETCH REQUESTED:          0 ISSUED:          0 USEFUL:          0 USELESS:          0
LLC AVERAGE MISS LATENCY: 155.6 cycles
cpu0_DTLB TOTAL        ACCESS:   24765664 HIT:   24462583 MISS:     303081
cpu0_DTLB LOAD         ACCESS:   24765664 HIT:   24462583 MISS:     303081
cpu0_DTLB RFO          ACCESS:          0 HIT:          0 MISS:          0
cpu0_DTLB PREFETCH     ACCESS:          0 HIT:          0 MISS:          0
cpu0_DTLB WRITE        ACCESS:          0 HIT:          0 MISS:          0
cpu0_DTLB TRANSLATION  ACCESS:          0 HIT:          0 MISS:          0
cpu0_DTLB PREFETCH REQUESTED:          0 ISSUED:          0 USEFUL:          0 USELESS:          0
cpu0_DTLB AVERAGE MISS LATENCY: 6.281 cycles
cpu0_ITLB TOTAL        ACCESS:    5128602 HIT:    4994520 MISS:     134082
cpu0_ITLB LOAD         ACCESS:    5128602 HIT:    4994520 MISS:     134082
cpu0_ITLB RFO          ACCESS:          0 HIT:          0 MISS:          0
cpu0_ITLB PREFETCH     ACCESS:          0 HIT:          0 MISS:          0
cpu0_ITLB WRITE        ACCESS:          0 HIT:          0 MISS:          0
cpu0_ITLB TRANSLATION  ACCESS:          0 HIT:          0 MISS:          0
cpu0_ITLB PREFETCH REQUESTED:          0 ISSUED:          0 USEFUL:          0 USELESS:          0
cpu0_ITLB AVERAGE MISS LATENCY: 4.192 cycles
cpu0_STLB TOTAL        ACCESS:     253353 HIT:     248642 MISS:       4711
cpu0_STLB LOAD         ACCESS:     253353 HIT:     248642 MISS:       4711
cpu0_STLB RFO          ACCESS:          0 HIT:          0 MISS:          0
cpu0_STLB PREFETCH     ACCESS:          0 HIT:          0 MISS:          0
cpu0_STLB WRITE        ACCESS:          0 HIT:          0 MISS:          0
cpu0_STLB TRANSLATION  ACCESS:          0 HIT:          0 MISS:          0
cpu0_STLB PREFETCH REQUESTED:          0 ISSUED:          0 USEFUL:          0 USELESS:          0
cpu0_STLB AVERAGE MISS LATENCY: 189.4 cycles

DRAM Statistics

Channel 0 RQ ROW_BUFFER_HIT:      53261
  ROW_BUFFER_MISS:     118697
 AVG DBUS CONGESTED CYCLE: 3.937
WQ ROW_BUFFER_HIT: Channel 0 
  ROW_BUFFER_MISS:      21514
  FULL:      89795
