WARNING: physical memory size is smaller than virtual memory size.

*** ChampSim Multicore Out-of-Order Simulator ***
Warmup Instructions: 25000000
Simulation Instructions: 100000000
Number of CPUs: 1
Page size: 4096

[L1D] Demand IPV: 1 2 2 1 4 Prefetch IPV: 1 2 1 1 4
[L1I] Demand IPV: 1 2 2 1 4 Prefetch IPV: 1 2 1 1 4
[L2C] Demand IPV: 1 2 2 1 4 Prefetch IPV: 1 2 1 1 4
[LLC] Demand IPV: 1 2 2 1 4 Prefetch IPV: 1 2 1 1 4
Off-chip DRAM Size: 4 GiB Channels: 1 Width: 64-bit Data Race: 3200 MT/s
Heartbeat CPU 0 instructions: 10000002 cycles: 2548791 heartbeat IPC: 3.923 cumulative IPC: 3.923 (Simulation time: 00 hr 00 min 18 sec)
Heartbeat CPU 0 instructions: 20000000 cycles: 5050988 heartbeat IPC: 3.996 cumulative IPC: 3.96 (Simulation time: 00 hr 00 min 37 sec)
Warmup finished CPU 0 instructions: 25000003 cycles: 6301181 cumulative IPC: 3.968 (Simulation time: 00 hr 00 min 47 sec)
Warmup complete CPU 0 instructions: 25000003 cycles: 6301181 cumulative IPC: 3.968 (Simulation time: 00 hr 00 min 47 sec)
Heartbeat CPU 0 instructions: 30000002 cycles: 7857700 heartbeat IPC: 3.563 cumulative IPC: 3.212 (Simulation time: 00 hr 01 min 00 sec)
Heartbeat CPU 0 instructions: 40000001 cycles: 11723614 heartbeat IPC: 2.587 cumulative IPC: 2.766 (Simulation time: 00 hr 01 min 27 sec)
Heartbeat CPU 0 instructions: 50000003 cycles: 15007647 heartbeat IPC: 3.045 cumulative IPC: 2.871 (Simulation time: 00 hr 01 min 52 sec)
Heartbeat CPU 0 instructions: 60000001 cycles: 18024685 heartbeat IPC: 3.315 cumulative IPC: 2.985 (Simulation time: 00 hr 02 min 16 sec)
Heartbeat CPU 0 instructions: 70000004 cycles: 21703490 heartbeat IPC: 2.718 cumulative IPC: 2.922 (Simulation time: 00 hr 02 min 44 sec)
Heartbeat CPU 0 instructions: 80000002 cycles: 28397350 heartbeat IPC: 1.494 cumulative IPC: 2.489 (Simulation time: 00 hr 03 min 23 sec)
Heartbeat CPU 0 instructions: 90000000 cycles: 35074969 heartbeat IPC: 1.498 cumulative IPC: 2.259 (Simulation time: 00 hr 03 min 57 sec)
Heartbeat CPU 0 instructions: 100000001 cycles: 41397791 heartbeat IPC: 1.582 cumulative IPC: 2.137 (Simulation time: 00 hr 04 min 30 sec)
*** Reached end of trace: (0, "../traces/secret_traces/compute_int/compute_int_36.champsimtrace.xz")
Heartbeat CPU 0 instructions: 110000003 cycles: 48717156 heartbeat IPC: 1.366 cumulative IPC: 2.004 (Simulation time: 00 hr 05 min 06 sec)
Heartbeat CPU 0 instructions: 120000002 cycles: 56652063 heartbeat IPC: 1.26 cumulative IPC: 1.887 (Simulation time: 00 hr 05 min 45 sec)
Simulation finished CPU 0 instructions: 100000002 cycles: 51865816 cumulative IPC: 1.928 (Simulation time: 00 hr 05 min 58 sec)
Simulation complete CPU 0 instructions: 100000002 cycles: 51865816 cumulative IPC: 1.928 (Simulation time: 00 hr 05 min 58 sec)

ChampSim completed all CPUs

=== Simulation ===
CPU 0 runs ../traces/secret_traces/compute_int/compute_int_36.champsimtrace.xz
Region of Interest Statistics

CPU 0 cumulative IPC: 1.928 instructions: 100000002 cycles: 51865816
CPU 0 Branch Prediction Accuracy: 91.11% MPKI: 10.59 Average ROB Occupancy at Mispredict: 22.86
Branch type MPKI
BRANCH_DIRECT_JUMP: 0.0052
BRANCH_INDIRECT: 2.19
BRANCH_CONDITIONAL: 8.37
BRANCH_DIRECT_CALL: 0.0123
BRANCH_INDIRECT_CALL: 0.00622
BRANCH_RETURN: 0.00689

L1D TOTAL        ACCESS:   29481001 HIT:   26887178 MISS:    2593823
L1D LOAD         ACCESS:   17139106 HIT:   15430524 MISS:    1708582
L1D RFO          ACCESS:          0 HIT:          0 MISS:          0
L1D PREFETCH     ACCESS:          0 HIT:          0 MISS:          0
L1D WRITE        ACCESS:   12340203 HIT:   11456018 MISS:     884185
L1D TRANSLATION  ACCESS:       1692 HIT:        636 MISS:       1056
L1D PREFETCH REQUESTED:          0 ISSUED:          0 USEFUL:          0 USELESS:          0
L1D AVERAGE MISS LATENCY: 25.92 cycles
L1I TOTAL        ACCESS:    2515160 HIT:    2401973 MISS:     113187
L1I LOAD         ACCESS:    2515160 HIT:    2401973 MISS:     113187
L1I RFO          ACCESS:          0 HIT:          0 MISS:          0
L1I PREFETCH     ACCESS:          0 HIT:          0 MISS:          0
L1I WRITE        ACCESS:          0 HIT:          0 MISS:          0
L1I TRANSLATION  ACCESS:          0 HIT:          0 MISS:          0
L1I PREFETCH REQUESTED:          0 ISSUED:          0 USEFUL:          0 USELESS:          0
L1I AVERAGE MISS LATENCY: 15.33 cycles
L2C TOTAL        ACCESS:    1418023 HIT:    1036312 MISS:     381711
L2C LOAD         ACCESS:     862365 HIT:     623657 MISS:     238708
L2C RFO          ACCESS:     254877 HIT:     133799 MISS:     121078
L2C PREFETCH     ACCESS:          0 HIT:          0 MISS:          0
L2C WRITE        ACCESS:     299729 HIT:     278614 MISS:      21115
L2C TRANSLATION  ACCESS:       1052 HIT:        242 MISS:        810
L2C PREFETCH REQUESTED:          0 ISSUED:          0 USEFUL:          0 USELESS:          0
L2C AVERAGE MISS LATENCY: 186.3 cycles
LLC TOTAL        ACCESS:     511590 HIT:     310610 MISS:     200980
LLC LOAD         ACCESS:     238708 HIT:     156533 MISS:      82175
LLC RFO          ACCESS:     121078 HIT:      53580 MISS:      67498
LLC PREFETCH     ACCESS:          0 HIT:          0 MISS:          0
LLC WRITE        ACCESS:     150994 HIT:     100443 MISS:      50551
LLC TRANSLATION  ACCESS:        810 HIT:         54 MISS:        756
LLC PREFETCH REQUESTED:          0 ISSUED:          0 USEFUL:          0 USELESS:          0
LLC AVERAGE MISS LATENCY: 317.1 cycles
cpu0_DTLB TOTAL        ACCESS:   22749703 HIT:   22371122 MISS:     378581
cpu0_DTLB LOAD         ACCESS:   22749703 HIT:   22371122 MISS:     378581
cpu0_DTLB RFO          ACCESS:          0 HIT:          0 MISS:          0
cpu0_DTLB PREFETCH     ACCESS:          0 HIT:          0 MISS:          0
cpu0_DTLB WRITE        ACCESS:          0 HIT:          0 MISS:          0
cpu0_DTLB TRANSLATION  ACCESS:          0 HIT:          0 MISS:          0
cpu0_DTLB PREFETCH REQUESTED:          0 ISSUED:          0 USEFUL:          0 USELESS:          0
cpu0_DTLB AVERAGE MISS LATENCY: 7.031 cycles
cpu0_ITLB TOTAL        ACCESS:    2198043 HIT:    2194261 MISS:       3782
cpu0_ITLB LOAD         ACCESS:    2198043 HIT:    2194261 MISS:       3782
cpu0_ITLB RFO          ACCESS:          0 HIT:          0 MISS:          0
cpu0_ITLB PREFETCH     ACCESS:          0 HIT:          0 MISS:          0
cpu0_ITLB WRITE        ACCESS:          0 HIT:          0 MISS:          0
cpu0_ITLB TRANSLATION  ACCESS:          0 HIT:          0 MISS:          0
cpu0_ITLB PREFETCH REQUESTED:          0 ISSUED:          0 USEFUL:          0 USELESS:          0
cpu0_ITLB AVERAGE MISS LATENCY: 17.19 cycles
cpu0_STLB TOTAL        ACCESS:     316056 HIT:     314440 MISS:       1616
cpu0_STLB LOAD         ACCESS:     316056 HIT:     314440 MISS:       1616
cpu0_STLB RFO          ACCESS:          0 HIT:          0 MISS:          0
cpu0_STLB PREFETCH     ACCESS:          0 HIT:          0 MISS:          0
cpu0_STLB WRITE        ACCESS:          0 HIT:          0 MISS:          0
cpu0_STLB TRANSLATION  ACCESS:          0 HIT:          0 MISS:          0
cpu0_STLB PREFETCH REQUESTED:          0 ISSUED:          0 USEFUL:          0 USELESS:          0
cpu0_STLB AVERAGE MISS LATENCY: 281 cycles

DRAM Statistics

Channel 0 RQ ROW_BUFFER_HIT:      49128
  ROW_BUFFER_MISS:     101216
 AVG DBUS CONGESTED CYCLE: 3.971
WQ ROW_BUFFER_HIT: Channel 0 
  ROW_BUFFER_MISS:       7362
  FULL:      79823
