WARNING: physical memory size is smaller than virtual memory size.

*** ChampSim Multicore Out-of-Order Simulator ***
Warmup Instructions: 25000000
Simulation Instructions: 100000000
Number of CPUs: 1
Page size: 4096

[L1D] Demand IPV: 1 2 2 1 4 Prefetch IPV: 1 2 1 1 4
[L1I] Demand IPV: 1 2 2 1 4 Prefetch IPV: 1 2 1 1 4
[L2C] Demand IPV: 1 2 2 1 4 Prefetch IPV: 1 2 1 1 4
[LLC] Demand IPV: 1 2 2 1 4 Prefetch IPV: 1 2 1 1 4
Off-chip DRAM Size: 4 GiB Channels: 1 Width: 64-bit Data Race: 3200 MT/s
Heartbeat CPU 0 instructions: 10000000 cycles: 2529888 heartbeat IPC: 3.953 cumulative IPC: 3.953 (Simulation time: 00 hr 00 min 19 sec)
Heartbeat CPU 0 instructions: 20000001 cycles: 5029947 heartbeat IPC: 4 cumulative IPC: 3.976 (Simulation time: 00 hr 00 min 37 sec)
Warmup finished CPU 0 instructions: 25000003 cycles: 6280053 cumulative IPC: 3.981 (Simulation time: 00 hr 00 min 46 sec)
Warmup complete CPU 0 instructions: 25000003 cycles: 6280053 cumulative IPC: 3.981 (Simulation time: 00 hr 00 min 46 sec)
Heartbeat CPU 0 instructions: 30000000 cycles: 9605412 heartbeat IPC: 2.186 cumulative IPC: 1.504 (Simulation time: 00 hr 01 min 02 sec)
Heartbeat CPU 0 instructions: 40000000 cycles: 16064603 heartbeat IPC: 1.548 cumulative IPC: 1.533 (Simulation time: 00 hr 01 min 34 sec)
Heartbeat CPU 0 instructions: 50000001 cycles: 22088603 heartbeat IPC: 1.66 cumulative IPC: 1.581 (Simulation time: 00 hr 02 min 05 sec)
Heartbeat CPU 0 instructions: 60000000 cycles: 27742415 heartbeat IPC: 1.769 cumulative IPC: 1.631 (Simulation time: 00 hr 02 min 35 sec)
Heartbeat CPU 0 instructions: 70000000 cycles: 34599008 heartbeat IPC: 1.458 cumulative IPC: 1.589 (Simulation time: 00 hr 03 min 08 sec)
*** Reached end of trace: (0, "../traces/secret_traces/compute_int/compute_int_154.champsimtrace.xz")
Heartbeat CPU 0 instructions: 80000002 cycles: 41366597 heartbeat IPC: 1.478 cumulative IPC: 1.568 (Simulation time: 00 hr 03 min 40 sec)
Heartbeat CPU 0 instructions: 90000001 cycles: 49783678 heartbeat IPC: 1.188 cumulative IPC: 1.494 (Simulation time: 00 hr 04 min 19 sec)
Heartbeat CPU 0 instructions: 100000000 cycles: 55683221 heartbeat IPC: 1.695 cumulative IPC: 1.518 (Simulation time: 00 hr 04 min 50 sec)
Heartbeat CPU 0 instructions: 110000000 cycles: 62231189 heartbeat IPC: 1.527 cumulative IPC: 1.519 (Simulation time: 00 hr 05 min 23 sec)
Heartbeat CPU 0 instructions: 120000001 cycles: 68445907 heartbeat IPC: 1.609 cumulative IPC: 1.528 (Simulation time: 00 hr 05 min 54 sec)
Simulation finished CPU 0 instructions: 100000003 cycles: 65227314 cumulative IPC: 1.533 (Simulation time: 00 hr 06 min 09 sec)
Simulation complete CPU 0 instructions: 100000003 cycles: 65227314 cumulative IPC: 1.533 (Simulation time: 00 hr 06 min 09 sec)

ChampSim completed all CPUs

=== Simulation ===
CPU 0 runs ../traces/secret_traces/compute_int/compute_int_154.champsimtrace.xz
Region of Interest Statistics

CPU 0 cumulative IPC: 1.533 instructions: 100000003 cycles: 65227314
CPU 0 Branch Prediction Accuracy: 90.2% MPKI: 17.27 Average ROB Occupancy at Mispredict: 22.34
Branch type MPKI
BRANCH_DIRECT_JUMP: 0.00577
BRANCH_INDIRECT: 0.644
BRANCH_CONDITIONAL: 16.6
BRANCH_DIRECT_CALL: 0.0159
BRANCH_INDIRECT_CALL: 0.00631
BRANCH_RETURN: 0.00921

L1D TOTAL        ACCESS:   22233083 HIT:   20336285 MISS:    1896798
L1D LOAD         ACCESS:   15494988 HIT:   14290592 MISS:    1204396
L1D RFO          ACCESS:          0 HIT:          0 MISS:          0
L1D PREFETCH     ACCESS:          0 HIT:          0 MISS:          0
L1D WRITE        ACCESS:    6734526 HIT:    6044674 MISS:     689852
L1D TRANSLATION  ACCESS:       3569 HIT:       1019 MISS:       2550
L1D PREFETCH REQUESTED:          0 ISSUED:          0 USEFUL:          0 USELESS:          0
L1D AVERAGE MISS LATENCY: 14.97 cycles
L1I TOTAL        ACCESS:      55301 HIT:      37526 MISS:      17775
L1I LOAD         ACCESS:      55301 HIT:      37526 MISS:      17775
L1I RFO          ACCESS:          0 HIT:          0 MISS:          0
L1I PREFETCH     ACCESS:          0 HIT:          0 MISS:          0
L1I WRITE        ACCESS:          0 HIT:          0 MISS:          0
L1I TRANSLATION  ACCESS:          0 HIT:          0 MISS:          0
L1I PREFETCH REQUESTED:          0 ISSUED:          0 USEFUL:          0 USELESS:          0
L1I AVERAGE MISS LATENCY: 73.49 cycles
L2C TOTAL        ACCESS:    1386578 HIT:    1191020 MISS:     195558
L2C LOAD         ACCESS:     472489 HIT:     354171 MISS:     118318
L2C RFO          ACCESS:     296815 HIT:     225757 MISS:      71058
L2C PREFETCH     ACCESS:          0 HIT:          0 MISS:          0
L2C WRITE        ACCESS:     614726 HIT:     609490 MISS:       5236
L2C TRANSLATION  ACCESS:       2548 HIT:       1602 MISS:        946
L2C PREFETCH REQUESTED:          0 ISSUED:          0 USEFUL:          0 USELESS:          0
L2C AVERAGE MISS LATENCY: 140.1 cycles
LLC TOTAL        ACCESS:     265484 HIT:      74592 MISS:     190892
LLC LOAD         ACCESS:     118318 HIT:      13430 MISS:     104888
LLC RFO          ACCESS:      71058 HIT:      24314 MISS:      46744
LLC PREFETCH     ACCESS:          0 HIT:          0 MISS:          0
LLC WRITE        ACCESS:      75162 HIT:      36655 MISS:      38507
LLC TRANSLATION  ACCESS:        946 HIT:        193 MISS:        753
LLC PREFETCH REQUESTED:          0 ISSUED:          0 USEFUL:          0 USELESS:          0
LLC AVERAGE MISS LATENCY: 122.7 cycles
cpu0_DTLB TOTAL        ACCESS:   18028603 HIT:   18007209 MISS:      21394
cpu0_DTLB LOAD         ACCESS:   18028603 HIT:   18007209 MISS:      21394
cpu0_DTLB RFO          ACCESS:          0 HIT:          0 MISS:          0
cpu0_DTLB PREFETCH     ACCESS:          0 HIT:          0 MISS:          0
cpu0_DTLB WRITE        ACCESS:          0 HIT:          0 MISS:          0
cpu0_DTLB TRANSLATION  ACCESS:          0 HIT:          0 MISS:          0
cpu0_DTLB PREFETCH REQUESTED:          0 ISSUED:          0 USEFUL:          0 USELESS:          0
cpu0_DTLB AVERAGE MISS LATENCY: 15.34 cycles
cpu0_ITLB TOTAL        ACCESS:      49461 HIT:      45785 MISS:       3676
cpu0_ITLB LOAD         ACCESS:      49461 HIT:      45785 MISS:       3676
cpu0_ITLB RFO          ACCESS:          0 HIT:          0 MISS:          0
cpu0_ITLB PREFETCH     ACCESS:          0 HIT:          0 MISS:          0
cpu0_ITLB WRITE        ACCESS:          0 HIT:          0 MISS:          0
cpu0_ITLB TRANSLATION  ACCESS:          0 HIT:          0 MISS:          0
cpu0_ITLB PREFETCH REQUESTED:          0 ISSUED:          0 USEFUL:          0 USELESS:          0
cpu0_ITLB AVERAGE MISS LATENCY: 18.36 cycles
cpu0_STLB TOTAL        ACCESS:       8109 HIT:       4662 MISS:       3447
cpu0_STLB LOAD         ACCESS:       8109 HIT:       4662 MISS:       3447
cpu0_STLB RFO          ACCESS:          0 HIT:          0 MISS:          0
cpu0_STLB PREFETCH     ACCESS:          0 HIT:          0 MISS:          0
cpu0_STLB WRITE        ACCESS:          0 HIT:          0 MISS:          0
cpu0_STLB TRANSLATION  ACCESS:          0 HIT:          0 MISS:          0
cpu0_STLB PREFETCH REQUESTED:          0 ISSUED:          0 USEFUL:          0 USELESS:          0
cpu0_STLB AVERAGE MISS LATENCY: 127.4 cycles

DRAM Statistics

Channel 0 RQ ROW_BUFFER_HIT:      96468
  ROW_BUFFER_MISS:      55912
 AVG DBUS CONGESTED CYCLE: 3.937
WQ ROW_BUFFER_HIT: Channel 0 
  ROW_BUFFER_MISS:       4325
  FULL:      41733
