WARNING: physical memory size is smaller than virtual memory size.

*** ChampSim Multicore Out-of-Order Simulator ***
Warmup Instructions: 25000000
Simulation Instructions: 100000000
Number of CPUs: 1
Page size: 4096

[L1D] Demand IPV: 1 2 2 1 4 Prefetch IPV: 1 2 1 1 4
[L1I] Demand IPV: 1 2 2 1 4 Prefetch IPV: 1 2 1 1 4
[L2C] Demand IPV: 1 2 2 1 4 Prefetch IPV: 1 2 1 1 4
[LLC] Demand IPV: 1 2 2 1 4 Prefetch IPV: 1 2 1 1 4
Off-chip DRAM Size: 4 GiB Channels: 1 Width: 64-bit Data Race: 3200 MT/s
Heartbeat CPU 0 instructions: 10000004 cycles: 2567527 heartbeat IPC: 3.895 cumulative IPC: 3.895 (Simulation time: 00 hr 00 min 18 sec)
Heartbeat CPU 0 instructions: 20000001 cycles: 5117227 heartbeat IPC: 3.922 cumulative IPC: 3.908 (Simulation time: 00 hr 00 min 37 sec)
Warmup finished CPU 0 instructions: 25000000 cycles: 6390824 cumulative IPC: 3.912 (Simulation time: 00 hr 00 min 46 sec)
Warmup complete CPU 0 instructions: 25000000 cycles: 6390824 cumulative IPC: 3.912 (Simulation time: 00 hr 00 min 46 sec)
Heartbeat CPU 0 instructions: 30000001 cycles: 8199842 heartbeat IPC: 3.244 cumulative IPC: 2.764 (Simulation time: 00 hr 00 min 58 sec)
Heartbeat CPU 0 instructions: 40000002 cycles: 11786316 heartbeat IPC: 2.788 cumulative IPC: 2.78 (Simulation time: 00 hr 01 min 23 sec)
Heartbeat CPU 0 instructions: 50000000 cycles: 15337106 heartbeat IPC: 2.816 cumulative IPC: 2.794 (Simulation time: 00 hr 01 min 48 sec)
Heartbeat CPU 0 instructions: 60000002 cycles: 18866323 heartbeat IPC: 2.833 cumulative IPC: 2.805 (Simulation time: 00 hr 02 min 12 sec)
Heartbeat CPU 0 instructions: 70000002 cycles: 22365217 heartbeat IPC: 2.858 cumulative IPC: 2.817 (Simulation time: 00 hr 02 min 37 sec)
Heartbeat CPU 0 instructions: 80000002 cycles: 25929732 heartbeat IPC: 2.805 cumulative IPC: 2.815 (Simulation time: 00 hr 03 min 02 sec)
Heartbeat CPU 0 instructions: 90000001 cycles: 29480483 heartbeat IPC: 2.816 cumulative IPC: 2.815 (Simulation time: 00 hr 03 min 26 sec)
Heartbeat CPU 0 instructions: 100000003 cycles: 32987262 heartbeat IPC: 2.852 cumulative IPC: 2.82 (Simulation time: 00 hr 03 min 51 sec)
*** Reached end of trace: (0, "../traces/secret_traces/compute_fp/compute_fp_43.champsimtrace.xz")
Heartbeat CPU 0 instructions: 110000000 cycles: 39257739 heartbeat IPC: 1.595 cumulative IPC: 2.586 (Simulation time: 00 hr 04 min 24 sec)
Heartbeat CPU 0 instructions: 120000000 cycles: 42927167 heartbeat IPC: 2.725 cumulative IPC: 2.6 (Simulation time: 00 hr 04 min 49 sec)
Simulation finished CPU 0 instructions: 100000001 cycles: 38268894 cumulative IPC: 2.613 (Simulation time: 00 hr 05 min 01 sec)
Simulation complete CPU 0 instructions: 100000001 cycles: 38268894 cumulative IPC: 2.613 (Simulation time: 00 hr 05 min 01 sec)

ChampSim completed all CPUs

=== Simulation ===
CPU 0 runs ../traces/secret_traces/compute_fp/compute_fp_43.champsimtrace.xz
Region of Interest Statistics

CPU 0 cumulative IPC: 2.613 instructions: 100000001 cycles: 38268894
CPU 0 Branch Prediction Accuracy: 96.22% MPKI: 5.988 Average ROB Occupancy at Mispredict: 29.84
Branch type MPKI
BRANCH_DIRECT_JUMP: 0.00776
BRANCH_INDIRECT: 0.487
BRANCH_CONDITIONAL: 5.45
BRANCH_DIRECT_CALL: 0.0211
BRANCH_INDIRECT_CALL: 0.00993
BRANCH_RETURN: 0.0116

L1D TOTAL        ACCESS:   33070462 HIT:   32119213 MISS:     951249
L1D LOAD         ACCESS:   27729378 HIT:   27204615 MISS:     524763
L1D RFO          ACCESS:          0 HIT:          0 MISS:          0
L1D PREFETCH     ACCESS:          0 HIT:          0 MISS:          0
L1D WRITE        ACCESS:    5338758 HIT:    4914078 MISS:     424680
L1D TRANSLATION  ACCESS:       2326 HIT:        520 MISS:       1806
L1D PREFETCH REQUESTED:          0 ISSUED:          0 USEFUL:          0 USELESS:          0
L1D AVERAGE MISS LATENCY: 16.28 cycles
L1I TOTAL        ACCESS:     119614 HIT:      93001 MISS:      26613
L1I LOAD         ACCESS:     119614 HIT:      93001 MISS:      26613
L1I RFO          ACCESS:          0 HIT:          0 MISS:          0
L1I PREFETCH     ACCESS:          0 HIT:          0 MISS:          0
L1I WRITE        ACCESS:          0 HIT:          0 MISS:          0
L1I TRANSLATION  ACCESS:          0 HIT:          0 MISS:          0
L1I PREFETCH REQUESTED:          0 ISSUED:          0 USEFUL:          0 USELESS:          0
L1I AVERAGE MISS LATENCY: 55.42 cycles
L2C TOTAL        ACCESS:     402994 HIT:     298312 MISS:     104682
L2C LOAD         ACCESS:     212520 HIT:     142672 MISS:      69848
L2C RFO          ACCESS:      78660 HIT:      49684 MISS:      28976
L2C PREFETCH     ACCESS:          0 HIT:          0 MISS:          0
L2C WRITE        ACCESS:     110012 HIT:     105489 MISS:       4523
L2C TRANSLATION  ACCESS:       1802 HIT:        467 MISS:       1335
L2C PREFETCH REQUESTED:          0 ISSUED:          0 USEFUL:          0 USELESS:          0
L2C AVERAGE MISS LATENCY: 154.1 cycles
LLC TOTAL        ACCESS:     145651 HIT:      77251 MISS:      68400
LLC LOAD         ACCESS:      69848 HIT:      25383 MISS:      44465
LLC RFO          ACCESS:      28976 HIT:      21205 MISS:       7771
LLC PREFETCH     ACCESS:          0 HIT:          0 MISS:          0
LLC WRITE        ACCESS:      45492 HIT:      30394 MISS:      15098
LLC TRANSLATION  ACCESS:       1335 HIT:        269 MISS:       1066
LLC PREFETCH REQUESTED:          0 ISSUED:          0 USEFUL:          0 USELESS:          0
LLC AVERAGE MISS LATENCY: 205.7 cycles
cpu0_DTLB TOTAL        ACCESS:   24158730 HIT:   24127446 MISS:      31284
cpu0_DTLB LOAD         ACCESS:   24158730 HIT:   24127446 MISS:      31284
cpu0_DTLB RFO          ACCESS:          0 HIT:          0 MISS:          0
cpu0_DTLB PREFETCH     ACCESS:          0 HIT:          0 MISS:          0
cpu0_DTLB WRITE        ACCESS:          0 HIT:          0 MISS:          0
cpu0_DTLB TRANSLATION  ACCESS:          0 HIT:          0 MISS:          0
cpu0_DTLB PREFETCH REQUESTED:          0 ISSUED:          0 USEFUL:          0 USELESS:          0
cpu0_DTLB AVERAGE MISS LATENCY: 12.25 cycles
cpu0_ITLB TOTAL        ACCESS:     105998 HIT:     100648 MISS:       5350
cpu0_ITLB LOAD         ACCESS:     105998 HIT:     100648 MISS:       5350
cpu0_ITLB RFO          ACCESS:          0 HIT:          0 MISS:          0
cpu0_ITLB PREFETCH     ACCESS:          0 HIT:          0 MISS:          0
cpu0_ITLB WRITE        ACCESS:          0 HIT:          0 MISS:          0
cpu0_ITLB TRANSLATION  ACCESS:          0 HIT:          0 MISS:          0
cpu0_ITLB PREFETCH REQUESTED:          0 ISSUED:          0 USEFUL:          0 USELESS:          0
cpu0_ITLB AVERAGE MISS LATENCY: 13.66 cycles
cpu0_STLB TOTAL        ACCESS:      18531 HIT:      16354 MISS:       2177
cpu0_STLB LOAD         ACCESS:      18531 HIT:      16354 MISS:       2177
cpu0_STLB RFO          ACCESS:          0 HIT:          0 MISS:          0
cpu0_STLB PREFETCH     ACCESS:          0 HIT:          0 MISS:          0
cpu0_STLB WRITE        ACCESS:          0 HIT:          0 MISS:          0
cpu0_STLB TRANSLATION  ACCESS:          0 HIT:          0 MISS:          0
cpu0_STLB PREFETCH REQUESTED:          0 ISSUED:          0 USEFUL:          0 USELESS:          0
cpu0_STLB AVERAGE MISS LATENCY: 182.2 cycles

DRAM Statistics

Channel 0 RQ ROW_BUFFER_HIT:      21468
  ROW_BUFFER_MISS:      31831
 AVG DBUS CONGESTED CYCLE: 3.935
WQ ROW_BUFFER_HIT: Channel 0 
  ROW_BUFFER_MISS:       4921
  FULL:      16890
