WARNING: physical memory size is smaller than virtual memory size.

*** ChampSim Multicore Out-of-Order Simulator ***
Warmup Instructions: 25000000
Simulation Instructions: 100000000
Number of CPUs: 1
Page size: 4096

[L1D] Demand IPV: 1 2 2 1 4 Prefetch IPV: 1 2 1 1 4
[L1I] Demand IPV: 1 2 2 1 4 Prefetch IPV: 1 2 1 1 4
[L2C] Demand IPV: 1 2 2 1 4 Prefetch IPV: 1 2 1 1 4
[LLC] Demand IPV: 1 2 2 1 4 Prefetch IPV: 1 2 1 1 4
Off-chip DRAM Size: 4 GiB Channels: 1 Width: 64-bit Data Race: 3200 MT/s
Heartbeat CPU 0 instructions: 10000000 cycles: 2501055 heartbeat IPC: 3.998 cumulative IPC: 3.998 (Simulation time: 00 hr 00 min 19 sec)
Heartbeat CPU 0 instructions: 20000003 cycles: 5004387 heartbeat IPC: 3.995 cumulative IPC: 3.996 (Simulation time: 00 hr 00 min 38 sec)
Warmup finished CPU 0 instructions: 25000000 cycles: 6255591 cumulative IPC: 3.996 (Simulation time: 00 hr 00 min 48 sec)
Warmup complete CPU 0 instructions: 25000000 cycles: 6255591 cumulative IPC: 3.996 (Simulation time: 00 hr 00 min 48 sec)
Heartbeat CPU 0 instructions: 30000003 cycles: 8822962 heartbeat IPC: 2.619 cumulative IPC: 1.948 (Simulation time: 00 hr 01 min 02 sec)
Heartbeat CPU 0 instructions: 40000000 cycles: 15895005 heartbeat IPC: 1.414 cumulative IPC: 1.556 (Simulation time: 00 hr 01 min 38 sec)
Heartbeat CPU 0 instructions: 50000002 cycles: 23180370 heartbeat IPC: 1.373 cumulative IPC: 1.477 (Simulation time: 00 hr 02 min 16 sec)
Heartbeat CPU 0 instructions: 60000001 cycles: 29895827 heartbeat IPC: 1.489 cumulative IPC: 1.481 (Simulation time: 00 hr 02 min 52 sec)
Heartbeat CPU 0 instructions: 70000002 cycles: 37254479 heartbeat IPC: 1.359 cumulative IPC: 1.452 (Simulation time: 00 hr 03 min 30 sec)
Heartbeat CPU 0 instructions: 80000001 cycles: 43942404 heartbeat IPC: 1.495 cumulative IPC: 1.459 (Simulation time: 00 hr 04 min 09 sec)
Heartbeat CPU 0 instructions: 90000002 cycles: 49798982 heartbeat IPC: 1.707 cumulative IPC: 1.493 (Simulation time: 00 hr 04 min 43 sec)
Heartbeat CPU 0 instructions: 100000000 cycles: 53629476 heartbeat IPC: 2.611 cumulative IPC: 1.583 (Simulation time: 00 hr 05 min 11 sec)
*** Reached end of trace: (0, "../traces/secret_traces/compute_int/compute_int_255.champsimtrace.xz")
Heartbeat CPU 0 instructions: 110000004 cycles: 59856675 heartbeat IPC: 1.606 cumulative IPC: 1.586 (Simulation time: 00 hr 05 min 44 sec)
Heartbeat CPU 0 instructions: 120000004 cycles: 68438650 heartbeat IPC: 1.165 cumulative IPC: 1.528 (Simulation time: 00 hr 06 min 25 sec)
Simulation finished CPU 0 instructions: 100000000 cycles: 65882549 cumulative IPC: 1.518 (Simulation time: 00 hr 06 min 44 sec)
Simulation complete CPU 0 instructions: 100000000 cycles: 65882549 cumulative IPC: 1.518 (Simulation time: 00 hr 06 min 44 sec)

ChampSim completed all CPUs

=== Simulation ===
CPU 0 runs ../traces/secret_traces/compute_int/compute_int_255.champsimtrace.xz
Region of Interest Statistics

CPU 0 cumulative IPC: 1.518 instructions: 100000000 cycles: 65882549
CPU 0 Branch Prediction Accuracy: 92.46% MPKI: 11.81 Average ROB Occupancy at Mispredict: 35.02
Branch type MPKI
BRANCH_DIRECT_JUMP: 0.00443
BRANCH_INDIRECT: 2.92
BRANCH_CONDITIONAL: 8.87
BRANCH_DIRECT_CALL: 0.0113
BRANCH_INDIRECT_CALL: 0.0064
BRANCH_RETURN: 0.00657

L1D TOTAL        ACCESS:   26629801 HIT:   22496230 MISS:    4133571
L1D LOAD         ACCESS:   21257523 HIT:   17640547 MISS:    3616976
L1D RFO          ACCESS:          0 HIT:          0 MISS:          0
L1D PREFETCH     ACCESS:          0 HIT:          0 MISS:          0
L1D WRITE        ACCESS:    5370439 HIT:    4855219 MISS:     515220
L1D TRANSLATION  ACCESS:       1839 HIT:        464 MISS:       1375
L1D PREFETCH REQUESTED:          0 ISSUED:          0 USEFUL:          0 USELESS:          0
L1D AVERAGE MISS LATENCY: 30.49 cycles
L1I TOTAL        ACCESS:     895890 HIT:     819553 MISS:      76337
L1I LOAD         ACCESS:     895890 HIT:     819553 MISS:      76337
L1I RFO          ACCESS:          0 HIT:          0 MISS:          0
L1I PREFETCH     ACCESS:          0 HIT:          0 MISS:          0
L1I WRITE        ACCESS:          0 HIT:          0 MISS:          0
L1I TRANSLATION  ACCESS:          0 HIT:          0 MISS:          0
L1I PREFETCH REQUESTED:          0 ISSUED:          0 USEFUL:          0 USELESS:          0
L1I AVERAGE MISS LATENCY: 26.67 cycles
L2C TOTAL        ACCESS:    2861391 HIT:    1811458 MISS:    1049933
L2C LOAD         ACCESS:    2084011 HIT:    1338030 MISS:     745981
L2C RFO          ACCESS:     372288 HIT:     111328 MISS:     260960
L2C PREFETCH     ACCESS:          0 HIT:          0 MISS:          0
L2C WRITE        ACCESS:     403723 HIT:     361790 MISS:      41933
L2C TRANSLATION  ACCESS:       1369 HIT:        310 MISS:       1059
L2C PREFETCH REQUESTED:          0 ISSUED:          0 USEFUL:          0 USELESS:          0
L2C AVERAGE MISS LATENCY: 106.5 cycles
LLC TOTAL        ACCESS:    1287269 HIT:     995693 MISS:     291576
LLC LOAD         ACCESS:     745981 HIT:     567592 MISS:     178389
LLC RFO          ACCESS:     260960 HIT:     188512 MISS:      72448
LLC PREFETCH     ACCESS:          0 HIT:          0 MISS:          0
LLC WRITE        ACCESS:     279269 HIT:     239454 MISS:      39815
LLC TRANSLATION  ACCESS:       1059 HIT:        135 MISS:        924
LLC PREFETCH REQUESTED:          0 ISSUED:          0 USEFUL:          0 USELESS:          0
LLC AVERAGE MISS LATENCY: 313.3 cycles
cpu0_DTLB TOTAL        ACCESS:   21042174 HIT:   20055146 MISS:     987028
cpu0_DTLB LOAD         ACCESS:   21042174 HIT:   20055146 MISS:     987028
cpu0_DTLB RFO          ACCESS:          0 HIT:          0 MISS:          0
cpu0_DTLB PREFETCH     ACCESS:          0 HIT:          0 MISS:          0
cpu0_DTLB WRITE        ACCESS:          0 HIT:          0 MISS:          0
cpu0_DTLB TRANSLATION  ACCESS:          0 HIT:          0 MISS:          0
cpu0_DTLB PREFETCH REQUESTED:          0 ISSUED:          0 USEFUL:          0 USELESS:          0
cpu0_DTLB AVERAGE MISS LATENCY: 6.858 cycles
cpu0_ITLB TOTAL        ACCESS:     784163 HIT:     780316 MISS:       3847
cpu0_ITLB LOAD         ACCESS:     784163 HIT:     780316 MISS:       3847
cpu0_ITLB RFO          ACCESS:          0 HIT:          0 MISS:          0
cpu0_ITLB PREFETCH     ACCESS:          0 HIT:          0 MISS:          0
cpu0_ITLB WRITE        ACCESS:          0 HIT:          0 MISS:          0
cpu0_ITLB TRANSLATION  ACCESS:          0 HIT:          0 MISS:          0
cpu0_ITLB PREFETCH REQUESTED:          0 ISSUED:          0 USEFUL:          0 USELESS:          0
cpu0_ITLB AVERAGE MISS LATENCY: 19.31 cycles
cpu0_STLB TOTAL        ACCESS:     863474 HIT:     861712 MISS:       1762
cpu0_STLB LOAD         ACCESS:     863474 HIT:     861712 MISS:       1762
cpu0_STLB RFO          ACCESS:          0 HIT:          0 MISS:          0
cpu0_STLB PREFETCH     ACCESS:          0 HIT:          0 MISS:          0
cpu0_STLB WRITE        ACCESS:          0 HIT:          0 MISS:          0
cpu0_STLB TRANSLATION  ACCESS:          0 HIT:          0 MISS:          0
cpu0_STLB PREFETCH REQUESTED:          0 ISSUED:          0 USEFUL:          0 USELESS:          0
cpu0_STLB AVERAGE MISS LATENCY: 210.1 cycles

DRAM Statistics

Channel 0 RQ ROW_BUFFER_HIT:      58256
  ROW_BUFFER_MISS:     192924
 AVG DBUS CONGESTED CYCLE: 3.953
WQ ROW_BUFFER_HIT: Channel 0 
  ROW_BUFFER_MISS:      10880
  FULL:      86482
