WARNING: physical memory size is smaller than virtual memory size.

*** ChampSim Multicore Out-of-Order Simulator ***
Warmup Instructions: 25000000
Simulation Instructions: 100000000
Number of CPUs: 1
Page size: 4096

[L1D] Demand IPV: 1 2 2 1 4 Prefetch IPV: 1 2 1 1 4
[L1I] Demand IPV: 1 2 2 1 4 Prefetch IPV: 1 2 1 1 4
[L2C] Demand IPV: 1 2 2 1 4 Prefetch IPV: 1 2 1 1 4
[LLC] Demand IPV: 1 2 2 1 4 Prefetch IPV: 1 2 1 1 4
Off-chip DRAM Size: 4 GiB Channels: 1 Width: 64-bit Data Race: 3200 MT/s
Heartbeat CPU 0 instructions: 10000001 cycles: 2641321 heartbeat IPC: 3.786 cumulative IPC: 3.786 (Simulation time: 00 hr 00 min 18 sec)
Heartbeat CPU 0 instructions: 20000002 cycles: 5260363 heartbeat IPC: 3.818 cumulative IPC: 3.802 (Simulation time: 00 hr 00 min 36 sec)
Warmup finished CPU 0 instructions: 25000000 cycles: 6573911 cumulative IPC: 3.803 (Simulation time: 00 hr 00 min 45 sec)
Warmup complete CPU 0 instructions: 25000000 cycles: 6573911 cumulative IPC: 3.803 (Simulation time: 00 hr 00 min 45 sec)
Heartbeat CPU 0 instructions: 30000001 cycles: 8217973 heartbeat IPC: 3.381 cumulative IPC: 3.041 (Simulation time: 00 hr 00 min 56 sec)
Heartbeat CPU 0 instructions: 40000001 cycles: 11321149 heartbeat IPC: 3.223 cumulative IPC: 3.16 (Simulation time: 00 hr 01 min 18 sec)
Heartbeat CPU 0 instructions: 50000000 cycles: 14428373 heartbeat IPC: 3.218 cumulative IPC: 3.183 (Simulation time: 00 hr 01 min 41 sec)
Heartbeat CPU 0 instructions: 60000000 cycles: 17534823 heartbeat IPC: 3.219 cumulative IPC: 3.193 (Simulation time: 00 hr 02 min 04 sec)
Heartbeat CPU 0 instructions: 70000003 cycles: 20643428 heartbeat IPC: 3.217 cumulative IPC: 3.198 (Simulation time: 00 hr 02 min 26 sec)
Heartbeat CPU 0 instructions: 80000000 cycles: 23747205 heartbeat IPC: 3.222 cumulative IPC: 3.203 (Simulation time: 00 hr 02 min 49 sec)
Heartbeat CPU 0 instructions: 90000000 cycles: 26846867 heartbeat IPC: 3.226 cumulative IPC: 3.206 (Simulation time: 00 hr 03 min 11 sec)
Heartbeat CPU 0 instructions: 100000004 cycles: 29951110 heartbeat IPC: 3.221 cumulative IPC: 3.208 (Simulation time: 00 hr 03 min 34 sec)
*** Reached end of trace: (0, "../traces/secret_traces/compute_int/compute_int_510.champsimtrace.xz")
Heartbeat CPU 0 instructions: 110000002 cycles: 33256278 heartbeat IPC: 3.026 cumulative IPC: 3.186 (Simulation time: 00 hr 03 min 57 sec)
Heartbeat CPU 0 instructions: 120000003 cycles: 37063874 heartbeat IPC: 2.626 cumulative IPC: 3.116 (Simulation time: 00 hr 04 min 22 sec)
Simulation finished CPU 0 instructions: 100000002 cycles: 32037200 cumulative IPC: 3.121 (Simulation time: 00 hr 04 min 33 sec)
Simulation complete CPU 0 instructions: 100000002 cycles: 32037200 cumulative IPC: 3.121 (Simulation time: 00 hr 04 min 33 sec)

ChampSim completed all CPUs

=== Simulation ===
CPU 0 runs ../traces/secret_traces/compute_int/compute_int_510.champsimtrace.xz
Region of Interest Statistics

CPU 0 cumulative IPC: 3.121 instructions: 100000002 cycles: 32037200
CPU 0 Branch Prediction Accuracy: 98.23% MPKI: 3.773 Average ROB Occupancy at Mispredict: 21.5
Branch type MPKI
BRANCH_DIRECT_JUMP: 0.00482
BRANCH_INDIRECT: 0.268
BRANCH_CONDITIONAL: 3.47
BRANCH_DIRECT_CALL: 0.0129
BRANCH_INDIRECT_CALL: 0.00839
BRANCH_RETURN: 0.00734

L1D TOTAL        ACCESS:   26399271 HIT:   26297342 MISS:     101929
L1D LOAD         ACCESS:   20220603 HIT:   20175606 MISS:      44997
L1D RFO          ACCESS:          0 HIT:          0 MISS:          0
L1D PREFETCH     ACCESS:          0 HIT:          0 MISS:          0
L1D WRITE        ACCESS:    6178396 HIT:    6121705 MISS:      56691
L1D TRANSLATION  ACCESS:        272 HIT:         31 MISS:        241
L1D PREFETCH REQUESTED:          0 ISSUED:          0 USEFUL:          0 USELESS:          0
L1D AVERAGE MISS LATENCY: 8.575 cycles
L1I TOTAL        ACCESS:     121338 HIT:     101317 MISS:      20021
L1I LOAD         ACCESS:     121338 HIT:     101317 MISS:      20021
L1I RFO          ACCESS:          0 HIT:          0 MISS:          0
L1I PREFETCH     ACCESS:          0 HIT:          0 MISS:          0
L1I WRITE        ACCESS:          0 HIT:          0 MISS:          0
L1I TRANSLATION  ACCESS:          0 HIT:          0 MISS:          0
L1I PREFETCH REQUESTED:          0 ISSUED:          0 USEFUL:          0 USELESS:          0
L1I AVERAGE MISS LATENCY: 17.11 cycles
L2C TOTAL        ACCESS:      70987 HIT:      38957 MISS:      32030
L2C LOAD         ACCESS:      37370 HIT:      18531 MISS:      18839
L2C RFO          ACCESS:      15198 HIT:       3979 MISS:      11219
L2C PREFETCH     ACCESS:          0 HIT:          0 MISS:          0
L2C WRITE        ACCESS:      18178 HIT:      16441 MISS:       1737
L2C TRANSLATION  ACCESS:        241 HIT:          6 MISS:        235
L2C PREFETCH REQUESTED:          0 ISSUED:          0 USEFUL:          0 USELESS:          0
L2C AVERAGE MISS LATENCY: 23.19 cycles
LLC TOTAL        ACCESS:      43773 HIT:      42843 MISS:        930
LLC LOAD         ACCESS:      18839 HIT:      18153 MISS:        686
LLC RFO          ACCESS:      11219 HIT:      11167 MISS:         52
LLC PREFETCH     ACCESS:          0 HIT:          0 MISS:          0
LLC WRITE        ACCESS:      13480 HIT:      13423 MISS:         57
LLC TRANSLATION  ACCESS:        235 HIT:        100 MISS:        135
LLC PREFETCH REQUESTED:          0 ISSUED:          0 USEFUL:          0 USELESS:          0
LLC AVERAGE MISS LATENCY: 141.4 cycles
cpu0_DTLB TOTAL        ACCESS:   22111671 HIT:   22100633 MISS:      11038
cpu0_DTLB LOAD         ACCESS:   22111671 HIT:   22100633 MISS:      11038
cpu0_DTLB RFO          ACCESS:          0 HIT:          0 MISS:          0
cpu0_DTLB PREFETCH     ACCESS:          0 HIT:          0 MISS:          0
cpu0_DTLB WRITE        ACCESS:          0 HIT:          0 MISS:          0
cpu0_DTLB TRANSLATION  ACCESS:          0 HIT:          0 MISS:          0
cpu0_DTLB PREFETCH REQUESTED:          0 ISSUED:          0 USEFUL:          0 USELESS:          0
cpu0_DTLB AVERAGE MISS LATENCY: 7.346 cycles
cpu0_ITLB TOTAL        ACCESS:     107989 HIT:     103950 MISS:       4039
cpu0_ITLB LOAD         ACCESS:     107989 HIT:     103950 MISS:       4039
cpu0_ITLB RFO          ACCESS:          0 HIT:          0 MISS:          0
cpu0_ITLB PREFETCH     ACCESS:          0 HIT:          0 MISS:          0
cpu0_ITLB WRITE        ACCESS:          0 HIT:          0 MISS:          0
cpu0_ITLB TRANSLATION  ACCESS:          0 HIT:          0 MISS:          0
cpu0_ITLB PREFETCH REQUESTED:          0 ISSUED:          0 USEFUL:          0 USELESS:          0
cpu0_ITLB AVERAGE MISS LATENCY: 5.394 cycles
cpu0_STLB TOTAL        ACCESS:       9163 HIT:       8937 MISS:        226
cpu0_STLB LOAD         ACCESS:       9163 HIT:       8937 MISS:        226
cpu0_STLB RFO          ACCESS:          0 HIT:          0 MISS:          0
cpu0_STLB PREFETCH     ACCESS:          0 HIT:          0 MISS:          0
cpu0_STLB WRITE        ACCESS:          0 HIT:          0 MISS:          0
cpu0_STLB TRANSLATION  ACCESS:          0 HIT:          0 MISS:          0
cpu0_STLB PREFETCH REQUESTED:          0 ISSUED:          0 USEFUL:          0 USELESS:          0
cpu0_STLB AVERAGE MISS LATENCY: 192.3 cycles

DRAM Statistics

Channel 0 RQ ROW_BUFFER_HIT:        188
  ROW_BUFFER_MISS:        685
 AVG DBUS CONGESTED CYCLE: 3.634
WQ ROW_BUFFER_HIT: Channel 0 
  ROW_BUFFER_MISS:          1
  FULL:         22
