WARNING: physical memory size is smaller than virtual memory size.

*** ChampSim Multicore Out-of-Order Simulator ***
Warmup Instructions: 25000000
Simulation Instructions: 100000000
Number of CPUs: 1
Page size: 4096

[L1D] Demand IPV: 1 2 2 1 4 Prefetch IPV: 1 2 1 1 4
[L1I] Demand IPV: 1 2 2 1 4 Prefetch IPV: 1 2 1 1 4
[L2C] Demand IPV: 1 2 2 1 4 Prefetch IPV: 1 2 1 1 4
[LLC] Demand IPV: 1 2 2 1 4 Prefetch IPV: 1 2 1 1 4
Off-chip DRAM Size: 4 GiB Channels: 1 Width: 64-bit Data Race: 3200 MT/s
Heartbeat CPU 0 instructions: 10000001 cycles: 2501994 heartbeat IPC: 3.997 cumulative IPC: 3.997 (Simulation time: 00 hr 00 min 19 sec)
Heartbeat CPU 0 instructions: 20000001 cycles: 5003153 heartbeat IPC: 3.998 cumulative IPC: 3.997 (Simulation time: 00 hr 00 min 38 sec)
*** Reached end of trace: (0, "../traces/secret_traces/compute_int/compute_int_913.champsimtrace.xz")
Warmup finished CPU 0 instructions: 25000001 cycles: 6253154 cumulative IPC: 3.998 (Simulation time: 00 hr 00 min 48 sec)
Warmup complete CPU 0 instructions: 25000001 cycles: 6253154 cumulative IPC: 3.998 (Simulation time: 00 hr 00 min 48 sec)
Heartbeat CPU 0 instructions: 30000003 cycles: 9909428 heartbeat IPC: 2.038 cumulative IPC: 1.368 (Simulation time: 00 hr 01 min 06 sec)
Heartbeat CPU 0 instructions: 40000001 cycles: 16707953 heartbeat IPC: 1.471 cumulative IPC: 1.435 (Simulation time: 00 hr 01 min 42 sec)
*** Reached end of trace: (0, "../traces/secret_traces/compute_int/compute_int_913.champsimtrace.xz")
Heartbeat CPU 0 instructions: 50000001 cycles: 23972466 heartbeat IPC: 1.377 cumulative IPC: 1.411 (Simulation time: 00 hr 02 min 18 sec)
Heartbeat CPU 0 instructions: 60000000 cycles: 30935080 heartbeat IPC: 1.436 cumulative IPC: 1.418 (Simulation time: 00 hr 02 min 54 sec)
*** Reached end of trace: (0, "../traces/secret_traces/compute_int/compute_int_913.champsimtrace.xz")
Heartbeat CPU 0 instructions: 70000000 cycles: 37493643 heartbeat IPC: 1.525 cumulative IPC: 1.44 (Simulation time: 00 hr 03 min 29 sec)
Heartbeat CPU 0 instructions: 80000003 cycles: 44561414 heartbeat IPC: 1.415 cumulative IPC: 1.436 (Simulation time: 00 hr 04 min 05 sec)
*** Reached end of trace: (0, "../traces/secret_traces/compute_int/compute_int_913.champsimtrace.xz")
Heartbeat CPU 0 instructions: 90000000 cycles: 51454361 heartbeat IPC: 1.451 cumulative IPC: 1.438 (Simulation time: 00 hr 04 min 40 sec)
Heartbeat CPU 0 instructions: 100000002 cycles: 58357930 heartbeat IPC: 1.449 cumulative IPC: 1.439 (Simulation time: 00 hr 05 min 16 sec)
Heartbeat CPU 0 instructions: 110000004 cycles: 65079981 heartbeat IPC: 1.488 cumulative IPC: 1.445 (Simulation time: 00 hr 05 min 51 sec)
*** Reached end of trace: (0, "../traces/secret_traces/compute_int/compute_int_913.champsimtrace.xz")
Heartbeat CPU 0 instructions: 120000001 cycles: 72182683 heartbeat IPC: 1.408 cumulative IPC: 1.441 (Simulation time: 00 hr 06 min 27 sec)
Simulation finished CPU 0 instructions: 100000003 cycles: 69185051 cumulative IPC: 1.445 (Simulation time: 00 hr 06 min 44 sec)
Simulation complete CPU 0 instructions: 100000003 cycles: 69185051 cumulative IPC: 1.445 (Simulation time: 00 hr 06 min 44 sec)

ChampSim completed all CPUs

=== Simulation ===
CPU 0 runs ../traces/secret_traces/compute_int/compute_int_913.champsimtrace.xz
Region of Interest Statistics

CPU 0 cumulative IPC: 1.445 instructions: 100000003 cycles: 69185051
CPU 0 Branch Prediction Accuracy: 84.64% MPKI: 20.57 Average ROB Occupancy at Mispredict: 34.02
Branch type MPKI
BRANCH_DIRECT_JUMP: 0
BRANCH_INDIRECT: 0.0409
BRANCH_CONDITIONAL: 20.5
BRANCH_DIRECT_CALL: 0
BRANCH_INDIRECT_CALL: 0.00147
BRANCH_RETURN: 8e-05

L1D TOTAL        ACCESS:   29859023 HIT:   25808152 MISS:    4050871
L1D LOAD         ACCESS:   20442288 HIT:   19585400 MISS:     856888
L1D RFO          ACCESS:          0 HIT:          0 MISS:          0
L1D PREFETCH     ACCESS:          0 HIT:          0 MISS:          0
L1D WRITE        ACCESS:    9411865 HIT:    6218969 MISS:    3192896
L1D TRANSLATION  ACCESS:       4870 HIT:       3783 MISS:       1087
L1D PREFETCH REQUESTED:          0 ISSUED:          0 USEFUL:          0 USELESS:          0
L1D AVERAGE MISS LATENCY: 13.05 cycles
L1I TOTAL        ACCESS:       6945 HIT:       6793 MISS:        152
L1I LOAD         ACCESS:       6945 HIT:       6793 MISS:        152
L1I RFO          ACCESS:          0 HIT:          0 MISS:          0
L1I PREFETCH     ACCESS:          0 HIT:          0 MISS:          0
L1I WRITE        ACCESS:          0 HIT:          0 MISS:          0
L1I TRANSLATION  ACCESS:          0 HIT:          0 MISS:          0
L1I PREFETCH REQUESTED:          0 ISSUED:          0 USEFUL:          0 USELESS:          0
L1I AVERAGE MISS LATENCY: 205.6 cycles
L2C TOTAL        ACCESS:     836202 HIT:     332397 MISS:     503805
L2C LOAD         ACCESS:     205084 HIT:      58308 MISS:     146776
L2C RFO          ACCESS:     317457 HIT:        979 MISS:     316478
L2C PREFETCH     ACCESS:          0 HIT:          0 MISS:          0
L2C WRITE        ACCESS:     312574 HIT:     272223 MISS:      40351
L2C TRANSLATION  ACCESS:       1087 HIT:        887 MISS:        200
L2C PREFETCH REQUESTED:          0 ISSUED:          0 USEFUL:          0 USELESS:          0
L2C AVERAGE MISS LATENCY: 156 cycles
LLC TOTAL        ACCESS:     774858 HIT:     248115 MISS:     526743
LLC LOAD         ACCESS:     146776 HIT:       2133 MISS:     144643
LLC RFO          ACCESS:     316478 HIT:      95435 MISS:     221043
LLC PREFETCH     ACCESS:          0 HIT:          0 MISS:          0
LLC WRITE        ACCESS:     311404 HIT:     150463 MISS:     160941
LLC TRANSLATION  ACCESS:        200 HIT:         84 MISS:        116
LLC PREFETCH REQUESTED:          0 ISSUED:          0 USEFUL:          0 USELESS:          0
LLC AVERAGE MISS LATENCY: 130.9 cycles
cpu0_DTLB TOTAL        ACCESS:   24191931 HIT:   24175145 MISS:      16786
cpu0_DTLB LOAD         ACCESS:   24191931 HIT:   24175145 MISS:      16786
cpu0_DTLB RFO          ACCESS:          0 HIT:          0 MISS:          0
cpu0_DTLB PREFETCH     ACCESS:          0 HIT:          0 MISS:          0
cpu0_DTLB WRITE        ACCESS:          0 HIT:          0 MISS:          0
cpu0_DTLB TRANSLATION  ACCESS:          0 HIT:          0 MISS:          0
cpu0_DTLB PREFETCH REQUESTED:          0 ISSUED:          0 USEFUL:          0 USELESS:          0
cpu0_DTLB AVERAGE MISS LATENCY: 7.623 cycles
cpu0_ITLB TOTAL        ACCESS:       6122 HIT:       5760 MISS:        362
cpu0_ITLB LOAD         ACCESS:       6122 HIT:       5760 MISS:        362
cpu0_ITLB RFO          ACCESS:          0 HIT:          0 MISS:          0
cpu0_ITLB PREFETCH     ACCESS:          0 HIT:          0 MISS:          0
cpu0_ITLB WRITE        ACCESS:          0 HIT:          0 MISS:          0
cpu0_ITLB TRANSLATION  ACCESS:          0 HIT:          0 MISS:          0
cpu0_ITLB PREFETCH REQUESTED:          0 ISSUED:          0 USEFUL:          0 USELESS:          0
cpu0_ITLB AVERAGE MISS LATENCY: 10.64 cycles
cpu0_STLB TOTAL        ACCESS:       8200 HIT:       3330 MISS:       4870
cpu0_STLB LOAD         ACCESS:       8200 HIT:       3330 MISS:       4870
cpu0_STLB RFO          ACCESS:          0 HIT:          0 MISS:          0
cpu0_STLB PREFETCH     ACCESS:          0 HIT:          0 MISS:          0
cpu0_STLB WRITE        ACCESS:          0 HIT:          0 MISS:          0
cpu0_STLB TRANSLATION  ACCESS:          0 HIT:          0 MISS:          0
cpu0_STLB PREFETCH REQUESTED:          0 ISSUED:          0 USEFUL:          0 USELESS:          0
cpu0_STLB AVERAGE MISS LATENCY: 22.49 cycles

DRAM Statistics

Channel 0 RQ ROW_BUFFER_HIT:     128758
  ROW_BUFFER_MISS:     237042
 AVG DBUS CONGESTED CYCLE: 3.976
WQ ROW_BUFFER_HIT: Channel 0 
  ROW_BUFFER_MISS:      57122
  FULL:     158899
