WARNING: physical memory size is smaller than virtual memory size.

*** ChampSim Multicore Out-of-Order Simulator ***
Warmup Instructions: 25000000
Simulation Instructions: 100000000
Number of CPUs: 1
Page size: 4096

[L1D] Demand IPV: 1 2 2 1 4 Prefetch IPV: 1 2 1 1 4
[L1I] Demand IPV: 1 2 2 1 4 Prefetch IPV: 1 2 1 1 4
[L2C] Demand IPV: 1 2 2 1 4 Prefetch IPV: 1 2 1 1 4
[LLC] Demand IPV: 1 2 2 1 4 Prefetch IPV: 1 2 1 1 4
Off-chip DRAM Size: 4 GiB Channels: 1 Width: 64-bit Data Race: 3200 MT/s
Heartbeat CPU 0 instructions: 10000002 cycles: 2502923 heartbeat IPC: 3.995 cumulative IPC: 3.995 (Simulation time: 00 hr 00 min 18 sec)
Heartbeat CPU 0 instructions: 20000001 cycles: 5003077 heartbeat IPC: 4 cumulative IPC: 3.998 (Simulation time: 00 hr 00 min 36 sec)
Warmup finished CPU 0 instructions: 25000001 cycles: 6253078 cumulative IPC: 3.998 (Simulation time: 00 hr 00 min 45 sec)
Warmup complete CPU 0 instructions: 25000001 cycles: 6253078 cumulative IPC: 3.998 (Simulation time: 00 hr 00 min 45 sec)
Heartbeat CPU 0 instructions: 30000002 cycles: 8888257 heartbeat IPC: 2.574 cumulative IPC: 1.897 (Simulation time: 00 hr 00 min 59 sec)
Heartbeat CPU 0 instructions: 40000002 cycles: 14495456 heartbeat IPC: 1.783 cumulative IPC: 1.82 (Simulation time: 00 hr 01 min 30 sec)
Heartbeat CPU 0 instructions: 50000000 cycles: 19793649 heartbeat IPC: 1.887 cumulative IPC: 1.846 (Simulation time: 00 hr 01 min 58 sec)
Heartbeat CPU 0 instructions: 60000002 cycles: 25275701 heartbeat IPC: 1.824 cumulative IPC: 1.84 (Simulation time: 00 hr 02 min 27 sec)
Heartbeat CPU 0 instructions: 70000000 cycles: 31034984 heartbeat IPC: 1.736 cumulative IPC: 1.816 (Simulation time: 00 hr 02 min 58 sec)
Heartbeat CPU 0 instructions: 80000000 cycles: 36522869 heartbeat IPC: 1.822 cumulative IPC: 1.817 (Simulation time: 00 hr 03 min 27 sec)
*** Reached end of trace: (0, "../traces/secret_traces/compute_int/compute_int_556.champsimtrace.xz")
Heartbeat CPU 0 instructions: 90000001 cycles: 41879642 heartbeat IPC: 1.867 cumulative IPC: 1.824 (Simulation time: 00 hr 03 min 56 sec)
Heartbeat CPU 0 instructions: 100000000 cycles: 47141582 heartbeat IPC: 1.9 cumulative IPC: 1.834 (Simulation time: 00 hr 04 min 24 sec)
Heartbeat CPU 0 instructions: 110000002 cycles: 52807414 heartbeat IPC: 1.765 cumulative IPC: 1.826 (Simulation time: 00 hr 04 min 54 sec)
Heartbeat CPU 0 instructions: 120000001 cycles: 58440477 heartbeat IPC: 1.775 cumulative IPC: 1.82 (Simulation time: 00 hr 05 min 25 sec)
Simulation finished CPU 0 instructions: 100000000 cycles: 54693906 cumulative IPC: 1.828 (Simulation time: 00 hr 05 min 38 sec)
Simulation complete CPU 0 instructions: 100000000 cycles: 54693906 cumulative IPC: 1.828 (Simulation time: 00 hr 05 min 38 sec)

ChampSim completed all CPUs

=== Simulation ===
CPU 0 runs ../traces/secret_traces/compute_int/compute_int_556.champsimtrace.xz
Region of Interest Statistics

CPU 0 cumulative IPC: 1.828 instructions: 100000000 cycles: 54693906
CPU 0 Branch Prediction Accuracy: 91.89% MPKI: 14.89 Average ROB Occupancy at Mispredict: 25.29
Branch type MPKI
BRANCH_DIRECT_JUMP: 4e-05
BRANCH_INDIRECT: 0.78
BRANCH_CONDITIONAL: 14.1
BRANCH_DIRECT_CALL: 6e-05
BRANCH_INDIRECT_CALL: 0.00186
BRANCH_RETURN: 0.00037

L1D TOTAL        ACCESS:   21706563 HIT:   20656728 MISS:    1049835
L1D LOAD         ACCESS:   16870632 HIT:   16021227 MISS:     849405
L1D RFO          ACCESS:          0 HIT:          0 MISS:          0
L1D PREFETCH     ACCESS:          0 HIT:          0 MISS:          0
L1D WRITE        ACCESS:    4834005 HIT:    4634443 MISS:     199562
L1D TRANSLATION  ACCESS:       1926 HIT:       1058 MISS:        868
L1D PREFETCH REQUESTED:          0 ISSUED:          0 USEFUL:          0 USELESS:          0
L1D AVERAGE MISS LATENCY: 56.41 cycles
L1I TOTAL        ACCESS:      16458 HIT:      12969 MISS:       3489
L1I LOAD         ACCESS:      16458 HIT:      12969 MISS:       3489
L1I RFO          ACCESS:          0 HIT:          0 MISS:          0
L1I PREFETCH     ACCESS:          0 HIT:          0 MISS:          0
L1I WRITE        ACCESS:          0 HIT:          0 MISS:          0
L1I TRANSLATION  ACCESS:          0 HIT:          0 MISS:          0
L1I PREFETCH REQUESTED:          0 ISSUED:          0 USEFUL:          0 USELESS:          0
L1I AVERAGE MISS LATENCY: 69.81 cycles
L2C TOTAL        ACCESS:     790733 HIT:     523035 MISS:     267698
L2C LOAD         ACCESS:     486621 HIT:     261981 MISS:     224640
L2C RFO          ACCESS:     100605 HIT:      61112 MISS:      39493
L2C PREFETCH     ACCESS:          0 HIT:          0 MISS:          0
L2C WRITE        ACCESS:     202639 HIT:     199224 MISS:       3415
L2C TRANSLATION  ACCESS:        868 HIT:        718 MISS:        150
L2C PREFETCH REQUESTED:          0 ISSUED:          0 USEFUL:          0 USELESS:          0
L2C AVERAGE MISS LATENCY: 214.3 cycles
LLC TOTAL        ACCESS:     305721 HIT:      87212 MISS:     218509
LLC LOAD         ACCESS:     224640 HIT:      66486 MISS:     158154
LLC RFO          ACCESS:      39493 HIT:       4338 MISS:      35155
LLC PREFETCH     ACCESS:          0 HIT:          0 MISS:          0
LLC WRITE        ACCESS:      41438 HIT:      16377 MISS:      25061
LLC TRANSLATION  ACCESS:        150 HIT:         11 MISS:        139
LLC PREFETCH REQUESTED:          0 ISSUED:          0 USEFUL:          0 USELESS:          0
LLC AVERAGE MISS LATENCY: 237.5 cycles
cpu0_DTLB TOTAL        ACCESS:   18016918 HIT:   17992351 MISS:      24567
cpu0_DTLB LOAD         ACCESS:   18016918 HIT:   17992351 MISS:      24567
cpu0_DTLB RFO          ACCESS:          0 HIT:          0 MISS:          0
cpu0_DTLB PREFETCH     ACCESS:          0 HIT:          0 MISS:          0
cpu0_DTLB WRITE        ACCESS:          0 HIT:          0 MISS:          0
cpu0_DTLB TRANSLATION  ACCESS:          0 HIT:          0 MISS:          0
cpu0_DTLB PREFETCH REQUESTED:          0 ISSUED:          0 USEFUL:          0 USELESS:          0
cpu0_DTLB AVERAGE MISS LATENCY: 10.01 cycles
cpu0_ITLB TOTAL        ACCESS:      14448 HIT:      13676 MISS:        772
cpu0_ITLB LOAD         ACCESS:      14448 HIT:      13676 MISS:        772
cpu0_ITLB RFO          ACCESS:          0 HIT:          0 MISS:          0
cpu0_ITLB PREFETCH     ACCESS:          0 HIT:          0 MISS:          0
cpu0_ITLB WRITE        ACCESS:          0 HIT:          0 MISS:          0
cpu0_ITLB TRANSLATION  ACCESS:          0 HIT:          0 MISS:          0
cpu0_ITLB PREFETCH REQUESTED:          0 ISSUED:          0 USEFUL:          0 USELESS:          0
cpu0_ITLB AVERAGE MISS LATENCY: 7.56 cycles
cpu0_STLB TOTAL        ACCESS:       5967 HIT:       4073 MISS:       1894
cpu0_STLB LOAD         ACCESS:       5967 HIT:       4073 MISS:       1894
cpu0_STLB RFO          ACCESS:          0 HIT:          0 MISS:          0
cpu0_STLB PREFETCH     ACCESS:          0 HIT:          0 MISS:          0
cpu0_STLB WRITE        ACCESS:          0 HIT:          0 MISS:          0
cpu0_STLB TRANSLATION  ACCESS:          0 HIT:          0 MISS:          0
cpu0_STLB PREFETCH REQUESTED:          0 ISSUED:          0 USEFUL:          0 USELESS:          0
cpu0_STLB AVERAGE MISS LATENCY: 201.6 cycles

DRAM Statistics

Channel 0 RQ ROW_BUFFER_HIT:     130936
  ROW_BUFFER_MISS:      62509
 AVG DBUS CONGESTED CYCLE: 3.991
WQ ROW_BUFFER_HIT: Channel 0 
  ROW_BUFFER_MISS:       2445
  FULL:      33204
