WARNING: physical memory size is smaller than virtual memory size.

*** ChampSim Multicore Out-of-Order Simulator ***
Warmup Instructions: 25000000
Simulation Instructions: 100000000
Number of CPUs: 1
Page size: 4096

[L1D] Demand IPV: 1 2 2 1 4 Prefetch IPV: 1 2 1 1 4
[L1I] Demand IPV: 1 2 2 1 4 Prefetch IPV: 1 2 1 1 4
[L2C] Demand IPV: 1 2 2 1 4 Prefetch IPV: 1 2 1 1 4
[LLC] Demand IPV: 1 2 2 1 4 Prefetch IPV: 1 2 1 1 4
Off-chip DRAM Size: 4 GiB Channels: 1 Width: 64-bit Data Race: 3200 MT/s
Heartbeat CPU 0 instructions: 10000002 cycles: 2502346 heartbeat IPC: 3.996 cumulative IPC: 3.996 (Simulation time: 00 hr 00 min 20 sec)
Heartbeat CPU 0 instructions: 20000002 cycles: 5002346 heartbeat IPC: 4 cumulative IPC: 3.998 (Simulation time: 00 hr 00 min 39 sec)
Warmup finished CPU 0 instructions: 25000003 cycles: 6252553 cumulative IPC: 3.998 (Simulation time: 00 hr 00 min 49 sec)
Warmup complete CPU 0 instructions: 25000003 cycles: 6252553 cumulative IPC: 3.998 (Simulation time: 00 hr 00 min 49 sec)
Heartbeat CPU 0 instructions: 30000002 cycles: 10324588 heartbeat IPC: 1.879 cumulative IPC: 1.228 (Simulation time: 00 hr 01 min 08 sec)
Heartbeat CPU 0 instructions: 40000001 cycles: 18505036 heartbeat IPC: 1.222 cumulative IPC: 1.224 (Simulation time: 00 hr 01 min 46 sec)
Heartbeat CPU 0 instructions: 50000001 cycles: 26503213 heartbeat IPC: 1.25 cumulative IPC: 1.235 (Simulation time: 00 hr 02 min 24 sec)
Heartbeat CPU 0 instructions: 60000000 cycles: 34787712 heartbeat IPC: 1.207 cumulative IPC: 1.227 (Simulation time: 00 hr 03 min 03 sec)
Heartbeat CPU 0 instructions: 70000000 cycles: 42812920 heartbeat IPC: 1.246 cumulative IPC: 1.231 (Simulation time: 00 hr 03 min 41 sec)
Heartbeat CPU 0 instructions: 80000003 cycles: 51058361 heartbeat IPC: 1.213 cumulative IPC: 1.228 (Simulation time: 00 hr 04 min 19 sec)
Heartbeat CPU 0 instructions: 90000000 cycles: 59055200 heartbeat IPC: 1.25 cumulative IPC: 1.231 (Simulation time: 00 hr 04 min 57 sec)
Heartbeat CPU 0 instructions: 100000002 cycles: 66847426 heartbeat IPC: 1.283 cumulative IPC: 1.238 (Simulation time: 00 hr 05 min 34 sec)
*** Reached end of trace: (0, "../traces/secret_traces/compute_int/compute_int_490.champsimtrace.xz")
Heartbeat CPU 0 instructions: 110000003 cycles: 74698878 heartbeat IPC: 1.274 cumulative IPC: 1.242 (Simulation time: 00 hr 06 min 11 sec)
Heartbeat CPU 0 instructions: 120000000 cycles: 83092118 heartbeat IPC: 1.191 cumulative IPC: 1.236 (Simulation time: 00 hr 06 min 50 sec)
Simulation finished CPU 0 instructions: 100000004 cycles: 80894087 cumulative IPC: 1.236 (Simulation time: 00 hr 07 min 09 sec)
Simulation complete CPU 0 instructions: 100000004 cycles: 80894087 cumulative IPC: 1.236 (Simulation time: 00 hr 07 min 09 sec)

ChampSim completed all CPUs

=== Simulation ===
CPU 0 runs ../traces/secret_traces/compute_int/compute_int_490.champsimtrace.xz
Region of Interest Statistics

CPU 0 cumulative IPC: 1.236 instructions: 100000004 cycles: 80894087
CPU 0 Branch Prediction Accuracy: 79.23% MPKI: 32.52 Average ROB Occupancy at Mispredict: 7.827
Branch type MPKI
BRANCH_DIRECT_JUMP: 0.0112
BRANCH_INDIRECT: 15.4
BRANCH_CONDITIONAL: 17.1
BRANCH_DIRECT_CALL: 0.0231
BRANCH_INDIRECT_CALL: 0.00766
BRANCH_RETURN: 0.012

L1D TOTAL        ACCESS:   25933431 HIT:   25684511 MISS:     248920
L1D LOAD         ACCESS:   15456695 HIT:   15370572 MISS:      86123
L1D RFO          ACCESS:          0 HIT:          0 MISS:          0
L1D PREFETCH     ACCESS:          0 HIT:          0 MISS:          0
L1D WRITE        ACCESS:   10474450 HIT:   10313802 MISS:     160648
L1D TRANSLATION  ACCESS:       2286 HIT:        137 MISS:       2149
L1D PREFETCH REQUESTED:          0 ISSUED:          0 USEFUL:          0 USELESS:          0
L1D AVERAGE MISS LATENCY: 14.07 cycles
L1I TOTAL        ACCESS:    9330476 HIT:    8479417 MISS:     851059
L1I LOAD         ACCESS:    9330476 HIT:    8479417 MISS:     851059
L1I RFO          ACCESS:          0 HIT:          0 MISS:          0
L1I PREFETCH     ACCESS:          0 HIT:          0 MISS:          0
L1I WRITE        ACCESS:          0 HIT:          0 MISS:          0
L1I TRANSLATION  ACCESS:          0 HIT:          0 MISS:          0
L1I PREFETCH REQUESTED:          0 ISSUED:          0 USEFUL:          0 USELESS:          0
L1I AVERAGE MISS LATENCY: 7.03 cycles
L2C TOTAL        ACCESS:     850331 HIT:     808942 MISS:      41389
L2C LOAD         ACCESS:     672497 HIT:     642000 MISS:      30497
L2C RFO          ACCESS:      75365 HIT:      68524 MISS:       6841
L2C PREFETCH     ACCESS:          0 HIT:          0 MISS:          0
L2C WRITE        ACCESS:     100322 HIT:      97569 MISS:       2753
L2C TRANSLATION  ACCESS:       2147 HIT:        849 MISS:       1298
L2C PREFETCH REQUESTED:          0 ISSUED:          0 USEFUL:          0 USELESS:          0
L2C AVERAGE MISS LATENCY: 63.37 cycles
LLC TOTAL        ACCESS:      57048 HIT:      44133 MISS:      12915
LLC LOAD         ACCESS:      30497 HIT:      19634 MISS:      10863
LLC RFO          ACCESS:       6841 HIT:       6383 MISS:        458
LLC PREFETCH     ACCESS:          0 HIT:          0 MISS:          0
LLC WRITE        ACCESS:      18412 HIT:      17331 MISS:       1081
LLC TRANSLATION  ACCESS:       1298 HIT:        785 MISS:        513
LLC PREFETCH REQUESTED:          0 ISSUED:          0 USEFUL:          0 USELESS:          0
LLC AVERAGE MISS LATENCY: 142.2 cycles
cpu0_DTLB TOTAL        ACCESS:   21581813 HIT:   21547162 MISS:      34651
cpu0_DTLB LOAD         ACCESS:   21581813 HIT:   21547162 MISS:      34651
cpu0_DTLB RFO          ACCESS:          0 HIT:          0 MISS:          0
cpu0_DTLB PREFETCH     ACCESS:          0 HIT:          0 MISS:          0
cpu0_DTLB WRITE        ACCESS:          0 HIT:          0 MISS:          0
cpu0_DTLB TRANSLATION  ACCESS:          0 HIT:          0 MISS:          0
cpu0_DTLB PREFETCH REQUESTED:          0 ISSUED:          0 USEFUL:          0 USELESS:          0
cpu0_DTLB AVERAGE MISS LATENCY: 11.43 cycles
cpu0_ITLB TOTAL        ACCESS:    8159562 HIT:    8154767 MISS:       4795
cpu0_ITLB LOAD         ACCESS:    8159562 HIT:    8154767 MISS:       4795
cpu0_ITLB RFO          ACCESS:          0 HIT:          0 MISS:          0
cpu0_ITLB PREFETCH     ACCESS:          0 HIT:          0 MISS:          0
cpu0_ITLB WRITE        ACCESS:          0 HIT:          0 MISS:          0
cpu0_ITLB TRANSLATION  ACCESS:          0 HIT:          0 MISS:          0
cpu0_ITLB PREFETCH REQUESTED:          0 ISSUED:          0 USEFUL:          0 USELESS:          0
cpu0_ITLB AVERAGE MISS LATENCY: 9.855 cycles
cpu0_STLB TOTAL        ACCESS:      21868 HIT:      19650 MISS:       2218
cpu0_STLB LOAD         ACCESS:      21868 HIT:      19650 MISS:       2218
cpu0_STLB RFO          ACCESS:          0 HIT:          0 MISS:          0
cpu0_STLB PREFETCH     ACCESS:          0 HIT:          0 MISS:          0
cpu0_STLB WRITE        ACCESS:          0 HIT:          0 MISS:          0
cpu0_STLB TRANSLATION  ACCESS:          0 HIT:          0 MISS:          0
cpu0_STLB PREFETCH REQUESTED:          0 ISSUED:          0 USEFUL:          0 USELESS:          0
cpu0_STLB AVERAGE MISS LATENCY: 133.8 cycles

DRAM Statistics

Channel 0 RQ ROW_BUFFER_HIT:       1904
  ROW_BUFFER_MISS:       9930
 AVG DBUS CONGESTED CYCLE: 3.659
WQ ROW_BUFFER_HIT: Channel 0 
  ROW_BUFFER_MISS:        152
  FULL:        670
