WARNING: physical memory size is smaller than virtual memory size.

*** ChampSim Multicore Out-of-Order Simulator ***
Warmup Instructions: 25000000
Simulation Instructions: 100000000
Number of CPUs: 1
Page size: 4096

[L1D] Demand IPV: 1 2 2 1 4 Prefetch IPV: 1 2 1 1 4
[L1I] Demand IPV: 1 2 2 1 4 Prefetch IPV: 1 2 1 1 4
[L2C] Demand IPV: 1 2 2 1 4 Prefetch IPV: 1 2 1 1 4
[LLC] Demand IPV: 1 2 2 1 4 Prefetch IPV: 1 2 1 1 4
Off-chip DRAM Size: 4 GiB Channels: 1 Width: 64-bit Data Race: 3200 MT/s
Heartbeat CPU 0 instructions: 10000000 cycles: 2500424 heartbeat IPC: 3.999 cumulative IPC: 3.999 (Simulation time: 00 hr 00 min 19 sec)
Heartbeat CPU 0 instructions: 20000001 cycles: 5002703 heartbeat IPC: 3.996 cumulative IPC: 3.998 (Simulation time: 00 hr 00 min 39 sec)
Warmup finished CPU 0 instructions: 25000001 cycles: 6252704 cumulative IPC: 3.998 (Simulation time: 00 hr 00 min 48 sec)
Warmup complete CPU 0 instructions: 25000001 cycles: 6252704 cumulative IPC: 3.998 (Simulation time: 00 hr 00 min 48 sec)
Heartbeat CPU 0 instructions: 30000000 cycles: 9911420 heartbeat IPC: 2.037 cumulative IPC: 1.367 (Simulation time: 00 hr 01 min 06 sec)
Heartbeat CPU 0 instructions: 40000000 cycles: 17160084 heartbeat IPC: 1.38 cumulative IPC: 1.375 (Simulation time: 00 hr 01 min 41 sec)
Heartbeat CPU 0 instructions: 50000003 cycles: 24381489 heartbeat IPC: 1.385 cumulative IPC: 1.379 (Simulation time: 00 hr 02 min 16 sec)
Heartbeat CPU 0 instructions: 60000001 cycles: 31684050 heartbeat IPC: 1.369 cumulative IPC: 1.376 (Simulation time: 00 hr 02 min 51 sec)
Heartbeat CPU 0 instructions: 70000000 cycles: 42009133 heartbeat IPC: 0.9685 cumulative IPC: 1.259 (Simulation time: 00 hr 03 min 36 sec)
Heartbeat CPU 0 instructions: 80000000 cycles: 65400633 heartbeat IPC: 0.4275 cumulative IPC: 0.9299 (Simulation time: 00 hr 04 min 58 sec)
Heartbeat CPU 0 instructions: 90000001 cycles: 81483766 heartbeat IPC: 0.6218 cumulative IPC: 0.864 (Simulation time: 00 hr 05 min 59 sec)
Heartbeat CPU 0 instructions: 100000001 cycles: 90138281 heartbeat IPC: 1.155 cumulative IPC: 0.8941 (Simulation time: 00 hr 06 min 39 sec)
*** Reached end of trace: (0, "../traces/secret_traces/compute_int/compute_int_495.champsimtrace.xz")
Heartbeat CPU 0 instructions: 110000002 cycles: 98569544 heartbeat IPC: 1.186 cumulative IPC: 0.9207 (Simulation time: 00 hr 07 min 18 sec)
Heartbeat CPU 0 instructions: 120000004 cycles: 106100224 heartbeat IPC: 1.328 cumulative IPC: 0.9515 (Simulation time: 00 hr 07 min 53 sec)
Simulation finished CPU 0 instructions: 100000001 cycles: 105284933 cumulative IPC: 0.9498 (Simulation time: 00 hr 08 min 17 sec)
Simulation complete CPU 0 instructions: 100000001 cycles: 105284933 cumulative IPC: 0.9498 (Simulation time: 00 hr 08 min 17 sec)

ChampSim completed all CPUs

=== Simulation ===
CPU 0 runs ../traces/secret_traces/compute_int/compute_int_495.champsimtrace.xz
Region of Interest Statistics

CPU 0 cumulative IPC: 0.9498 instructions: 100000001 cycles: 105284933
CPU 0 Branch Prediction Accuracy: 87.4% MPKI: 29.4 Average ROB Occupancy at Mispredict: 14.43
Branch type MPKI
BRANCH_DIRECT_JUMP: 0.0143
BRANCH_INDIRECT: 5.52
BRANCH_CONDITIONAL: 23.8
BRANCH_DIRECT_CALL: 0.028
BRANCH_INDIRECT_CALL: 0.0528
BRANCH_RETURN: 0.0143

L1D TOTAL        ACCESS:   28922489 HIT:   26483441 MISS:    2439048
L1D LOAD         ACCESS:   20488528 HIT:   18362970 MISS:    2125558
L1D RFO          ACCESS:          0 HIT:          0 MISS:          0
L1D PREFETCH     ACCESS:          0 HIT:          0 MISS:          0
L1D WRITE        ACCESS:    8411034 HIT:    8117354 MISS:     293680
L1D TRANSLATION  ACCESS:      22927 HIT:       3117 MISS:      19810
L1D PREFETCH REQUESTED:          0 ISSUED:          0 USEFUL:          0 USELESS:          0
L1D AVERAGE MISS LATENCY: 39.04 cycles
L1I TOTAL        ACCESS:    2278755 HIT:    1975821 MISS:     302934
L1I LOAD         ACCESS:    2278755 HIT:    1975821 MISS:     302934
L1I RFO          ACCESS:          0 HIT:          0 MISS:          0
L1I PREFETCH     ACCESS:          0 HIT:          0 MISS:          0
L1I WRITE        ACCESS:          0 HIT:          0 MISS:          0
L1I TRANSLATION  ACCESS:          0 HIT:          0 MISS:          0
L1I PREFETCH REQUESTED:          0 ISSUED:          0 USEFUL:          0 USELESS:          0
L1I AVERAGE MISS LATENCY: 14.15 cycles
L2C TOTAL        ACCESS:    2074906 HIT:    1509053 MISS:     565853
L2C LOAD         ACCESS:    1562611 HIT:    1115247 MISS:     447364
L2C RFO          ACCESS:     124502 HIT:      38891 MISS:      85611
L2C PREFETCH     ACCESS:          0 HIT:          0 MISS:          0
L2C WRITE        ACCESS:     368017 HIT:     348036 MISS:      19981
L2C TRANSLATION  ACCESS:      19776 HIT:       6879 MISS:      12897
L2C PREFETCH REQUESTED:          0 ISSUED:          0 USEFUL:          0 USELESS:          0
L2C AVERAGE MISS LATENCY: 150.1 cycles
LLC TOTAL        ACCESS:     678196 HIT:     334577 MISS:     343619
LLC LOAD         ACCESS:     447364 HIT:     235912 MISS:     211452
LLC RFO          ACCESS:      85611 HIT:      20819 MISS:      64792
LLC PREFETCH     ACCESS:          0 HIT:          0 MISS:          0
LLC WRITE        ACCESS:     132324 HIT:      74440 MISS:      57884
LLC TRANSLATION  ACCESS:      12897 HIT:       3406 MISS:       9491
LLC PREFETCH REQUESTED:          0 ISSUED:          0 USEFUL:          0 USELESS:          0
LLC AVERAGE MISS LATENCY: 214.5 cycles
cpu0_DTLB TOTAL        ACCESS:   24734149 HIT:   24124448 MISS:     609701
cpu0_DTLB LOAD         ACCESS:   24734149 HIT:   24124448 MISS:     609701
cpu0_DTLB RFO          ACCESS:          0 HIT:          0 MISS:          0
cpu0_DTLB PREFETCH     ACCESS:          0 HIT:          0 MISS:          0
cpu0_DTLB WRITE        ACCESS:          0 HIT:          0 MISS:          0
cpu0_DTLB TRANSLATION  ACCESS:          0 HIT:          0 MISS:          0
cpu0_DTLB PREFETCH REQUESTED:          0 ISSUED:          0 USEFUL:          0 USELESS:          0
cpu0_DTLB AVERAGE MISS LATENCY: 9.315 cycles
cpu0_ITLB TOTAL        ACCESS:    2017201 HIT:    2005928 MISS:      11273
cpu0_ITLB LOAD         ACCESS:    2017201 HIT:    2005928 MISS:      11273
cpu0_ITLB RFO          ACCESS:          0 HIT:          0 MISS:          0
cpu0_ITLB PREFETCH     ACCESS:          0 HIT:          0 MISS:          0
cpu0_ITLB WRITE        ACCESS:          0 HIT:          0 MISS:          0
cpu0_ITLB TRANSLATION  ACCESS:          0 HIT:          0 MISS:          0
cpu0_ITLB PREFETCH REQUESTED:          0 ISSUED:          0 USEFUL:          0 USELESS:          0
cpu0_ITLB AVERAGE MISS LATENCY: 20.05 cycles
cpu0_STLB TOTAL        ACCESS:     421737 HIT:     400032 MISS:      21705
cpu0_STLB LOAD         ACCESS:     421737 HIT:     400032 MISS:      21705
cpu0_STLB RFO          ACCESS:          0 HIT:          0 MISS:          0
cpu0_STLB PREFETCH     ACCESS:          0 HIT:          0 MISS:          0
cpu0_STLB WRITE        ACCESS:          0 HIT:          0 MISS:          0
cpu0_STLB TRANSLATION  ACCESS:          0 HIT:          0 MISS:          0
cpu0_STLB PREFETCH REQUESTED:          0 ISSUED:          0 USEFUL:          0 USELESS:          0
cpu0_STLB AVERAGE MISS LATENCY: 153.4 cycles

DRAM Statistics

Channel 0 RQ ROW_BUFFER_HIT:      75307
  ROW_BUFFER_MISS:     210373
 AVG DBUS CONGESTED CYCLE: 3.917
WQ ROW_BUFFER_HIT: Channel 0 
  ROW_BUFFER_MISS:      18507
  FULL:      66388
