WARNING: physical memory size is smaller than virtual memory size.

*** ChampSim Multicore Out-of-Order Simulator ***
Warmup Instructions: 25000000
Simulation Instructions: 100000000
Number of CPUs: 1
Page size: 4096

[L1D] Demand IPV: 1 2 2 1 4 Prefetch IPV: 1 2 1 1 4
[L1I] Demand IPV: 1 2 2 1 4 Prefetch IPV: 1 2 1 1 4
[L2C] Demand IPV: 1 2 2 1 4 Prefetch IPV: 1 2 1 1 4
[LLC] Demand IPV: 1 2 2 1 4 Prefetch IPV: 1 2 1 1 4
Off-chip DRAM Size: 4 GiB Channels: 1 Width: 64-bit Data Race: 3200 MT/s
Heartbeat CPU 0 instructions: 10000001 cycles: 2508667 heartbeat IPC: 3.986 cumulative IPC: 3.986 (Simulation time: 00 hr 00 min 18 sec)
Heartbeat CPU 0 instructions: 20000000 cycles: 5017488 heartbeat IPC: 3.986 cumulative IPC: 3.986 (Simulation time: 00 hr 00 min 37 sec)
Warmup finished CPU 0 instructions: 25000000 cycles: 6267489 cumulative IPC: 3.989 (Simulation time: 00 hr 00 min 46 sec)
Warmup complete CPU 0 instructions: 25000000 cycles: 6267489 cumulative IPC: 3.989 (Simulation time: 00 hr 00 min 46 sec)
Heartbeat CPU 0 instructions: 30000001 cycles: 9710878 heartbeat IPC: 2.131 cumulative IPC: 1.452 (Simulation time: 00 hr 01 min 03 sec)
Heartbeat CPU 0 instructions: 40000000 cycles: 16785275 heartbeat IPC: 1.414 cumulative IPC: 1.426 (Simulation time: 00 hr 01 min 37 sec)
Heartbeat CPU 0 instructions: 50000000 cycles: 24148261 heartbeat IPC: 1.358 cumulative IPC: 1.398 (Simulation time: 00 hr 02 min 13 sec)
Heartbeat CPU 0 instructions: 60000002 cycles: 31218129 heartbeat IPC: 1.414 cumulative IPC: 1.403 (Simulation time: 00 hr 02 min 53 sec)
Heartbeat CPU 0 instructions: 70000004 cycles: 41062011 heartbeat IPC: 1.016 cumulative IPC: 1.293 (Simulation time: 00 hr 03 min 44 sec)
Heartbeat CPU 0 instructions: 80000004 cycles: 48377801 heartbeat IPC: 1.367 cumulative IPC: 1.306 (Simulation time: 00 hr 04 min 20 sec)
*** Reached end of trace: (0, "../traces/secret_traces/compute_int/compute_int_905.champsimtrace.xz")
Heartbeat CPU 0 instructions: 90000002 cycles: 53261665 heartbeat IPC: 2.048 cumulative IPC: 1.383 (Simulation time: 00 hr 04 min 48 sec)
Heartbeat CPU 0 instructions: 100000001 cycles: 58788470 heartbeat IPC: 1.809 cumulative IPC: 1.428 (Simulation time: 00 hr 05 min 18 sec)
Heartbeat CPU 0 instructions: 110000001 cycles: 64940700 heartbeat IPC: 1.625 cumulative IPC: 1.449 (Simulation time: 00 hr 05 min 49 sec)
Heartbeat CPU 0 instructions: 120000001 cycles: 72053595 heartbeat IPC: 1.406 cumulative IPC: 1.444 (Simulation time: 00 hr 06 min 24 sec)
Simulation finished CPU 0 instructions: 100000002 cycles: 69471816 cumulative IPC: 1.439 (Simulation time: 00 hr 06 min 41 sec)
Simulation complete CPU 0 instructions: 100000002 cycles: 69471816 cumulative IPC: 1.439 (Simulation time: 00 hr 06 min 41 sec)

ChampSim completed all CPUs

=== Simulation ===
CPU 0 runs ../traces/secret_traces/compute_int/compute_int_905.champsimtrace.xz
Region of Interest Statistics

CPU 0 cumulative IPC: 1.439 instructions: 100000002 cycles: 69471816
CPU 0 Branch Prediction Accuracy: 87.4% MPKI: 24.64 Average ROB Occupancy at Mispredict: 12.09
Branch type MPKI
BRANCH_DIRECT_JUMP: 1e-05
BRANCH_INDIRECT: 2.3
BRANCH_CONDITIONAL: 22.3
BRANCH_DIRECT_CALL: 0.00011
BRANCH_INDIRECT_CALL: 0.00116
BRANCH_RETURN: 0.00012

L1D TOTAL        ACCESS:   27225461 HIT:   25301698 MISS:    1923763
L1D LOAD         ACCESS:   17111756 HIT:   15740181 MISS:    1371575
L1D RFO          ACCESS:          0 HIT:          0 MISS:          0
L1D PREFETCH     ACCESS:          0 HIT:          0 MISS:          0
L1D WRITE        ACCESS:   10112698 HIT:    9560785 MISS:     551913
L1D TRANSLATION  ACCESS:       1007 HIT:        732 MISS:        275
L1D PREFETCH REQUESTED:          0 ISSUED:          0 USEFUL:          0 USELESS:          0
L1D AVERAGE MISS LATENCY: 42.3 cycles
L1I TOTAL        ACCESS:      21518 HIT:      17039 MISS:       4479
L1I LOAD         ACCESS:      21518 HIT:      17039 MISS:       4479
L1I RFO          ACCESS:          0 HIT:          0 MISS:          0
L1I PREFETCH     ACCESS:          0 HIT:          0 MISS:          0
L1I WRITE        ACCESS:          0 HIT:          0 MISS:          0
L1I TRANSLATION  ACCESS:          0 HIT:          0 MISS:          0
L1I PREFETCH REQUESTED:          0 ISSUED:          0 USEFUL:          0 USELESS:          0
L1I AVERAGE MISS LATENCY: 67.89 cycles
L2C TOTAL        ACCESS:    1104064 HIT:     529312 MISS:     574752
L2C LOAD         ACCESS:     825438 HIT:     379737 MISS:     445701
L2C RFO          ACCESS:     111922 HIT:      11259 MISS:     100663
L2C PREFETCH     ACCESS:          0 HIT:          0 MISS:          0
L2C WRITE        ACCESS:     166429 HIT:     138103 MISS:      28326
L2C TRANSLATION  ACCESS:        275 HIT:        213 MISS:         62
L2C PREFETCH REQUESTED:          0 ISSUED:          0 USEFUL:          0 USELESS:          0
L2C AVERAGE MISS LATENCY: 140.3 cycles
LLC TOTAL        ACCESS:     690792 HIT:     409168 MISS:     281624
LLC LOAD         ACCESS:     445701 HIT:     302525 MISS:     143176
LLC RFO          ACCESS:     100663 HIT:      22345 MISS:      78318
LLC PREFETCH     ACCESS:          0 HIT:          0 MISS:          0
LLC WRITE        ACCESS:     144366 HIT:      84267 MISS:      60099
LLC TRANSLATION  ACCESS:         62 HIT:         31 MISS:         31
LLC PREFETCH REQUESTED:          0 ISSUED:          0 USEFUL:          0 USELESS:          0
LLC AVERAGE MISS LATENCY: 246.8 cycles
cpu0_DTLB TOTAL        ACCESS:   24349769 HIT:   23789421 MISS:     560348
cpu0_DTLB LOAD         ACCESS:   24349769 HIT:   23789421 MISS:     560348
cpu0_DTLB RFO          ACCESS:          0 HIT:          0 MISS:          0
cpu0_DTLB PREFETCH     ACCESS:          0 HIT:          0 MISS:          0
cpu0_DTLB WRITE        ACCESS:          0 HIT:          0 MISS:          0
cpu0_DTLB TRANSLATION  ACCESS:          0 HIT:          0 MISS:          0
cpu0_DTLB PREFETCH REQUESTED:          0 ISSUED:          0 USEFUL:          0 USELESS:          0
cpu0_DTLB AVERAGE MISS LATENCY: 8.081 cycles
cpu0_ITLB TOTAL        ACCESS:      19161 HIT:      18119 MISS:       1042
cpu0_ITLB LOAD         ACCESS:      19161 HIT:      18119 MISS:       1042
cpu0_ITLB RFO          ACCESS:          0 HIT:          0 MISS:          0
cpu0_ITLB PREFETCH     ACCESS:          0 HIT:          0 MISS:          0
cpu0_ITLB WRITE        ACCESS:          0 HIT:          0 MISS:          0
cpu0_ITLB TRANSLATION  ACCESS:          0 HIT:          0 MISS:          0
cpu0_ITLB PREFETCH REQUESTED:          0 ISSUED:          0 USEFUL:          0 USELESS:          0
cpu0_ITLB AVERAGE MISS LATENCY: 6.632 cycles
cpu0_STLB TOTAL        ACCESS:     544316 HIT:     543310 MISS:       1006
cpu0_STLB LOAD         ACCESS:     544316 HIT:     543310 MISS:       1006
cpu0_STLB RFO          ACCESS:          0 HIT:          0 MISS:          0
cpu0_STLB PREFETCH     ACCESS:          0 HIT:          0 MISS:          0
cpu0_STLB WRITE        ACCESS:          0 HIT:          0 MISS:          0
cpu0_STLB TRANSLATION  ACCESS:          0 HIT:          0 MISS:          0
cpu0_STLB PREFETCH REQUESTED:          0 ISSUED:          0 USEFUL:          0 USELESS:          0
cpu0_STLB AVERAGE MISS LATENCY: 310.9 cycles

DRAM Statistics

Channel 0 RQ ROW_BUFFER_HIT:      45224
  ROW_BUFFER_MISS:     175991
 AVG DBUS CONGESTED CYCLE: 3.947
WQ ROW_BUFFER_HIT: Channel 0 
  ROW_BUFFER_MISS:       3916
  FULL:      84488
