WARNING: physical memory size is smaller than virtual memory size.

*** ChampSim Multicore Out-of-Order Simulator ***
Warmup Instructions: 25000000
Simulation Instructions: 100000000
Number of CPUs: 1
Page size: 4096

[L1D] Demand IPV: 1 2 2 1 4 Prefetch IPV: 1 2 1 1 4
[L1I] Demand IPV: 1 2 2 1 4 Prefetch IPV: 1 2 1 1 4
[L2C] Demand IPV: 1 2 2 1 4 Prefetch IPV: 1 2 1 1 4
[LLC] Demand IPV: 1 2 2 1 4 Prefetch IPV: 1 2 1 1 4
Off-chip DRAM Size: 4 GiB Channels: 1 Width: 64-bit Data Race: 3200 MT/s
Heartbeat CPU 0 instructions: 10000002 cycles: 2523372 heartbeat IPC: 3.963 cumulative IPC: 3.963 (Simulation time: 00 hr 00 min 20 sec)
Heartbeat CPU 0 instructions: 20000001 cycles: 5023400 heartbeat IPC: 4 cumulative IPC: 3.981 (Simulation time: 00 hr 00 min 41 sec)
Warmup finished CPU 0 instructions: 25000001 cycles: 6273401 cumulative IPC: 3.985 (Simulation time: 00 hr 00 min 51 sec)
Warmup complete CPU 0 instructions: 25000001 cycles: 6273401 cumulative IPC: 3.985 (Simulation time: 00 hr 00 min 51 sec)
Heartbeat CPU 0 instructions: 30000000 cycles: 30521733 heartbeat IPC: 0.3922 cumulative IPC: 0.2062 (Simulation time: 00 hr 02 min 44 sec)
Heartbeat CPU 0 instructions: 40000003 cycles: 78335928 heartbeat IPC: 0.2091 cumulative IPC: 0.2082 (Simulation time: 00 hr 06 min 17 sec)
Heartbeat CPU 0 instructions: 50000001 cycles: 120495322 heartbeat IPC: 0.2372 cumulative IPC: 0.2189 (Simulation time: 00 hr 09 min 40 sec)
Heartbeat CPU 0 instructions: 60000003 cycles: 169897699 heartbeat IPC: 0.2024 cumulative IPC: 0.2139 (Simulation time: 00 hr 13 min 31 sec)
Heartbeat CPU 0 instructions: 70000000 cycles: 225631355 heartbeat IPC: 0.1794 cumulative IPC: 0.2051 (Simulation time: 00 hr 18 min 04 sec)
Heartbeat CPU 0 instructions: 80000002 cycles: 258941387 heartbeat IPC: 0.3002 cumulative IPC: 0.2177 (Simulation time: 00 hr 20 min 47 sec)
Heartbeat CPU 0 instructions: 90000000 cycles: 307988740 heartbeat IPC: 0.2039 cumulative IPC: 0.2154 (Simulation time: 00 hr 24 min 35 sec)
Heartbeat CPU 0 instructions: 100000003 cycles: 361372488 heartbeat IPC: 0.1873 cumulative IPC: 0.2112 (Simulation time: 00 hr 28 min 58 sec)
*** Reached end of trace: (0, "../traces/secret_traces/compute_fp/compute_fp_112.champsimtrace.xz")
Heartbeat CPU 0 instructions: 110000002 cycles: 393928547 heartbeat IPC: 0.3072 cumulative IPC: 0.2193 (Simulation time: 00 hr 31 min 32 sec)
Heartbeat CPU 0 instructions: 120000002 cycles: 426278449 heartbeat IPC: 0.3091 cumulative IPC: 0.2262 (Simulation time: 00 hr 34 min 12 sec)
Simulation finished CPU 0 instructions: 100000002 cycles: 441457501 cumulative IPC: 0.2265 (Simulation time: 00 hr 35 min 53 sec)
Simulation complete CPU 0 instructions: 100000002 cycles: 441457501 cumulative IPC: 0.2265 (Simulation time: 00 hr 35 min 53 sec)

ChampSim completed all CPUs

=== Simulation ===
CPU 0 runs ../traces/secret_traces/compute_fp/compute_fp_112.champsimtrace.xz
Region of Interest Statistics

CPU 0 cumulative IPC: 0.2265 instructions: 100000002 cycles: 441457501
CPU 0 Branch Prediction Accuracy: 97.97% MPKI: 0.4249 Average ROB Occupancy at Mispredict: 7.939
Branch type MPKI
BRANCH_DIRECT_JUMP: 0.00715
BRANCH_INDIRECT: 0.308
BRANCH_CONDITIONAL: 0.0705
BRANCH_DIRECT_CALL: 0.0201
BRANCH_INDIRECT_CALL: 0.00759
BRANCH_RETURN: 0.0112

L1D TOTAL        ACCESS:   19819683 HIT:    4577880 MISS:   15241803
L1D LOAD         ACCESS:   12348687 HIT:     640655 MISS:   11708032
L1D RFO          ACCESS:          0 HIT:          0 MISS:          0
L1D PREFETCH     ACCESS:          0 HIT:          0 MISS:          0
L1D WRITE        ACCESS:    6857371 HIT:    3344534 MISS:    3512837
L1D TRANSLATION  ACCESS:     613625 HIT:     592691 MISS:      20934
L1D PREFETCH REQUESTED:          0 ISSUED:          0 USEFUL:          0 USELESS:          0
L1D AVERAGE MISS LATENCY: 387.9 cycles
L1I TOTAL        ACCESS:      66338 HIT:      44523 MISS:      21815
L1I LOAD         ACCESS:      66338 HIT:      44523 MISS:      21815
L1I RFO          ACCESS:          0 HIT:          0 MISS:          0
L1I PREFETCH     ACCESS:          0 HIT:          0 MISS:          0
L1I WRITE        ACCESS:          0 HIT:          0 MISS:          0
L1I TRANSLATION  ACCESS:          0 HIT:          0 MISS:          0
L1I PREFETCH REQUESTED:          0 ISSUED:          0 USEFUL:          0 USELESS:          0
L1I AVERAGE MISS LATENCY: 128 cycles
L2C TOTAL        ACCESS:    8447216 HIT:    1907876 MISS:    6539340
L2C LOAD         ACCESS:    5377830 HIT:      17721 MISS:    5360109
L2C RFO          ACCESS:    1012464 HIT:     168208 MISS:     844256
L2C PREFETCH     ACCESS:          0 HIT:          0 MISS:          0
L2C WRITE        ACCESS:    2036852 HIT:    1709997 MISS:     326855
L2C TRANSLATION  ACCESS:      20070 HIT:      11950 MISS:       8120
L2C PREFETCH REQUESTED:          0 ISSUED:          0 USEFUL:          0 USELESS:          0
L2C AVERAGE MISS LATENCY: 966.2 cycles
LLC TOTAL        ACCESS:    8245985 HIT:     649723 MISS:    7596262
LLC LOAD         ACCESS:    5360109 HIT:     111255 MISS:    5248854
LLC RFO          ACCESS:     844256 HIT:      18641 MISS:     825615
LLC PREFETCH     ACCESS:          0 HIT:          0 MISS:          0
LLC WRITE        ACCESS:    2033500 HIT:     517554 MISS:    1515946
LLC TRANSLATION  ACCESS:       8120 HIT:       2273 MISS:       5847
LLC PREFETCH REQUESTED:          0 ISSUED:          0 USEFUL:          0 USELESS:          0
LLC AVERAGE MISS LATENCY: 814.6 cycles
cpu0_DTLB TOTAL        ACCESS:   15012747 HIT:   12156682 MISS:    2856065
cpu0_DTLB LOAD         ACCESS:   15012747 HIT:   12156682 MISS:    2856065
cpu0_DTLB RFO          ACCESS:          0 HIT:          0 MISS:          0
cpu0_DTLB PREFETCH     ACCESS:          0 HIT:          0 MISS:          0
cpu0_DTLB WRITE        ACCESS:          0 HIT:          0 MISS:          0
cpu0_DTLB TRANSLATION  ACCESS:          0 HIT:          0 MISS:          0
cpu0_DTLB PREFETCH REQUESTED:          0 ISSUED:          0 USEFUL:          0 USELESS:          0
cpu0_DTLB AVERAGE MISS LATENCY: 12 cycles
cpu0_ITLB TOTAL        ACCESS:      60027 HIT:      55553 MISS:       4474
cpu0_ITLB LOAD         ACCESS:      60027 HIT:      55553 MISS:       4474
cpu0_ITLB RFO          ACCESS:          0 HIT:          0 MISS:          0
cpu0_ITLB PREFETCH     ACCESS:          0 HIT:          0 MISS:          0
cpu0_ITLB WRITE        ACCESS:          0 HIT:          0 MISS:          0
cpu0_ITLB TRANSLATION  ACCESS:          0 HIT:          0 MISS:          0
cpu0_ITLB PREFETCH REQUESTED:          0 ISSUED:          0 USEFUL:          0 USELESS:          0
cpu0_ITLB AVERAGE MISS LATENCY: 40.66 cycles
cpu0_STLB TOTAL        ACCESS:     617279 HIT:       5243 MISS:     612036
cpu0_STLB LOAD         ACCESS:     617279 HIT:       5243 MISS:     612036
cpu0_STLB RFO          ACCESS:          0 HIT:          0 MISS:          0
cpu0_STLB PREFETCH     ACCESS:          0 HIT:          0 MISS:          0
cpu0_STLB WRITE        ACCESS:          0 HIT:          0 MISS:          0
cpu0_STLB TRANSLATION  ACCESS:          0 HIT:          0 MISS:          0
cpu0_STLB PREFETCH REQUESTED:          0 ISSUED:          0 USEFUL:          0 USELESS:          0
cpu0_STLB AVERAGE MISS LATENCY: 92.47 cycles

DRAM Statistics

Channel 0 RQ ROW_BUFFER_HIT:    2859382
  ROW_BUFFER_MISS:    3220910
 AVG DBUS CONGESTED CYCLE: 3.955
WQ ROW_BUFFER_HIT: Channel 0 
  ROW_BUFFER_MISS:      37574
  FULL:    1979192
