WARNING: physical memory size is smaller than virtual memory size.

*** ChampSim Multicore Out-of-Order Simulator ***
Warmup Instructions: 25000000
Simulation Instructions: 100000000
Number of CPUs: 1
Page size: 4096

[L1D] Demand IPV: 1 2 2 1 4 Prefetch IPV: 1 2 1 1 4
[L1I] Demand IPV: 1 2 2 1 4 Prefetch IPV: 1 2 1 1 4
[L2C] Demand IPV: 1 2 2 1 4 Prefetch IPV: 1 2 1 1 4
[LLC] Demand IPV: 1 2 2 1 4 Prefetch IPV: 1 2 1 1 4
Off-chip DRAM Size: 4 GiB Channels: 1 Width: 64-bit Data Race: 3200 MT/s
Heartbeat CPU 0 instructions: 10000000 cycles: 2500073 heartbeat IPC: 4 cumulative IPC: 4 (Simulation time: 00 hr 00 min 19 sec)
Heartbeat CPU 0 instructions: 20000003 cycles: 5000244 heartbeat IPC: 4 cumulative IPC: 4 (Simulation time: 00 hr 00 min 38 sec)
Warmup finished CPU 0 instructions: 25000003 cycles: 6250245 cumulative IPC: 4 (Simulation time: 00 hr 00 min 48 sec)
Warmup complete CPU 0 instructions: 25000003 cycles: 6250245 cumulative IPC: 4 (Simulation time: 00 hr 00 min 48 sec)
Heartbeat CPU 0 instructions: 30000003 cycles: 18830061 heartbeat IPC: 0.7231 cumulative IPC: 0.3975 (Simulation time: 00 hr 01 min 31 sec)
Heartbeat CPU 0 instructions: 40000001 cycles: 45497338 heartbeat IPC: 0.375 cumulative IPC: 0.3822 (Simulation time: 00 hr 03 min 01 sec)
Heartbeat CPU 0 instructions: 50000001 cycles: 69940536 heartbeat IPC: 0.4091 cumulative IPC: 0.3925 (Simulation time: 00 hr 04 min 25 sec)
Heartbeat CPU 0 instructions: 60000003 cycles: 95423943 heartbeat IPC: 0.3924 cumulative IPC: 0.3925 (Simulation time: 00 hr 05 min 52 sec)
Heartbeat CPU 0 instructions: 70000000 cycles: 119753277 heartbeat IPC: 0.411 cumulative IPC: 0.3965 (Simulation time: 00 hr 07 min 15 sec)
Heartbeat CPU 0 instructions: 80000001 cycles: 145136216 heartbeat IPC: 0.394 cumulative IPC: 0.396 (Simulation time: 00 hr 08 min 40 sec)
Heartbeat CPU 0 instructions: 90000001 cycles: 170710790 heartbeat IPC: 0.391 cumulative IPC: 0.3952 (Simulation time: 00 hr 10 min 05 sec)
Heartbeat CPU 0 instructions: 100000003 cycles: 194641495 heartbeat IPC: 0.4179 cumulative IPC: 0.3981 (Simulation time: 00 hr 11 min 27 sec)
*** Reached end of trace: (0, "../traces/secret_traces/compute_int/compute_int_273.champsimtrace.xz")
Heartbeat CPU 0 instructions: 110000004 cycles: 219847962 heartbeat IPC: 0.3967 cumulative IPC: 0.3979 (Simulation time: 00 hr 12 min 52 sec)
Heartbeat CPU 0 instructions: 120000003 cycles: 243532315 heartbeat IPC: 0.4222 cumulative IPC: 0.4004 (Simulation time: 00 hr 14 min 14 sec)
Simulation finished CPU 0 instructions: 100000003 cycles: 250517009 cumulative IPC: 0.3992 (Simulation time: 00 hr 14 min 59 sec)
Simulation complete CPU 0 instructions: 100000003 cycles: 250517009 cumulative IPC: 0.3992 (Simulation time: 00 hr 14 min 59 sec)

ChampSim completed all CPUs

=== Simulation ===
CPU 0 runs ../traces/secret_traces/compute_int/compute_int_273.champsimtrace.xz
Region of Interest Statistics

CPU 0 cumulative IPC: 0.3992 instructions: 100000003 cycles: 250517009
CPU 0 Branch Prediction Accuracy: 83.54% MPKI: 23.16 Average ROB Occupancy at Mispredict: 20.89
Branch type MPKI
BRANCH_DIRECT_JUMP: 0.00013
BRANCH_INDIRECT: 0.714
BRANCH_CONDITIONAL: 22.4
BRANCH_DIRECT_CALL: 0.00014
BRANCH_INDIRECT_CALL: 0.00194
BRANCH_RETURN: 0.00013

L1D TOTAL        ACCESS:   22691270 HIT:   20177887 MISS:    2513383
L1D LOAD         ACCESS:   16534122 HIT:   14977658 MISS:    1556464
L1D RFO          ACCESS:          0 HIT:          0 MISS:          0
L1D PREFETCH     ACCESS:          0 HIT:          0 MISS:          0
L1D WRITE        ACCESS:    5151462 HIT:    5060931 MISS:      90531
L1D TRANSLATION  ACCESS:    1005686 HIT:     139298 MISS:     866388
L1D PREFETCH REQUESTED:          0 ISSUED:          0 USEFUL:          0 USELESS:          0
L1D AVERAGE MISS LATENCY: 150.3 cycles
L1I TOTAL        ACCESS:      54974 HIT:      53407 MISS:       1567
L1I LOAD         ACCESS:      54974 HIT:      53407 MISS:       1567
L1I RFO          ACCESS:          0 HIT:          0 MISS:          0
L1I PREFETCH     ACCESS:          0 HIT:          0 MISS:          0
L1I WRITE        ACCESS:          0 HIT:          0 MISS:          0
L1I TRANSLATION  ACCESS:          0 HIT:          0 MISS:          0
L1I PREFETCH REQUESTED:          0 ISSUED:          0 USEFUL:          0 USELESS:          0
L1I AVERAGE MISS LATENCY: 155.6 cycles
L2C TOTAL        ACCESS:    2861321 HIT:     990911 MISS:    1870410
L2C LOAD         ACCESS:    1263915 HIT:     276604 MISS:     987311
L2C RFO          ACCESS:      65669 HIT:      16883 MISS:      48786
L2C PREFETCH     ACCESS:          0 HIT:          0 MISS:          0
L2C WRITE        ACCESS:     667191 HIT:     486454 MISS:     180737
L2C TRANSLATION  ACCESS:     864546 HIT:     210970 MISS:     653576
L2C PREFETCH REQUESTED:          0 ISSUED:          0 USEFUL:          0 USELESS:          0
L2C AVERAGE MISS LATENCY: 190.5 cycles
LLC TOTAL        ACCESS:    2262931 HIT:     408880 MISS:    1854051
LLC LOAD         ACCESS:     987311 HIT:     126712 MISS:     860599
LLC RFO          ACCESS:      48786 HIT:      20999 MISS:      27787
LLC PREFETCH     ACCESS:          0 HIT:          0 MISS:          0
LLC WRITE        ACCESS:     573258 HIT:     225775 MISS:     347483
LLC TRANSLATION  ACCESS:     653576 HIT:      35394 MISS:     618182
LLC PREFETCH REQUESTED:          0 ISSUED:          0 USEFUL:          0 USELESS:          0
LLC AVERAGE MISS LATENCY: 173.2 cycles
cpu0_DTLB TOTAL        ACCESS:   18532098 HIT:   16826257 MISS:    1705841
cpu0_DTLB LOAD         ACCESS:   18532098 HIT:   16826257 MISS:    1705841
cpu0_DTLB RFO          ACCESS:          0 HIT:          0 MISS:          0
cpu0_DTLB PREFETCH     ACCESS:          0 HIT:          0 MISS:          0
cpu0_DTLB WRITE        ACCESS:          0 HIT:          0 MISS:          0
cpu0_DTLB TRANSLATION  ACCESS:          0 HIT:          0 MISS:          0
cpu0_DTLB PREFETCH REQUESTED:          0 ISSUED:          0 USEFUL:          0 USELESS:          0
cpu0_DTLB AVERAGE MISS LATENCY: 108.3 cycles
cpu0_ITLB TOTAL        ACCESS:      52277 HIT:      51802 MISS:        475
cpu0_ITLB LOAD         ACCESS:      52277 HIT:      51802 MISS:        475
cpu0_ITLB RFO          ACCESS:          0 HIT:          0 MISS:          0
cpu0_ITLB PREFETCH     ACCESS:          0 HIT:          0 MISS:          0
cpu0_ITLB WRITE        ACCESS:          0 HIT:          0 MISS:          0
cpu0_ITLB TRANSLATION  ACCESS:          0 HIT:          0 MISS:          0
cpu0_ITLB PREFETCH REQUESTED:          0 ISSUED:          0 USEFUL:          0 USELESS:          0
cpu0_ITLB AVERAGE MISS LATENCY: 98.27 cycles
cpu0_STLB TOTAL        ACCESS:    1395514 HIT:     691410 MISS:     704104
cpu0_STLB LOAD         ACCESS:    1395514 HIT:     691410 MISS:     704104
cpu0_STLB RFO          ACCESS:          0 HIT:          0 MISS:          0
cpu0_STLB PREFETCH     ACCESS:          0 HIT:          0 MISS:          0
cpu0_STLB WRITE        ACCESS:          0 HIT:          0 MISS:          0
cpu0_STLB TRANSLATION  ACCESS:          0 HIT:          0 MISS:          0
cpu0_STLB PREFETCH REQUESTED:          0 ISSUED:          0 USEFUL:          0 USELESS:          0
cpu0_STLB AVERAGE MISS LATENCY: 247.3 cycles

DRAM Statistics

Channel 0 RQ ROW_BUFFER_HIT:      41521
  ROW_BUFFER_MISS:    1464991
 AVG DBUS CONGESTED CYCLE: 3.812
WQ ROW_BUFFER_HIT: Channel 0 
  ROW_BUFFER_MISS:      88177
  FULL:     398762
