WARNING: physical memory size is smaller than virtual memory size.

*** ChampSim Multicore Out-of-Order Simulator ***
Warmup Instructions: 25000000
Simulation Instructions: 100000000
Number of CPUs: 1
Page size: 4096

[L1D] Demand IPV: 1 2 2 1 4 Prefetch IPV: 1 2 1 1 4
[L1I] Demand IPV: 1 2 2 1 4 Prefetch IPV: 1 2 1 1 4
[L2C] Demand IPV: 1 2 2 1 4 Prefetch IPV: 1 2 1 1 4
[LLC] Demand IPV: 1 2 2 1 4 Prefetch IPV: 1 2 1 1 4
Off-chip DRAM Size: 4 GiB Channels: 1 Width: 64-bit Data Race: 3200 MT/s
Heartbeat CPU 0 instructions: 10000003 cycles: 2569598 heartbeat IPC: 3.892 cumulative IPC: 3.892 (Simulation time: 00 hr 00 min 19 sec)
Heartbeat CPU 0 instructions: 20000001 cycles: 5104364 heartbeat IPC: 3.945 cumulative IPC: 3.918 (Simulation time: 00 hr 00 min 39 sec)
Warmup finished CPU 0 instructions: 25000003 cycles: 6397011 cumulative IPC: 3.908 (Simulation time: 00 hr 00 min 49 sec)
Warmup complete CPU 0 instructions: 25000003 cycles: 6397011 cumulative IPC: 3.908 (Simulation time: 00 hr 00 min 49 sec)
Heartbeat CPU 0 instructions: 30000003 cycles: 10223244 heartbeat IPC: 1.954 cumulative IPC: 1.307 (Simulation time: 00 hr 01 min 07 sec)
Heartbeat CPU 0 instructions: 40000000 cycles: 18151389 heartbeat IPC: 1.261 cumulative IPC: 1.276 (Simulation time: 00 hr 01 min 43 sec)
Heartbeat CPU 0 instructions: 50000000 cycles: 24904023 heartbeat IPC: 1.481 cumulative IPC: 1.351 (Simulation time: 00 hr 02 min 16 sec)
Heartbeat CPU 0 instructions: 60000000 cycles: 28793637 heartbeat IPC: 2.571 cumulative IPC: 1.563 (Simulation time: 00 hr 02 min 43 sec)
Heartbeat CPU 0 instructions: 70000003 cycles: 34249461 heartbeat IPC: 1.833 cumulative IPC: 1.616 (Simulation time: 00 hr 03 min 16 sec)
Heartbeat CPU 0 instructions: 80000004 cycles: 38853254 heartbeat IPC: 2.172 cumulative IPC: 1.695 (Simulation time: 00 hr 03 min 44 sec)
Heartbeat CPU 0 instructions: 90000004 cycles: 44788868 heartbeat IPC: 1.685 cumulative IPC: 1.693 (Simulation time: 00 hr 04 min 18 sec)
Heartbeat CPU 0 instructions: 100000003 cycles: 55145904 heartbeat IPC: 0.9655 cumulative IPC: 1.538 (Simulation time: 00 hr 05 min 12 sec)
Heartbeat CPU 0 instructions: 110000004 cycles: 59912676 heartbeat IPC: 2.098 cumulative IPC: 1.588 (Simulation time: 00 hr 05 min 41 sec)
Heartbeat CPU 0 instructions: 120000001 cycles: 64816006 heartbeat IPC: 2.039 cumulative IPC: 1.626 (Simulation time: 00 hr 06 min 10 sec)
Simulation finished CPU 0 instructions: 100000002 cycles: 61085749 cumulative IPC: 1.637 (Simulation time: 00 hr 06 min 25 sec)
Simulation complete CPU 0 instructions: 100000002 cycles: 61085749 cumulative IPC: 1.637 (Simulation time: 00 hr 06 min 25 sec)

ChampSim completed all CPUs

=== Simulation ===
CPU 0 runs ../traces/secret_traces/compute_int/compute_int_96.champsimtrace.xz
Region of Interest Statistics

CPU 0 cumulative IPC: 1.637 instructions: 100000002 cycles: 61085749
CPU 0 Branch Prediction Accuracy: 91.09% MPKI: 13.03 Average ROB Occupancy at Mispredict: 17.85
Branch type MPKI
BRANCH_DIRECT_JUMP: 0.00076
BRANCH_INDIRECT: 2.12
BRANCH_CONDITIONAL: 10.9
BRANCH_DIRECT_CALL: 0.00051
BRANCH_INDIRECT_CALL: 0.00143
BRANCH_RETURN: 0.00045

L1D TOTAL        ACCESS:   28953693 HIT:   26240757 MISS:    2712936
L1D LOAD         ACCESS:   16596549 HIT:   15224209 MISS:    1372340
L1D RFO          ACCESS:          0 HIT:          0 MISS:          0
L1D PREFETCH     ACCESS:          0 HIT:          0 MISS:          0
L1D WRITE        ACCESS:   12354754 HIT:   11014792 MISS:    1339962
L1D TRANSLATION  ACCESS:       2390 HIT:       1756 MISS:        634
L1D PREFETCH REQUESTED:          0 ISSUED:          0 USEFUL:          0 USELESS:          0
L1D AVERAGE MISS LATENCY: 63.34 cycles
L1I TOTAL        ACCESS:    1129985 HIT:    1065618 MISS:      64367
L1I LOAD         ACCESS:    1129985 HIT:    1065618 MISS:      64367
L1I RFO          ACCESS:          0 HIT:          0 MISS:          0
L1I PREFETCH     ACCESS:          0 HIT:          0 MISS:          0
L1I WRITE        ACCESS:          0 HIT:          0 MISS:          0
L1I TRANSLATION  ACCESS:          0 HIT:          0 MISS:          0
L1I PREFETCH REQUESTED:          0 ISSUED:          0 USEFUL:          0 USELESS:          0
L1I AVERAGE MISS LATENCY: 11.08 cycles
L2C TOTAL        ACCESS:    1769000 HIT:    1391907 MISS:     377093
L2C LOAD         ACCESS:     813298 HIT:     661409 MISS:     151889
L2C RFO          ACCESS:     411412 HIT:     210271 MISS:     201141
L2C PREFETCH     ACCESS:          0 HIT:          0 MISS:          0
L2C WRITE        ACCESS:     543666 HIT:     519947 MISS:      23719
L2C TRANSLATION  ACCESS:        624 HIT:        280 MISS:        344
L2C PREFETCH REQUESTED:          0 ISSUED:          0 USEFUL:          0 USELESS:          0
L2C AVERAGE MISS LATENCY: 455.6 cycles
LLC TOTAL        ACCESS:     589716 HIT:     225014 MISS:     364702
LLC LOAD         ACCESS:     151888 HIT:      79867 MISS:      72021
LLC RFO          ACCESS:     201140 HIT:      40478 MISS:     160662
LLC PREFETCH     ACCESS:          0 HIT:          0 MISS:          0
LLC WRITE        ACCESS:     236344 HIT:     104617 MISS:     131727
LLC TRANSLATION  ACCESS:        344 HIT:         52 MISS:        292
LLC PREFETCH REQUESTED:          0 ISSUED:          0 USEFUL:          0 USELESS:          0
LLC AVERAGE MISS LATENCY: 451 cycles
cpu0_DTLB TOTAL        ACCESS:   22684704 HIT:   21720592 MISS:     964112
cpu0_DTLB LOAD         ACCESS:   22684704 HIT:   21720592 MISS:     964112
cpu0_DTLB RFO          ACCESS:          0 HIT:          0 MISS:          0
cpu0_DTLB PREFETCH     ACCESS:          0 HIT:          0 MISS:          0
cpu0_DTLB WRITE        ACCESS:          0 HIT:          0 MISS:          0
cpu0_DTLB TRANSLATION  ACCESS:          0 HIT:          0 MISS:          0
cpu0_DTLB PREFETCH REQUESTED:          0 ISSUED:          0 USEFUL:          0 USELESS:          0
cpu0_DTLB AVERAGE MISS LATENCY: 5.863 cycles
cpu0_ITLB TOTAL        ACCESS:     984284 HIT:     983484 MISS:        800
cpu0_ITLB LOAD         ACCESS:     984284 HIT:     983484 MISS:        800
cpu0_ITLB RFO          ACCESS:          0 HIT:          0 MISS:          0
cpu0_ITLB PREFETCH     ACCESS:          0 HIT:          0 MISS:          0
cpu0_ITLB WRITE        ACCESS:          0 HIT:          0 MISS:          0
cpu0_ITLB TRANSLATION  ACCESS:          0 HIT:          0 MISS:          0
cpu0_ITLB PREFETCH REQUESTED:          0 ISSUED:          0 USEFUL:          0 USELESS:          0
cpu0_ITLB AVERAGE MISS LATENCY: 17.29 cycles
cpu0_STLB TOTAL        ACCESS:     692402 HIT:     690028 MISS:       2374
cpu0_STLB LOAD         ACCESS:     692402 HIT:     690028 MISS:       2374
cpu0_STLB RFO          ACCESS:          0 HIT:          0 MISS:          0
cpu0_STLB PREFETCH     ACCESS:          0 HIT:          0 MISS:          0
cpu0_STLB WRITE        ACCESS:          0 HIT:          0 MISS:          0
cpu0_STLB TRANSLATION  ACCESS:          0 HIT:          0 MISS:          0
cpu0_STLB PREFETCH REQUESTED:          0 ISSUED:          0 USEFUL:          0 USELESS:          0
cpu0_STLB AVERAGE MISS LATENCY: 455 cycles

DRAM Statistics

Channel 0 RQ ROW_BUFFER_HIT:      75330
  ROW_BUFFER_MISS:     157451
 AVG DBUS CONGESTED CYCLE: 3.991
WQ ROW_BUFFER_HIT: Channel 0 
  ROW_BUFFER_MISS:       5522
  FULL:     172898
