WARNING: physical memory size is smaller than virtual memory size.

*** ChampSim Multicore Out-of-Order Simulator ***
Warmup Instructions: 25000000
Simulation Instructions: 100000000
Number of CPUs: 1
Page size: 4096

[L1D] Demand IPV: 1 2 2 1 4 Prefetch IPV: 1 2 1 1 4
[L1I] Demand IPV: 1 2 2 1 4 Prefetch IPV: 1 2 1 1 4
[L2C] Demand IPV: 1 2 2 1 4 Prefetch IPV: 1 2 1 1 4
[LLC] Demand IPV: 1 2 2 1 4 Prefetch IPV: 1 2 1 1 4
Off-chip DRAM Size: 4 GiB Channels: 1 Width: 64-bit Data Race: 3200 MT/s
Heartbeat CPU 0 instructions: 10000001 cycles: 2507069 heartbeat IPC: 3.989 cumulative IPC: 3.989 (Simulation time: 00 hr 00 min 18 sec)
Heartbeat CPU 0 instructions: 20000002 cycles: 5011070 heartbeat IPC: 3.994 cumulative IPC: 3.991 (Simulation time: 00 hr 00 min 37 sec)
Warmup finished CPU 0 instructions: 25000003 cycles: 6262525 cumulative IPC: 3.992 (Simulation time: 00 hr 00 min 47 sec)
Warmup complete CPU 0 instructions: 25000003 cycles: 6262525 cumulative IPC: 3.992 (Simulation time: 00 hr 00 min 47 sec)
Heartbeat CPU 0 instructions: 30000004 cycles: 11862662 heartbeat IPC: 1.46 cumulative IPC: 0.8928 (Simulation time: 00 hr 01 min 12 sec)
Heartbeat CPU 0 instructions: 40000001 cycles: 24326981 heartbeat IPC: 0.8023 cumulative IPC: 0.8304 (Simulation time: 00 hr 02 min 04 sec)
Heartbeat CPU 0 instructions: 50000001 cycles: 30276399 heartbeat IPC: 1.681 cumulative IPC: 1.041 (Simulation time: 00 hr 02 min 36 sec)
Heartbeat CPU 0 instructions: 60000001 cycles: 35299565 heartbeat IPC: 1.991 cumulative IPC: 1.205 (Simulation time: 00 hr 03 min 05 sec)
Heartbeat CPU 0 instructions: 70000000 cycles: 40356657 heartbeat IPC: 1.977 cumulative IPC: 1.32 (Simulation time: 00 hr 03 min 34 sec)
Heartbeat CPU 0 instructions: 80000000 cycles: 51245571 heartbeat IPC: 0.9184 cumulative IPC: 1.223 (Simulation time: 00 hr 04 min 22 sec)
Heartbeat CPU 0 instructions: 90000001 cycles: 62016936 heartbeat IPC: 0.9284 cumulative IPC: 1.166 (Simulation time: 00 hr 05 min 09 sec)
Heartbeat CPU 0 instructions: 100000000 cycles: 67230351 heartbeat IPC: 1.918 cumulative IPC: 1.23 (Simulation time: 00 hr 05 min 39 sec)
*** Reached end of trace: (0, "../traces/secret_traces/compute_int/compute_int_752.champsimtrace.xz")
Heartbeat CPU 0 instructions: 110000004 cycles: 72156922 heartbeat IPC: 2.03 cumulative IPC: 1.29 (Simulation time: 00 hr 06 min 08 sec)
Heartbeat CPU 0 instructions: 120000002 cycles: 78216485 heartbeat IPC: 1.65 cumulative IPC: 1.32 (Simulation time: 00 hr 06 min 40 sec)
Simulation finished CPU 0 instructions: 100000001 cycles: 75131778 cumulative IPC: 1.331 (Simulation time: 00 hr 06 min 56 sec)
Simulation complete CPU 0 instructions: 100000001 cycles: 75131778 cumulative IPC: 1.331 (Simulation time: 00 hr 06 min 56 sec)

ChampSim completed all CPUs

=== Simulation ===
CPU 0 runs ../traces/secret_traces/compute_int/compute_int_752.champsimtrace.xz
Region of Interest Statistics

CPU 0 cumulative IPC: 1.331 instructions: 100000001 cycles: 75131778
CPU 0 Branch Prediction Accuracy: 90.47% MPKI: 18.58 Average ROB Occupancy at Mispredict: 16.83
Branch type MPKI
BRANCH_DIRECT_JUMP: 0.0202
BRANCH_INDIRECT: 7.82
BRANCH_CONDITIONAL: 9.69
BRANCH_DIRECT_CALL: 0.0347
BRANCH_INDIRECT_CALL: 0.991
BRANCH_RETURN: 0.0196

L1D TOTAL        ACCESS:   29846011 HIT:   29215158 MISS:     630853
L1D LOAD         ACCESS:   18302201 HIT:   17776793 MISS:     525408
L1D RFO          ACCESS:          0 HIT:          0 MISS:          0
L1D PREFETCH     ACCESS:          0 HIT:          0 MISS:          0
L1D WRITE        ACCESS:   11529750 HIT:   11437571 MISS:      92179
L1D TRANSLATION  ACCESS:      14060 HIT:        794 MISS:      13266
L1D PREFETCH REQUESTED:          0 ISSUED:          0 USEFUL:          0 USELESS:          0
L1D AVERAGE MISS LATENCY: 48.92 cycles
L1I TOTAL        ACCESS:    2946253 HIT:    2565728 MISS:     380525
L1I LOAD         ACCESS:    2946253 HIT:    2565728 MISS:     380525
L1I RFO          ACCESS:          0 HIT:          0 MISS:          0
L1I PREFETCH     ACCESS:          0 HIT:          0 MISS:          0
L1I WRITE        ACCESS:          0 HIT:          0 MISS:          0
L1I TRANSLATION  ACCESS:          0 HIT:          0 MISS:          0
L1I PREFETCH REQUESTED:          0 ISSUED:          0 USEFUL:          0 USELESS:          0
L1I AVERAGE MISS LATENCY: 12.98 cycles
L2C TOTAL        ACCESS:     785702 HIT:     543306 MISS:     242396
L2C LOAD         ACCESS:     642392 HIT:     431852 MISS:     210540
L2C RFO          ACCESS:      34304 HIT:      21044 MISS:      13260
L2C PREFETCH     ACCESS:          0 HIT:          0 MISS:          0
L2C WRITE        ACCESS:      95765 HIT:      87158 MISS:       8607
L2C TRANSLATION  ACCESS:      13241 HIT:       3252 MISS:       9989
L2C PREFETCH REQUESTED:          0 ISSUED:          0 USEFUL:          0 USELESS:          0
L2C AVERAGE MISS LATENCY: 123.9 cycles
LLC TOTAL        ACCESS:     270507 HIT:     101391 MISS:     169116
LLC LOAD         ACCESS:     210540 HIT:      65434 MISS:     145106
LLC RFO          ACCESS:      13260 HIT:       7353 MISS:       5907
LLC PREFETCH     ACCESS:          0 HIT:          0 MISS:          0
LLC WRITE        ACCESS:      36718 HIT:      26510 MISS:      10208
LLC TRANSLATION  ACCESS:       9989 HIT:       2094 MISS:       7895
LLC PREFETCH REQUESTED:          0 ISSUED:          0 USEFUL:          0 USELESS:          0
LLC AVERAGE MISS LATENCY: 149 cycles
cpu0_DTLB TOTAL        ACCESS:   23904393 HIT:   23478239 MISS:     426154
cpu0_DTLB LOAD         ACCESS:   23904393 HIT:   23478239 MISS:     426154
cpu0_DTLB RFO          ACCESS:          0 HIT:          0 MISS:          0
cpu0_DTLB PREFETCH     ACCESS:          0 HIT:          0 MISS:          0
cpu0_DTLB WRITE        ACCESS:          0 HIT:          0 MISS:          0
cpu0_DTLB TRANSLATION  ACCESS:          0 HIT:          0 MISS:          0
cpu0_DTLB PREFETCH REQUESTED:          0 ISSUED:          0 USEFUL:          0 USELESS:          0
cpu0_DTLB AVERAGE MISS LATENCY: 10.92 cycles
cpu0_ITLB TOTAL        ACCESS:    2632228 HIT:    2566995 MISS:      65233
cpu0_ITLB LOAD         ACCESS:    2632228 HIT:    2566995 MISS:      65233
cpu0_ITLB RFO          ACCESS:          0 HIT:          0 MISS:          0
cpu0_ITLB PREFETCH     ACCESS:          0 HIT:          0 MISS:          0
cpu0_ITLB WRITE        ACCESS:          0 HIT:          0 MISS:          0
cpu0_ITLB TRANSLATION  ACCESS:          0 HIT:          0 MISS:          0
cpu0_ITLB PREFETCH REQUESTED:          0 ISSUED:          0 USEFUL:          0 USELESS:          0
cpu0_ITLB AVERAGE MISS LATENCY: 5.368 cycles
cpu0_STLB TOTAL        ACCESS:     355470 HIT:     343287 MISS:      12183
cpu0_STLB LOAD         ACCESS:     355470 HIT:     343287 MISS:      12183
cpu0_STLB RFO          ACCESS:          0 HIT:          0 MISS:          0
cpu0_STLB PREFETCH     ACCESS:          0 HIT:          0 MISS:          0
cpu0_STLB WRITE        ACCESS:          0 HIT:          0 MISS:          0
cpu0_STLB TRANSLATION  ACCESS:          0 HIT:          0 MISS:          0
cpu0_STLB PREFETCH REQUESTED:          0 ISSUED:          0 USEFUL:          0 USELESS:          0
cpu0_STLB AVERAGE MISS LATENCY: 210.5 cycles

DRAM Statistics

Channel 0 RQ ROW_BUFFER_HIT:      40057
  ROW_BUFFER_MISS:     118848
 AVG DBUS CONGESTED CYCLE: 3.698
WQ ROW_BUFFER_HIT: Channel 0 
  ROW_BUFFER_MISS:       6396
  FULL:       5358
