WARNING: physical memory size is smaller than virtual memory size.

*** ChampSim Multicore Out-of-Order Simulator ***
Warmup Instructions: 25000000
Simulation Instructions: 100000000
Number of CPUs: 1
Page size: 4096

[L1D] Demand IPV: 1 2 2 1 4 Prefetch IPV: 1 2 1 1 4
[L1I] Demand IPV: 1 2 2 1 4 Prefetch IPV: 1 2 1 1 4
[L2C] Demand IPV: 1 2 2 1 4 Prefetch IPV: 1 2 1 1 4
[LLC] Demand IPV: 1 2 2 1 4 Prefetch IPV: 1 2 1 1 4
Off-chip DRAM Size: 4 GiB Channels: 1 Width: 64-bit Data Race: 3200 MT/s
Heartbeat CPU 0 instructions: 10000003 cycles: 2509766 heartbeat IPC: 3.984 cumulative IPC: 3.984 (Simulation time: 00 hr 00 min 18 sec)
Heartbeat CPU 0 instructions: 20000003 cycles: 5010998 heartbeat IPC: 3.998 cumulative IPC: 3.991 (Simulation time: 00 hr 00 min 37 sec)
Warmup finished CPU 0 instructions: 25000003 cycles: 6261604 cumulative IPC: 3.993 (Simulation time: 00 hr 00 min 46 sec)
Warmup complete CPU 0 instructions: 25000003 cycles: 6261604 cumulative IPC: 3.993 (Simulation time: 00 hr 00 min 46 sec)
Heartbeat CPU 0 instructions: 30000003 cycles: 8382183 heartbeat IPC: 2.966 cumulative IPC: 2.358 (Simulation time: 00 hr 00 min 59 sec)
Heartbeat CPU 0 instructions: 40000001 cycles: 14917821 heartbeat IPC: 1.53 cumulative IPC: 1.733 (Simulation time: 00 hr 01 min 31 sec)
Heartbeat CPU 0 instructions: 50000000 cycles: 21920705 heartbeat IPC: 1.428 cumulative IPC: 1.597 (Simulation time: 00 hr 02 min 05 sec)
Heartbeat CPU 0 instructions: 60000002 cycles: 29163511 heartbeat IPC: 1.381 cumulative IPC: 1.528 (Simulation time: 00 hr 02 min 40 sec)
Heartbeat CPU 0 instructions: 70000000 cycles: 36647101 heartbeat IPC: 1.336 cumulative IPC: 1.481 (Simulation time: 00 hr 03 min 15 sec)
Heartbeat CPU 0 instructions: 80000000 cycles: 45107646 heartbeat IPC: 1.182 cumulative IPC: 1.416 (Simulation time: 00 hr 04 min 03 sec)
*** Reached end of trace: (0, "../traces/secret_traces/compute_int/compute_int_868.champsimtrace.xz")
Heartbeat CPU 0 instructions: 90000001 cycles: 54979220 heartbeat IPC: 1.013 cumulative IPC: 1.334 (Simulation time: 00 hr 04 min 53 sec)
Heartbeat CPU 0 instructions: 100000003 cycles: 62195838 heartbeat IPC: 1.386 cumulative IPC: 1.341 (Simulation time: 00 hr 05 min 27 sec)
Heartbeat CPU 0 instructions: 110000000 cycles: 66808071 heartbeat IPC: 2.168 cumulative IPC: 1.404 (Simulation time: 00 hr 05 min 55 sec)
Heartbeat CPU 0 instructions: 120000004 cycles: 71393613 heartbeat IPC: 2.181 cumulative IPC: 1.459 (Simulation time: 00 hr 06 min 21 sec)
Simulation finished CPU 0 instructions: 100000002 cycles: 68729911 cumulative IPC: 1.455 (Simulation time: 00 hr 06 min 39 sec)
Simulation complete CPU 0 instructions: 100000002 cycles: 68729911 cumulative IPC: 1.455 (Simulation time: 00 hr 06 min 39 sec)

ChampSim completed all CPUs

=== Simulation ===
CPU 0 runs ../traces/secret_traces/compute_int/compute_int_868.champsimtrace.xz
Region of Interest Statistics

CPU 0 cumulative IPC: 1.455 instructions: 100000002 cycles: 68729911
CPU 0 Branch Prediction Accuracy: 88.13% MPKI: 23.04 Average ROB Occupancy at Mispredict: 12.37
Branch type MPKI
BRANCH_DIRECT_JUMP: 2e-05
BRANCH_INDIRECT: 2.21
BRANCH_CONDITIONAL: 20.8
BRANCH_DIRECT_CALL: 2e-05
BRANCH_INDIRECT_CALL: 0.00113
BRANCH_RETURN: 5e-05

L1D TOTAL        ACCESS:   26841004 HIT:   24730278 MISS:    2110726
L1D LOAD         ACCESS:   16765887 HIT:   15216767 MISS:    1549120
L1D RFO          ACCESS:          0 HIT:          0 MISS:          0
L1D PREFETCH     ACCESS:          0 HIT:          0 MISS:          0
L1D WRITE        ACCESS:   10074162 HIT:    9512820 MISS:     561342
L1D TRANSLATION  ACCESS:        955 HIT:        691 MISS:        264
L1D PREFETCH REQUESTED:          0 ISSUED:          0 USEFUL:          0 USELESS:          0
L1D AVERAGE MISS LATENCY: 42.19 cycles
L1I TOTAL        ACCESS:      19847 HIT:      16151 MISS:       3696
L1I LOAD         ACCESS:      19847 HIT:      16151 MISS:       3696
L1I RFO          ACCESS:          0 HIT:          0 MISS:          0
L1I PREFETCH     ACCESS:          0 HIT:          0 MISS:          0
L1I WRITE        ACCESS:          0 HIT:          0 MISS:          0
L1I TRANSLATION  ACCESS:          0 HIT:          0 MISS:          0
L1I PREFETCH REQUESTED:          0 ISSUED:          0 USEFUL:          0 USELESS:          0
L1I AVERAGE MISS LATENCY: 75.13 cycles
L2C TOTAL        ACCESS:    1220655 HIT:     651962 MISS:     568693
L2C LOAD         ACCESS:     945786 HIT:     493345 MISS:     452441
L2C RFO          ACCESS:     105408 HIT:      16147 MISS:      89261
L2C PREFETCH     ACCESS:          0 HIT:          0 MISS:          0
L2C WRITE        ACCESS:     169198 HIT:     142269 MISS:      26929
L2C TRANSLATION  ACCESS:        263 HIT:        201 MISS:         62
L2C PREFETCH REQUESTED:          0 ISSUED:          0 USEFUL:          0 USELESS:          0
L2C AVERAGE MISS LATENCY: 153.9 cycles
LLC TOTAL        ACCESS:     678535 HIT:     381968 MISS:     296567
LLC LOAD         ACCESS:     452441 HIT:     282932 MISS:     169509
LLC RFO          ACCESS:      89261 HIT:      23297 MISS:      65964
LLC PREFETCH     ACCESS:          0 HIT:          0 MISS:          0
LLC WRITE        ACCESS:     136771 HIT:      75714 MISS:      61057
LLC TRANSLATION  ACCESS:         62 HIT:         25 MISS:         37
LLC PREFETCH REQUESTED:          0 ISSUED:          0 USEFUL:          0 USELESS:          0
LLC AVERAGE MISS LATENCY: 257.9 cycles
cpu0_DTLB TOTAL        ACCESS:   23785334 HIT:   23189504 MISS:     595830
cpu0_DTLB LOAD         ACCESS:   23785334 HIT:   23189504 MISS:     595830
cpu0_DTLB RFO          ACCESS:          0 HIT:          0 MISS:          0
cpu0_DTLB PREFETCH     ACCESS:          0 HIT:          0 MISS:          0
cpu0_DTLB WRITE        ACCESS:          0 HIT:          0 MISS:          0
cpu0_DTLB TRANSLATION  ACCESS:          0 HIT:          0 MISS:          0
cpu0_DTLB PREFETCH REQUESTED:          0 ISSUED:          0 USEFUL:          0 USELESS:          0
cpu0_DTLB AVERAGE MISS LATENCY: 8.069 cycles
cpu0_ITLB TOTAL        ACCESS:      17640 HIT:      16748 MISS:        892
cpu0_ITLB LOAD         ACCESS:      17640 HIT:      16748 MISS:        892
cpu0_ITLB RFO          ACCESS:          0 HIT:          0 MISS:          0
cpu0_ITLB PREFETCH     ACCESS:          0 HIT:          0 MISS:          0
cpu0_ITLB WRITE        ACCESS:          0 HIT:          0 MISS:          0
cpu0_ITLB TRANSLATION  ACCESS:          0 HIT:          0 MISS:          0
cpu0_ITLB PREFETCH REQUESTED:          0 ISSUED:          0 USEFUL:          0 USELESS:          0
cpu0_ITLB AVERAGE MISS LATENCY: 7.303 cycles
cpu0_STLB TOTAL        ACCESS:     578348 HIT:     577393 MISS:        955
cpu0_STLB LOAD         ACCESS:     578348 HIT:     577393 MISS:        955
cpu0_STLB RFO          ACCESS:          0 HIT:          0 MISS:          0
cpu0_STLB PREFETCH     ACCESS:          0 HIT:          0 MISS:          0
cpu0_STLB WRITE        ACCESS:          0 HIT:          0 MISS:          0
cpu0_STLB TRANSLATION  ACCESS:          0 HIT:          0 MISS:          0
cpu0_STLB PREFETCH REQUESTED:          0 ISSUED:          0 USEFUL:          0 USELESS:          0
cpu0_STLB AVERAGE MISS LATENCY: 339.1 cycles

DRAM Statistics

Channel 0 RQ ROW_BUFFER_HIT:      37143
  ROW_BUFFER_MISS:     197982
 AVG DBUS CONGESTED CYCLE: 3.943
WQ ROW_BUFFER_HIT: Channel 0 
  ROW_BUFFER_MISS:       4114
  FULL:      84955
