WARNING: physical memory size is smaller than virtual memory size.

*** ChampSim Multicore Out-of-Order Simulator ***
Warmup Instructions: 25000000
Simulation Instructions: 100000000
Number of CPUs: 1
Page size: 4096

[L1D] Demand IPV: 1 2 2 1 4 Prefetch IPV: 1 2 1 1 4
[L1I] Demand IPV: 1 2 2 1 4 Prefetch IPV: 1 2 1 1 4
[L2C] Demand IPV: 1 2 2 1 4 Prefetch IPV: 1 2 1 1 4
[LLC] Demand IPV: 1 2 2 1 4 Prefetch IPV: 1 2 1 1 4
Off-chip DRAM Size: 4 GiB Channels: 1 Width: 64-bit Data Race: 3200 MT/s
Heartbeat CPU 0 instructions: 10000001 cycles: 2721031 heartbeat IPC: 3.675 cumulative IPC: 3.675 (Simulation time: 00 hr 00 min 21 sec)
Heartbeat CPU 0 instructions: 20000001 cycles: 5330522 heartbeat IPC: 3.832 cumulative IPC: 3.752 (Simulation time: 00 hr 00 min 44 sec)
Warmup finished CPU 0 instructions: 25000000 cycles: 6589534 cumulative IPC: 3.794 (Simulation time: 00 hr 00 min 53 sec)
Warmup complete CPU 0 instructions: 25000000 cycles: 6589534 cumulative IPC: 3.794 (Simulation time: 00 hr 00 min 53 sec)
Heartbeat CPU 0 instructions: 30000002 cycles: 9091248 heartbeat IPC: 2.659 cumulative IPC: 1.999 (Simulation time: 00 hr 01 min 08 sec)
Heartbeat CPU 0 instructions: 40000003 cycles: 12936163 heartbeat IPC: 2.601 cumulative IPC: 2.363 (Simulation time: 00 hr 01 min 35 sec)
Heartbeat CPU 0 instructions: 50000002 cycles: 16675735 heartbeat IPC: 2.674 cumulative IPC: 2.479 (Simulation time: 00 hr 02 min 04 sec)
Heartbeat CPU 0 instructions: 60000001 cycles: 21690872 heartbeat IPC: 1.994 cumulative IPC: 2.318 (Simulation time: 00 hr 02 min 32 sec)
Heartbeat CPU 0 instructions: 70000002 cycles: 25414291 heartbeat IPC: 2.686 cumulative IPC: 2.39 (Simulation time: 00 hr 02 min 59 sec)
Heartbeat CPU 0 instructions: 80000002 cycles: 29158554 heartbeat IPC: 2.671 cumulative IPC: 2.437 (Simulation time: 00 hr 03 min 27 sec)
Heartbeat CPU 0 instructions: 90000001 cycles: 33971671 heartbeat IPC: 2.078 cumulative IPC: 2.374 (Simulation time: 00 hr 03 min 55 sec)
Heartbeat CPU 0 instructions: 100000000 cycles: 37676905 heartbeat IPC: 2.699 cumulative IPC: 2.413 (Simulation time: 00 hr 04 min 22 sec)
*** Reached end of trace: (0, "../traces/secret_traces/compute_int/compute_int_903.champsimtrace.xz")
Heartbeat CPU 0 instructions: 110000002 cycles: 41910946 heartbeat IPC: 2.362 cumulative IPC: 2.406 (Simulation time: 00 hr 04 min 51 sec)
Heartbeat CPU 0 instructions: 120000000 cycles: 47094280 heartbeat IPC: 1.929 cumulative IPC: 2.345 (Simulation time: 00 hr 05 min 24 sec)
Simulation finished CPU 0 instructions: 100000000 cycles: 42488072 cumulative IPC: 2.354 (Simulation time: 00 hr 05 min 37 sec)
Simulation complete CPU 0 instructions: 100000000 cycles: 42488072 cumulative IPC: 2.354 (Simulation time: 00 hr 05 min 37 sec)

ChampSim completed all CPUs

=== Simulation ===
CPU 0 runs ../traces/secret_traces/compute_int/compute_int_903.champsimtrace.xz
Region of Interest Statistics

CPU 0 cumulative IPC: 2.354 instructions: 100000000 cycles: 42488072
CPU 0 Branch Prediction Accuracy: 91.2% MPKI: 7.513 Average ROB Occupancy at Mispredict: 64.55
Branch type MPKI
BRANCH_DIRECT_JUMP: 0.00796
BRANCH_INDIRECT: 1.09
BRANCH_CONDITIONAL: 6.25
BRANCH_DIRECT_CALL: 0.0167
BRANCH_INDIRECT_CALL: 0.138
BRANCH_RETURN: 0.00937

L1D TOTAL        ACCESS:   36754511 HIT:   34733277 MISS:    2021234
L1D LOAD         ACCESS:   26165973 HIT:   25140682 MISS:    1025291
L1D RFO          ACCESS:          0 HIT:          0 MISS:          0
L1D PREFETCH     ACCESS:          0 HIT:          0 MISS:          0
L1D WRITE        ACCESS:   10585767 HIT:    9592234 MISS:     993533
L1D TRANSLATION  ACCESS:       2771 HIT:        361 MISS:       2410
L1D PREFETCH REQUESTED:          0 ISSUED:          0 USEFUL:          0 USELESS:          0
L1D AVERAGE MISS LATENCY: 6.816 cycles
L1I TOTAL        ACCESS:    1084344 HIT:     980661 MISS:     103683
L1I LOAD         ACCESS:    1084344 HIT:     980661 MISS:     103683
L1I RFO          ACCESS:          0 HIT:          0 MISS:          0
L1I PREFETCH     ACCESS:          0 HIT:          0 MISS:          0
L1I WRITE        ACCESS:          0 HIT:          0 MISS:          0
L1I TRANSLATION  ACCESS:          0 HIT:          0 MISS:          0
L1I PREFETCH REQUESTED:          0 ISSUED:          0 USEFUL:          0 USELESS:          0
L1I AVERAGE MISS LATENCY: 21.02 cycles
L2C TOTAL        ACCESS:    1277226 HIT:    1097170 MISS:     180056
L2C LOAD         ACCESS:     441551 HIT:     345053 MISS:      96498
L2C RFO          ACCESS:     409033 HIT:     335439 MISS:      73594
L2C PREFETCH     ACCESS:          0 HIT:          0 MISS:          0
L2C WRITE        ACCESS:     424255 HIT:     416271 MISS:       7984
L2C TRANSLATION  ACCESS:       2387 HIT:        407 MISS:       1980
L2C PREFETCH REQUESTED:          0 ISSUED:          0 USEFUL:          0 USELESS:          0
L2C AVERAGE MISS LATENCY: 53.06 cycles
LLC TOTAL        ACCESS:     248425 HIT:     210220 MISS:      38205
LLC LOAD         ACCESS:      96498 HIT:      74238 MISS:      22260
LLC RFO          ACCESS:      73594 HIT:      65228 MISS:       8366
LLC PREFETCH     ACCESS:          0 HIT:          0 MISS:          0
LLC WRITE        ACCESS:      76353 HIT:      70169 MISS:       6184
LLC TRANSLATION  ACCESS:       1980 HIT:        585 MISS:       1395
LLC PREFETCH REQUESTED:          0 ISSUED:          0 USEFUL:          0 USELESS:          0
LLC AVERAGE MISS LATENCY: 159 cycles
cpu0_DTLB TOTAL        ACCESS:   26092507 HIT:   25920982 MISS:     171525
cpu0_DTLB LOAD         ACCESS:   26092507 HIT:   25920982 MISS:     171525
cpu0_DTLB RFO          ACCESS:          0 HIT:          0 MISS:          0
cpu0_DTLB PREFETCH     ACCESS:          0 HIT:          0 MISS:          0
cpu0_DTLB WRITE        ACCESS:          0 HIT:          0 MISS:          0
cpu0_DTLB TRANSLATION  ACCESS:          0 HIT:          0 MISS:          0
cpu0_DTLB PREFETCH REQUESTED:          0 ISSUED:          0 USEFUL:          0 USELESS:          0
cpu0_DTLB AVERAGE MISS LATENCY: 4.879 cycles
cpu0_ITLB TOTAL        ACCESS:     941568 HIT:     935557 MISS:       6011
cpu0_ITLB LOAD         ACCESS:     941568 HIT:     935557 MISS:       6011
cpu0_ITLB RFO          ACCESS:          0 HIT:          0 MISS:          0
cpu0_ITLB PREFETCH     ACCESS:          0 HIT:          0 MISS:          0
cpu0_ITLB WRITE        ACCESS:          0 HIT:          0 MISS:          0
cpu0_ITLB TRANSLATION  ACCESS:          0 HIT:          0 MISS:          0
cpu0_ITLB PREFETCH REQUESTED:          0 ISSUED:          0 USEFUL:          0 USELESS:          0
cpu0_ITLB AVERAGE MISS LATENCY: 12.06 cycles
cpu0_STLB TOTAL        ACCESS:      99049 HIT:      96426 MISS:       2623
cpu0_STLB LOAD         ACCESS:      99049 HIT:      96426 MISS:       2623
cpu0_STLB RFO          ACCESS:          0 HIT:          0 MISS:          0
cpu0_STLB PREFETCH     ACCESS:          0 HIT:          0 MISS:          0
cpu0_STLB WRITE        ACCESS:          0 HIT:          0 MISS:          0
cpu0_STLB TRANSLATION  ACCESS:          0 HIT:          0 MISS:          0
cpu0_STLB PREFETCH REQUESTED:          0 ISSUED:          0 USEFUL:          0 USELESS:          0
cpu0_STLB AVERAGE MISS LATENCY: 141.6 cycles

DRAM Statistics

Channel 0 RQ ROW_BUFFER_HIT:       9930
  ROW_BUFFER_MISS:      22076
 AVG DBUS CONGESTED CYCLE: 3.904
WQ ROW_BUFFER_HIT: Channel 0 
  ROW_BUFFER_MISS:       2176
  FULL:       8854
