WARNING: physical memory size is smaller than virtual memory size.

*** ChampSim Multicore Out-of-Order Simulator ***
Warmup Instructions: 25000000
Simulation Instructions: 100000000
Number of CPUs: 1
Page size: 4096

[L1D] Demand IPV: 1 2 2 1 4 Prefetch IPV: 1 2 1 1 4
[L1I] Demand IPV: 1 2 2 1 4 Prefetch IPV: 1 2 1 1 4
[L2C] Demand IPV: 1 2 2 1 4 Prefetch IPV: 1 2 1 1 4
[LLC] Demand IPV: 1 2 2 1 4 Prefetch IPV: 1 2 1 1 4
Off-chip DRAM Size: 4 GiB Channels: 1 Width: 64-bit Data Race: 3200 MT/s
Heartbeat CPU 0 instructions: 10000001 cycles: 2628731 heartbeat IPC: 3.804 cumulative IPC: 3.804 (Simulation time: 00 hr 00 min 18 sec)
Heartbeat CPU 0 instructions: 20000000 cycles: 5261065 heartbeat IPC: 3.799 cumulative IPC: 3.802 (Simulation time: 00 hr 00 min 36 sec)
Warmup finished CPU 0 instructions: 25000002 cycles: 6580779 cumulative IPC: 3.799 (Simulation time: 00 hr 00 min 45 sec)
Warmup complete CPU 0 instructions: 25000002 cycles: 6580779 cumulative IPC: 3.799 (Simulation time: 00 hr 00 min 45 sec)
Heartbeat CPU 0 instructions: 30000002 cycles: 8142307 heartbeat IPC: 3.471 cumulative IPC: 3.202 (Simulation time: 00 hr 00 min 57 sec)
Heartbeat CPU 0 instructions: 40000000 cycles: 11109048 heartbeat IPC: 3.371 cumulative IPC: 3.313 (Simulation time: 00 hr 01 min 19 sec)
Heartbeat CPU 0 instructions: 50000001 cycles: 14075213 heartbeat IPC: 3.371 cumulative IPC: 3.336 (Simulation time: 00 hr 01 min 42 sec)
Heartbeat CPU 0 instructions: 60000004 cycles: 17005413 heartbeat IPC: 3.413 cumulative IPC: 3.357 (Simulation time: 00 hr 02 min 04 sec)
Heartbeat CPU 0 instructions: 70000003 cycles: 19959078 heartbeat IPC: 3.386 cumulative IPC: 3.364 (Simulation time: 00 hr 02 min 27 sec)
Heartbeat CPU 0 instructions: 80000004 cycles: 22939933 heartbeat IPC: 3.355 cumulative IPC: 3.362 (Simulation time: 00 hr 02 min 50 sec)
Heartbeat CPU 0 instructions: 90000003 cycles: 25943596 heartbeat IPC: 3.329 cumulative IPC: 3.357 (Simulation time: 00 hr 03 min 12 sec)
Heartbeat CPU 0 instructions: 100000004 cycles: 28956326 heartbeat IPC: 3.319 cumulative IPC: 3.352 (Simulation time: 00 hr 03 min 35 sec)
*** Reached end of trace: (0, "../traces/secret_traces/compute_int/compute_int_850.champsimtrace.xz")
Heartbeat CPU 0 instructions: 110000004 cycles: 33737865 heartbeat IPC: 2.091 cumulative IPC: 3.13 (Simulation time: 00 hr 04 min 03 sec)
Heartbeat CPU 0 instructions: 120000002 cycles: 38102893 heartbeat IPC: 2.291 cumulative IPC: 3.014 (Simulation time: 00 hr 04 min 30 sec)
Simulation finished CPU 0 instructions: 100000000 cycles: 33013514 cumulative IPC: 3.029 (Simulation time: 00 hr 04 min 42 sec)
Simulation complete CPU 0 instructions: 100000000 cycles: 33013514 cumulative IPC: 3.029 (Simulation time: 00 hr 04 min 42 sec)

ChampSim completed all CPUs

=== Simulation ===
CPU 0 runs ../traces/secret_traces/compute_int/compute_int_850.champsimtrace.xz
Region of Interest Statistics

CPU 0 cumulative IPC: 3.029 instructions: 100000000 cycles: 33013514
CPU 0 Branch Prediction Accuracy: 99.43% MPKI: 1.5 Average ROB Occupancy at Mispredict: 22.11
Branch type MPKI
BRANCH_DIRECT_JUMP: 0.00455
BRANCH_INDIRECT: 0.755
BRANCH_CONDITIONAL: 0.712
BRANCH_DIRECT_CALL: 0.0124
BRANCH_INDIRECT_CALL: 0.00893
BRANCH_RETURN: 0.00689

L1D TOTAL        ACCESS:   26101183 HIT:   25758390 MISS:     342793
L1D LOAD         ACCESS:   13953001 HIT:   13638946 MISS:     314055
L1D RFO          ACCESS:          0 HIT:          0 MISS:          0
L1D PREFETCH     ACCESS:          0 HIT:          0 MISS:          0
L1D WRITE        ACCESS:   12146470 HIT:   12119299 MISS:      27171
L1D TRANSLATION  ACCESS:       1712 HIT:        145 MISS:       1567
L1D PREFETCH REQUESTED:          0 ISSUED:          0 USEFUL:          0 USELESS:          0
L1D AVERAGE MISS LATENCY: 25.8 cycles
L1I TOTAL        ACCESS:      73281 HIT:      55192 MISS:      18089
L1I LOAD         ACCESS:      73281 HIT:      55192 MISS:      18089
L1I RFO          ACCESS:          0 HIT:          0 MISS:          0
L1I PREFETCH     ACCESS:          0 HIT:          0 MISS:          0
L1I WRITE        ACCESS:          0 HIT:          0 MISS:          0
L1I TRANSLATION  ACCESS:          0 HIT:          0 MISS:          0
L1I PREFETCH REQUESTED:          0 ISSUED:          0 USEFUL:          0 USELESS:          0
L1I AVERAGE MISS LATENCY: 48.47 cycles
L2C TOTAL        ACCESS:     320369 HIT:     229958 MISS:      90411
L2C LOAD         ACCESS:     258313 HIT:     186327 MISS:      71986
L2C RFO          ACCESS:      15817 HIT:       2734 MISS:      13083
L2C PREFETCH     ACCESS:          0 HIT:          0 MISS:          0
L2C WRITE        ACCESS:      44686 HIT:      40489 MISS:       4197
L2C TRANSLATION  ACCESS:       1553 HIT:        408 MISS:       1145
L2C PREFETCH REQUESTED:          0 ISSUED:          0 USEFUL:          0 USELESS:          0
L2C AVERAGE MISS LATENCY: 81.61 cycles
LLC TOTAL        ACCESS:     110848 HIT:      69708 MISS:      41140
LLC LOAD         ACCESS:      71986 HIT:      38160 MISS:      33826
LLC RFO          ACCESS:      13083 HIT:      10089 MISS:       2994
LLC PREFETCH     ACCESS:          0 HIT:          0 MISS:          0
LLC WRITE        ACCESS:      24634 HIT:      21184 MISS:       3450
LLC TRANSLATION  ACCESS:       1145 HIT:        275 MISS:        870
LLC PREFETCH REQUESTED:          0 ISSUED:          0 USEFUL:          0 USELESS:          0
LLC AVERAGE MISS LATENCY: 136.4 cycles
cpu0_DTLB TOTAL        ACCESS:   23535757 HIT:   23483322 MISS:      52435
cpu0_DTLB LOAD         ACCESS:   23535757 HIT:   23483322 MISS:      52435
cpu0_DTLB RFO          ACCESS:          0 HIT:          0 MISS:          0
cpu0_DTLB PREFETCH     ACCESS:          0 HIT:          0 MISS:          0
cpu0_DTLB WRITE        ACCESS:          0 HIT:          0 MISS:          0
cpu0_DTLB TRANSLATION  ACCESS:          0 HIT:          0 MISS:          0
cpu0_DTLB PREFETCH REQUESTED:          0 ISSUED:          0 USEFUL:          0 USELESS:          0
cpu0_DTLB AVERAGE MISS LATENCY: 11.38 cycles
cpu0_ITLB TOTAL        ACCESS:      65892 HIT:      61649 MISS:       4243
cpu0_ITLB LOAD         ACCESS:      65892 HIT:      61649 MISS:       4243
cpu0_ITLB RFO          ACCESS:          0 HIT:          0 MISS:          0
cpu0_ITLB PREFETCH     ACCESS:          0 HIT:          0 MISS:          0
cpu0_ITLB WRITE        ACCESS:          0 HIT:          0 MISS:          0
cpu0_ITLB TRANSLATION  ACCESS:          0 HIT:          0 MISS:          0
cpu0_ITLB PREFETCH REQUESTED:          0 ISSUED:          0 USEFUL:          0 USELESS:          0
cpu0_ITLB AVERAGE MISS LATENCY: 11.98 cycles
cpu0_STLB TOTAL        ACCESS:      47016 HIT:      45438 MISS:       1578
cpu0_STLB LOAD         ACCESS:      47016 HIT:      45438 MISS:       1578
cpu0_STLB RFO          ACCESS:          0 HIT:          0 MISS:          0
cpu0_STLB PREFETCH     ACCESS:          0 HIT:          0 MISS:          0
cpu0_STLB WRITE        ACCESS:          0 HIT:          0 MISS:          0
cpu0_STLB TRANSLATION  ACCESS:          0 HIT:          0 MISS:          0
cpu0_STLB PREFETCH REQUESTED:          0 ISSUED:          0 USEFUL:          0 USELESS:          0
cpu0_STLB AVERAGE MISS LATENCY: 191.5 cycles

DRAM Statistics

Channel 0 RQ ROW_BUFFER_HIT:      12990
  ROW_BUFFER_MISS:      24700
 AVG DBUS CONGESTED CYCLE: 3.671
WQ ROW_BUFFER_HIT: Channel 0 
  ROW_BUFFER_MISS:       1324
  FULL:       2170
