WARNING: physical memory size is smaller than virtual memory size.

*** ChampSim Multicore Out-of-Order Simulator ***
Warmup Instructions: 25000000
Simulation Instructions: 100000000
Number of CPUs: 1
Page size: 4096

[L1D] Demand IPV: 1 2 2 1 4 Prefetch IPV: 1 2 1 1 4
[L1I] Demand IPV: 1 2 2 1 4 Prefetch IPV: 1 2 1 1 4
[L2C] Demand IPV: 1 2 2 1 4 Prefetch IPV: 1 2 1 1 4
[LLC] Demand IPV: 1 2 2 1 4 Prefetch IPV: 1 2 1 1 4
Off-chip DRAM Size: 4 GiB Channels: 1 Width: 64-bit Data Race: 3200 MT/s
Heartbeat CPU 0 instructions: 10000002 cycles: 2533794 heartbeat IPC: 3.947 cumulative IPC: 3.947 (Simulation time: 00 hr 00 min 18 sec)
Heartbeat CPU 0 instructions: 20000000 cycles: 5045397 heartbeat IPC: 3.982 cumulative IPC: 3.964 (Simulation time: 00 hr 00 min 37 sec)
Warmup finished CPU 0 instructions: 25000001 cycles: 6301238 cumulative IPC: 3.967 (Simulation time: 00 hr 00 min 46 sec)
Warmup complete CPU 0 instructions: 25000001 cycles: 6301238 cumulative IPC: 3.967 (Simulation time: 00 hr 00 min 46 sec)
Heartbeat CPU 0 instructions: 30000000 cycles: 8181315 heartbeat IPC: 3.189 cumulative IPC: 2.659 (Simulation time: 00 hr 01 min 00 sec)
Heartbeat CPU 0 instructions: 40000003 cycles: 13131074 heartbeat IPC: 2.02 cumulative IPC: 2.196 (Simulation time: 00 hr 01 min 34 sec)
Heartbeat CPU 0 instructions: 50000001 cycles: 17620120 heartbeat IPC: 2.228 cumulative IPC: 2.209 (Simulation time: 00 hr 02 min 05 sec)
Heartbeat CPU 0 instructions: 60000002 cycles: 22247640 heartbeat IPC: 2.161 cumulative IPC: 2.195 (Simulation time: 00 hr 02 min 38 sec)
Heartbeat CPU 0 instructions: 70000000 cycles: 26794082 heartbeat IPC: 2.2 cumulative IPC: 2.196 (Simulation time: 00 hr 03 min 09 sec)
Heartbeat CPU 0 instructions: 80000001 cycles: 31328556 heartbeat IPC: 2.205 cumulative IPC: 2.198 (Simulation time: 00 hr 03 min 41 sec)
Heartbeat CPU 0 instructions: 90000000 cycles: 35934540 heartbeat IPC: 2.171 cumulative IPC: 2.193 (Simulation time: 00 hr 04 min 13 sec)
Heartbeat CPU 0 instructions: 100000002 cycles: 40371427 heartbeat IPC: 2.254 cumulative IPC: 2.201 (Simulation time: 00 hr 04 min 44 sec)
*** Reached end of trace: (0, "../traces/secret_traces/compute_fp/compute_fp_3.champsimtrace.xz")
Heartbeat CPU 0 instructions: 110000001 cycles: 47893625 heartbeat IPC: 1.329 cumulative IPC: 2.044 (Simulation time: 00 hr 05 min 24 sec)
Heartbeat CPU 0 instructions: 120000000 cycles: 51345357 heartbeat IPC: 2.897 cumulative IPC: 2.109 (Simulation time: 00 hr 05 min 51 sec)
Simulation finished CPU 0 instructions: 100000002 cycles: 46885566 cumulative IPC: 2.133 (Simulation time: 00 hr 06 min 04 sec)
Simulation complete CPU 0 instructions: 100000002 cycles: 46885566 cumulative IPC: 2.133 (Simulation time: 00 hr 06 min 04 sec)

ChampSim completed all CPUs

=== Simulation ===
CPU 0 runs ../traces/secret_traces/compute_fp/compute_fp_3.champsimtrace.xz
Region of Interest Statistics

CPU 0 cumulative IPC: 2.133 instructions: 100000002 cycles: 46885566
CPU 0 Branch Prediction Accuracy: 96.65% MPKI: 1.104 Average ROB Occupancy at Mispredict: 164.9
Branch type MPKI
BRANCH_DIRECT_JUMP: 0.00716
BRANCH_INDIRECT: 0.364
BRANCH_CONDITIONAL: 0.694
BRANCH_DIRECT_CALL: 0.0198
BRANCH_INDIRECT_CALL: 0.00769
BRANCH_RETURN: 0.0109

L1D TOTAL        ACCESS:   26711428 HIT:   23695940 MISS:    3015488
L1D LOAD         ACCESS:   16080011 HIT:   13401423 MISS:    2678588
L1D RFO          ACCESS:          0 HIT:          0 MISS:          0
L1D PREFETCH     ACCESS:          0 HIT:          0 MISS:          0
L1D WRITE        ACCESS:   10623715 HIT:   10292164 MISS:     331551
L1D TRANSLATION  ACCESS:       7702 HIT:       2353 MISS:       5349
L1D PREFETCH REQUESTED:          0 ISSUED:          0 USEFUL:          0 USELESS:          0
L1D AVERAGE MISS LATENCY: 50.76 cycles
L1I TOTAL        ACCESS:      92465 HIT:      69357 MISS:      23108
L1I LOAD         ACCESS:      92465 HIT:      69357 MISS:      23108
L1I RFO          ACCESS:          0 HIT:          0 MISS:          0
L1I PREFETCH     ACCESS:          0 HIT:          0 MISS:          0
L1I WRITE        ACCESS:          0 HIT:          0 MISS:          0
L1I TRANSLATION  ACCESS:          0 HIT:          0 MISS:          0
L1I PREFETCH REQUESTED:          0 ISSUED:          0 USEFUL:          0 USELESS:          0
L1I AVERAGE MISS LATENCY: 103.5 cycles
L2C TOTAL        ACCESS:    1999266 HIT:    1344141 MISS:     655125
L2C LOAD         ACCESS:    1731096 HIT:    1159143 MISS:     571953
L2C RFO          ACCESS:      87776 HIT:      21655 MISS:      66121
L2C PREFETCH     ACCESS:          0 HIT:          0 MISS:          0
L2C WRITE        ACCESS:     175053 HIT:     159803 MISS:      15250
L2C TRANSLATION  ACCESS:       5341 HIT:       3540 MISS:       1801
L2C PREFETCH REQUESTED:          0 ISSUED:          0 USEFUL:          0 USELESS:          0
L2C AVERAGE MISS LATENCY: 230.1 cycles
LLC TOTAL        ACCESS:     755647 HIT:     113701 MISS:     641946
LLC LOAD         ACCESS:     571953 HIT:      73496 MISS:     498457
LLC RFO          ACCESS:      66121 HIT:       2512 MISS:      63609
LLC PREFETCH     ACCESS:          0 HIT:          0 MISS:          0
LLC WRITE        ACCESS:     115772 HIT:      37413 MISS:      78359
LLC TRANSLATION  ACCESS:       1801 HIT:        280 MISS:       1521
LLC PREFETCH REQUESTED:          0 ISSUED:          0 USEFUL:          0 USELESS:          0
LLC AVERAGE MISS LATENCY: 214 cycles
cpu0_DTLB TOTAL        ACCESS:   19356947 HIT:   18406106 MISS:     950841
cpu0_DTLB LOAD         ACCESS:   19356947 HIT:   18406106 MISS:     950841
cpu0_DTLB RFO          ACCESS:          0 HIT:          0 MISS:          0
cpu0_DTLB PREFETCH     ACCESS:          0 HIT:          0 MISS:          0
cpu0_DTLB WRITE        ACCESS:          0 HIT:          0 MISS:          0
cpu0_DTLB TRANSLATION  ACCESS:          0 HIT:          0 MISS:          0
cpu0_DTLB PREFETCH REQUESTED:          0 ISSUED:          0 USEFUL:          0 USELESS:          0
cpu0_DTLB AVERAGE MISS LATENCY: 3.581 cycles
cpu0_ITLB TOTAL        ACCESS:      85431 HIT:      80978 MISS:       4453
cpu0_ITLB LOAD         ACCESS:      85431 HIT:      80978 MISS:       4453
cpu0_ITLB RFO          ACCESS:          0 HIT:          0 MISS:          0
cpu0_ITLB PREFETCH     ACCESS:          0 HIT:          0 MISS:          0
cpu0_ITLB WRITE        ACCESS:          0 HIT:          0 MISS:          0
cpu0_ITLB TRANSLATION  ACCESS:          0 HIT:          0 MISS:          0
cpu0_ITLB PREFETCH REQUESTED:          0 ISSUED:          0 USEFUL:          0 USELESS:          0
cpu0_ITLB AVERAGE MISS LATENCY: 20.58 cycles
cpu0_STLB TOTAL        ACCESS:     491202 HIT:     483650 MISS:       7552
cpu0_STLB LOAD         ACCESS:     491202 HIT:     483650 MISS:       7552
cpu0_STLB RFO          ACCESS:          0 HIT:          0 MISS:          0
cpu0_STLB PREFETCH     ACCESS:          0 HIT:          0 MISS:          0
cpu0_STLB WRITE        ACCESS:          0 HIT:          0 MISS:          0
cpu0_STLB TRANSLATION  ACCESS:          0 HIT:          0 MISS:          0
cpu0_STLB PREFETCH REQUESTED:          0 ISSUED:          0 USEFUL:          0 USELESS:          0
cpu0_STLB AVERAGE MISS LATENCY: 209.9 cycles

DRAM Statistics

Channel 0 RQ ROW_BUFFER_HIT:     258174
  ROW_BUFFER_MISS:     305409
 AVG DBUS CONGESTED CYCLE: 3.905
WQ ROW_BUFFER_HIT: Channel 0 
  ROW_BUFFER_MISS:       4375
  FULL:     106601
