WARNING: physical memory size is smaller than virtual memory size.

*** ChampSim Multicore Out-of-Order Simulator ***
Warmup Instructions: 25000000
Simulation Instructions: 100000000
Number of CPUs: 1
Page size: 4096

[L1D] Demand IPV: 1 2 2 1 4 Prefetch IPV: 1 2 1 1 4
[L1I] Demand IPV: 1 2 2 1 4 Prefetch IPV: 1 2 1 1 4
[L2C] Demand IPV: 1 2 2 1 4 Prefetch IPV: 1 2 1 1 4
[LLC] Demand IPV: 1 2 2 1 4 Prefetch IPV: 1 2 1 1 4
Off-chip DRAM Size: 4 GiB Channels: 1 Width: 64-bit Data Race: 3200 MT/s
Heartbeat CPU 0 instructions: 10000000 cycles: 2511859 heartbeat IPC: 3.981 cumulative IPC: 3.981 (Simulation time: 00 hr 00 min 21 sec)
Heartbeat CPU 0 instructions: 20000000 cycles: 5019889 heartbeat IPC: 3.987 cumulative IPC: 3.984 (Simulation time: 00 hr 00 min 42 sec)
Warmup finished CPU 0 instructions: 25000001 cycles: 6270782 cumulative IPC: 3.987 (Simulation time: 00 hr 00 min 51 sec)
Warmup complete CPU 0 instructions: 25000001 cycles: 6270782 cumulative IPC: 3.987 (Simulation time: 00 hr 00 min 51 sec)
Heartbeat CPU 0 instructions: 30000002 cycles: 11834455 heartbeat IPC: 1.467 cumulative IPC: 0.8987 (Simulation time: 00 hr 01 min 16 sec)
Heartbeat CPU 0 instructions: 40000002 cycles: 23578025 heartbeat IPC: 0.8515 cumulative IPC: 0.8667 (Simulation time: 00 hr 02 min 06 sec)
Heartbeat CPU 0 instructions: 50000002 cycles: 32441641 heartbeat IPC: 1.128 cumulative IPC: 0.9553 (Simulation time: 00 hr 02 min 49 sec)
Heartbeat CPU 0 instructions: 60000000 cycles: 39676966 heartbeat IPC: 1.382 cumulative IPC: 1.048 (Simulation time: 00 hr 03 min 28 sec)
Heartbeat CPU 0 instructions: 70000001 cycles: 53025676 heartbeat IPC: 0.7491 cumulative IPC: 0.9625 (Simulation time: 00 hr 04 min 23 sec)
Heartbeat CPU 0 instructions: 80000000 cycles: 63119324 heartbeat IPC: 0.9907 cumulative IPC: 0.9675 (Simulation time: 00 hr 05 min 09 sec)
Heartbeat CPU 0 instructions: 90000002 cycles: 77371439 heartbeat IPC: 0.7017 cumulative IPC: 0.9142 (Simulation time: 00 hr 06 min 07 sec)
Heartbeat CPU 0 instructions: 100000001 cycles: 88609696 heartbeat IPC: 0.8898 cumulative IPC: 0.9109 (Simulation time: 00 hr 06 min 56 sec)
*** Reached end of trace: (0, "../traces/secret_traces/compute_int/compute_int_377.champsimtrace.xz")
Heartbeat CPU 0 instructions: 110000000 cycles: 100356408 heartbeat IPC: 0.8513 cumulative IPC: 0.9034 (Simulation time: 00 hr 07 min 46 sec)
Heartbeat CPU 0 instructions: 120000001 cycles: 109667699 heartbeat IPC: 1.074 cumulative IPC: 0.9188 (Simulation time: 00 hr 08 min 30 sec)
Simulation finished CPU 0 instructions: 100000000 cycles: 106797856 cumulative IPC: 0.9363 (Simulation time: 00 hr 08 min 48 sec)
Simulation complete CPU 0 instructions: 100000000 cycles: 106797856 cumulative IPC: 0.9363 (Simulation time: 00 hr 08 min 48 sec)

ChampSim completed all CPUs

=== Simulation ===
CPU 0 runs ../traces/secret_traces/compute_int/compute_int_377.champsimtrace.xz
Region of Interest Statistics

CPU 0 cumulative IPC: 0.9363 instructions: 100000000 cycles: 106797856
CPU 0 Branch Prediction Accuracy: 90.54% MPKI: 18.12 Average ROB Occupancy at Mispredict: 23.67
Branch type MPKI
BRANCH_DIRECT_JUMP: 0.249
BRANCH_INDIRECT: 6.94
BRANCH_CONDITIONAL: 8.97
BRANCH_DIRECT_CALL: 0.334
BRANCH_INDIRECT_CALL: 1.14
BRANCH_RETURN: 0.486

L1D TOTAL        ACCESS:   31207631 HIT:   28846451 MISS:    2361180
L1D LOAD         ACCESS:   23019220 HIT:   21456644 MISS:    1562576
L1D RFO          ACCESS:          0 HIT:          0 MISS:          0
L1D PREFETCH     ACCESS:          0 HIT:          0 MISS:          0
L1D WRITE        ACCESS:    8153739 HIT:    7387192 MISS:     766547
L1D TRANSLATION  ACCESS:      34672 HIT:       2615 MISS:      32057
L1D PREFETCH REQUESTED:          0 ISSUED:          0 USEFUL:          0 USELESS:          0
L1D AVERAGE MISS LATENCY: 43.31 cycles
L1I TOTAL        ACCESS:    4948129 HIT:    4221818 MISS:     726311
L1I LOAD         ACCESS:    4948129 HIT:    4221818 MISS:     726311
L1I RFO          ACCESS:          0 HIT:          0 MISS:          0
L1I PREFETCH     ACCESS:          0 HIT:          0 MISS:          0
L1I WRITE        ACCESS:          0 HIT:          0 MISS:          0
L1I TRANSLATION  ACCESS:          0 HIT:          0 MISS:          0
L1I PREFETCH REQUESTED:          0 ISSUED:          0 USEFUL:          0 USELESS:          0
L1I AVERAGE MISS LATENCY: 30.79 cycles
L2C TOTAL        ACCESS:    2053640 HIT:    1293709 MISS:     759931
L2C LOAD         ACCESS:    1569383 HIT:    1001459 MISS:     567924
L2C RFO          ACCESS:     169237 HIT:      42099 MISS:     127138
L2C PREFETCH     ACCESS:          0 HIT:          0 MISS:          0
L2C WRITE        ACCESS:     283066 HIT:     244971 MISS:      38095
L2C TRANSLATION  ACCESS:      31954 HIT:       5180 MISS:      26774
L2C PREFETCH REQUESTED:          0 ISSUED:          0 USEFUL:          0 USELESS:          0
L2C AVERAGE MISS LATENCY: 147.9 cycles
LLC TOTAL        ACCESS:     916473 HIT:     349697 MISS:     566776
LLC LOAD         ACCESS:     567923 HIT:     227371 MISS:     340552
LLC RFO          ACCESS:     127138 HIT:      18902 MISS:     108236
LLC PREFETCH     ACCESS:          0 HIT:          0 MISS:          0
LLC WRITE        ACCESS:     194638 HIT:      97446 MISS:      97192
LLC TRANSLATION  ACCESS:      26774 HIT:       5978 MISS:      20796
LLC PREFETCH REQUESTED:          0 ISSUED:          0 USEFUL:          0 USELESS:          0
LLC AVERAGE MISS LATENCY: 172 cycles
cpu0_DTLB TOTAL        ACCESS:   24824197 HIT:   23793866 MISS:    1030331
cpu0_DTLB LOAD         ACCESS:   24824197 HIT:   23793866 MISS:    1030331
cpu0_DTLB RFO          ACCESS:          0 HIT:          0 MISS:          0
cpu0_DTLB PREFETCH     ACCESS:          0 HIT:          0 MISS:          0
cpu0_DTLB WRITE        ACCESS:          0 HIT:          0 MISS:          0
cpu0_DTLB TRANSLATION  ACCESS:          0 HIT:          0 MISS:          0
cpu0_DTLB PREFETCH REQUESTED:          0 ISSUED:          0 USEFUL:          0 USELESS:          0
cpu0_DTLB AVERAGE MISS LATENCY: 8.829 cycles
cpu0_ITLB TOTAL        ACCESS:    4333127 HIT:    4056962 MISS:     276165
cpu0_ITLB LOAD         ACCESS:    4333127 HIT:    4056962 MISS:     276165
cpu0_ITLB RFO          ACCESS:          0 HIT:          0 MISS:          0
cpu0_ITLB PREFETCH     ACCESS:          0 HIT:          0 MISS:          0
cpu0_ITLB WRITE        ACCESS:          0 HIT:          0 MISS:          0
cpu0_ITLB TRANSLATION  ACCESS:          0 HIT:          0 MISS:          0
cpu0_ITLB PREFETCH REQUESTED:          0 ISSUED:          0 USEFUL:          0 USELESS:          0
cpu0_ITLB AVERAGE MISS LATENCY: 7.776 cycles
cpu0_STLB TOTAL        ACCESS:     847234 HIT:     814843 MISS:      32391
cpu0_STLB LOAD         ACCESS:     847234 HIT:     814843 MISS:      32391
cpu0_STLB RFO          ACCESS:          0 HIT:          0 MISS:          0
cpu0_STLB PREFETCH     ACCESS:          0 HIT:          0 MISS:          0
cpu0_STLB WRITE        ACCESS:          0 HIT:          0 MISS:          0
cpu0_STLB TRANSLATION  ACCESS:          0 HIT:          0 MISS:          0
cpu0_STLB PREFETCH REQUESTED:          0 ISSUED:          0 USEFUL:          0 USELESS:          0
cpu0_STLB AVERAGE MISS LATENCY: 182.9 cycles

DRAM Statistics

Channel 0 RQ ROW_BUFFER_HIT:     114160
  ROW_BUFFER_MISS:     355377
 AVG DBUS CONGESTED CYCLE: 3.894
WQ ROW_BUFFER_HIT: Channel 0 
  ROW_BUFFER_MISS:      44466
  FULL:     102910
