WARNING: physical memory size is smaller than virtual memory size.

*** ChampSim Multicore Out-of-Order Simulator ***
Warmup Instructions: 25000000
Simulation Instructions: 100000000
Number of CPUs: 1
Page size: 4096

[L1D] Demand IPV: 1 2 2 1 4 Prefetch IPV: 1 2 1 1 4
[L1I] Demand IPV: 1 2 2 1 4 Prefetch IPV: 1 2 1 1 4
[L2C] Demand IPV: 1 2 2 1 4 Prefetch IPV: 1 2 1 1 4
[LLC] Demand IPV: 1 2 2 1 4 Prefetch IPV: 1 2 1 1 4
Off-chip DRAM Size: 4 GiB Channels: 1 Width: 64-bit Data Race: 3200 MT/s
Heartbeat CPU 0 instructions: 10000000 cycles: 2523241 heartbeat IPC: 3.963 cumulative IPC: 3.963 (Simulation time: 00 hr 00 min 17 sec)
Heartbeat CPU 0 instructions: 20000000 cycles: 5023241 heartbeat IPC: 4 cumulative IPC: 3.981 (Simulation time: 00 hr 00 min 35 sec)
Warmup finished CPU 0 instructions: 25000000 cycles: 6273242 cumulative IPC: 3.985 (Simulation time: 00 hr 00 min 43 sec)
Warmup complete CPU 0 instructions: 25000000 cycles: 6273242 cumulative IPC: 3.985 (Simulation time: 00 hr 00 min 43 sec)
Heartbeat CPU 0 instructions: 30000000 cycles: 7856474 heartbeat IPC: 3.53 cumulative IPC: 3.158 (Simulation time: 00 hr 00 min 55 sec)
Heartbeat CPU 0 instructions: 40000002 cycles: 10951026 heartbeat IPC: 3.231 cumulative IPC: 3.207 (Simulation time: 00 hr 01 min 17 sec)
Heartbeat CPU 0 instructions: 50000001 cycles: 14095164 heartbeat IPC: 3.181 cumulative IPC: 3.196 (Simulation time: 00 hr 01 min 38 sec)
Heartbeat CPU 0 instructions: 60000001 cycles: 17196103 heartbeat IPC: 3.225 cumulative IPC: 3.204 (Simulation time: 00 hr 02 min 00 sec)
Heartbeat CPU 0 instructions: 70000002 cycles: 20194895 heartbeat IPC: 3.335 cumulative IPC: 3.232 (Simulation time: 00 hr 02 min 21 sec)
Heartbeat CPU 0 instructions: 80000001 cycles: 23110393 heartbeat IPC: 3.43 cumulative IPC: 3.267 (Simulation time: 00 hr 02 min 42 sec)
Heartbeat CPU 0 instructions: 90000004 cycles: 26099002 heartbeat IPC: 3.346 cumulative IPC: 3.279 (Simulation time: 00 hr 03 min 04 sec)
Heartbeat CPU 0 instructions: 100000004 cycles: 29143117 heartbeat IPC: 3.285 cumulative IPC: 3.279 (Simulation time: 00 hr 03 min 25 sec)
*** Reached end of trace: (0, "../traces/secret_traces/compute_fp/compute_fp_13.champsimtrace.xz")
Heartbeat CPU 0 instructions: 110000003 cycles: 34506611 heartbeat IPC: 1.864 cumulative IPC: 3.011 (Simulation time: 00 hr 03 min 53 sec)
Heartbeat CPU 0 instructions: 120000004 cycles: 37735910 heartbeat IPC: 3.097 cumulative IPC: 3.019 (Simulation time: 00 hr 04 min 16 sec)
Simulation finished CPU 0 instructions: 100000001 cycles: 33028779 cumulative IPC: 3.028 (Simulation time: 00 hr 04 min 27 sec)
Simulation complete CPU 0 instructions: 100000001 cycles: 33028779 cumulative IPC: 3.028 (Simulation time: 00 hr 04 min 27 sec)

ChampSim completed all CPUs

=== Simulation ===
CPU 0 runs ../traces/secret_traces/compute_fp/compute_fp_13.champsimtrace.xz
Region of Interest Statistics

CPU 0 cumulative IPC: 3.028 instructions: 100000001 cycles: 33028779
CPU 0 Branch Prediction Accuracy: 95.2% MPKI: 3.779 Average ROB Occupancy at Mispredict: 37.62
Branch type MPKI
BRANCH_DIRECT_JUMP: 0.00719
BRANCH_INDIRECT: 0.323
BRANCH_CONDITIONAL: 3.41
BRANCH_DIRECT_CALL: 0.0197
BRANCH_INDIRECT_CALL: 0.00786
BRANCH_RETURN: 0.0109

L1D TOTAL        ACCESS:   16767536 HIT:   16051071 MISS:     716465
L1D LOAD         ACCESS:   13483969 HIT:   12859081 MISS:     624888
L1D RFO          ACCESS:          0 HIT:          0 MISS:          0
L1D PREFETCH     ACCESS:          0 HIT:          0 MISS:          0
L1D WRITE        ACCESS:    3282025 HIT:    3191487 MISS:      90538
L1D TRANSLATION  ACCESS:       1542 HIT:        503 MISS:       1039
L1D PREFETCH REQUESTED:          0 ISSUED:          0 USEFUL:          0 USELESS:          0
L1D AVERAGE MISS LATENCY: 15.01 cycles
L1I TOTAL        ACCESS:      67139 HIT:      45305 MISS:      21834
L1I LOAD         ACCESS:      67139 HIT:      45305 MISS:      21834
L1I RFO          ACCESS:          0 HIT:          0 MISS:          0
L1I PREFETCH     ACCESS:          0 HIT:          0 MISS:          0
L1I WRITE        ACCESS:          0 HIT:          0 MISS:          0
L1I TRANSLATION  ACCESS:          0 HIT:          0 MISS:          0
L1I PREFETCH REQUESTED:          0 ISSUED:          0 USEFUL:          0 USELESS:          0
L1I AVERAGE MISS LATENCY: 53.53 cycles
L2C TOTAL        ACCESS:     398746 HIT:     313736 MISS:      85010
L2C LOAD         ACCESS:     300806 HIT:     248290 MISS:      52516
L2C RFO          ACCESS:      35190 HIT:       7039 MISS:      28151
L2C PREFETCH     ACCESS:          0 HIT:          0 MISS:          0
L2C WRITE        ACCESS:      61714 HIT:      58225 MISS:       3489
L2C TRANSLATION  ACCESS:       1036 HIT:        182 MISS:        854
L2C PREFETCH REQUESTED:          0 ISSUED:          0 USEFUL:          0 USELESS:          0
L2C AVERAGE MISS LATENCY: 109.6 cycles
LLC TOTAL        ACCESS:     115167 HIT:      70775 MISS:      44392
LLC LOAD         ACCESS:      52516 HIT:      18287 MISS:      34229
LLC RFO          ACCESS:      28151 HIT:      24106 MISS:       4045
LLC PREFETCH     ACCESS:          0 HIT:          0 MISS:          0
LLC WRITE        ACCESS:      33646 HIT:      28205 MISS:       5441
LLC TRANSLATION  ACCESS:        854 HIT:        177 MISS:        677
LLC PREFETCH REQUESTED:          0 ISSUED:          0 USEFUL:          0 USELESS:          0
LLC AVERAGE MISS LATENCY: 172.1 cycles
cpu0_DTLB TOTAL        ACCESS:   14557831 HIT:   14526542 MISS:      31289
cpu0_DTLB LOAD         ACCESS:   14557831 HIT:   14526542 MISS:      31289
cpu0_DTLB RFO          ACCESS:          0 HIT:          0 MISS:          0
cpu0_DTLB PREFETCH     ACCESS:          0 HIT:          0 MISS:          0
cpu0_DTLB WRITE        ACCESS:          0 HIT:          0 MISS:          0
cpu0_DTLB TRANSLATION  ACCESS:          0 HIT:          0 MISS:          0
cpu0_DTLB PREFETCH REQUESTED:          0 ISSUED:          0 USEFUL:          0 USELESS:          0
cpu0_DTLB AVERAGE MISS LATENCY: 8.582 cycles
cpu0_ITLB TOTAL        ACCESS:      60645 HIT:      56244 MISS:       4401
cpu0_ITLB LOAD         ACCESS:      60645 HIT:      56244 MISS:       4401
cpu0_ITLB RFO          ACCESS:          0 HIT:          0 MISS:          0
cpu0_ITLB PREFETCH     ACCESS:          0 HIT:          0 MISS:          0
cpu0_ITLB WRITE        ACCESS:          0 HIT:          0 MISS:          0
cpu0_ITLB TRANSLATION  ACCESS:          0 HIT:          0 MISS:          0
cpu0_ITLB PREFETCH REQUESTED:          0 ISSUED:          0 USEFUL:          0 USELESS:          0
cpu0_ITLB AVERAGE MISS LATENCY: 10.99 cycles
cpu0_STLB TOTAL        ACCESS:      16636 HIT:      15185 MISS:       1451
cpu0_STLB LOAD         ACCESS:      16636 HIT:      15185 MISS:       1451
cpu0_STLB RFO          ACCESS:          0 HIT:          0 MISS:          0
cpu0_STLB PREFETCH     ACCESS:          0 HIT:          0 MISS:          0
cpu0_STLB WRITE        ACCESS:          0 HIT:          0 MISS:          0
cpu0_STLB TRANSLATION  ACCESS:          0 HIT:          0 MISS:          0
cpu0_STLB PREFETCH REQUESTED:          0 ISSUED:          0 USEFUL:          0 USELESS:          0
cpu0_STLB AVERAGE MISS LATENCY: 159.6 cycles

DRAM Statistics

Channel 0 RQ ROW_BUFFER_HIT:      18423
  ROW_BUFFER_MISS:      20522
 AVG DBUS CONGESTED CYCLE: 3.823
WQ ROW_BUFFER_HIT: Channel 0 
  ROW_BUFFER_MISS:       2057
  FULL:       5593
