WARNING: physical memory size is smaller than virtual memory size.

*** ChampSim Multicore Out-of-Order Simulator ***
Warmup Instructions: 25000000
Simulation Instructions: 100000000
Number of CPUs: 1
Page size: 4096

[L1D] Demand IPV: 1 2 2 1 4 Prefetch IPV: 1 2 1 1 4
[L1I] Demand IPV: 1 2 2 1 4 Prefetch IPV: 1 2 1 1 4
[L2C] Demand IPV: 1 2 2 1 4 Prefetch IPV: 1 2 1 1 4
[LLC] Demand IPV: 1 2 2 1 4 Prefetch IPV: 1 2 1 1 4
Off-chip DRAM Size: 4 GiB Channels: 1 Width: 64-bit Data Race: 3200 MT/s
Heartbeat CPU 0 instructions: 10000000 cycles: 2511723 heartbeat IPC: 3.981 cumulative IPC: 3.981 (Simulation time: 00 hr 00 min 18 sec)
Heartbeat CPU 0 instructions: 20000002 cycles: 5041045 heartbeat IPC: 3.954 cumulative IPC: 3.967 (Simulation time: 00 hr 00 min 37 sec)
Warmup finished CPU 0 instructions: 25000000 cycles: 6295949 cumulative IPC: 3.971 (Simulation time: 00 hr 00 min 46 sec)
Warmup complete CPU 0 instructions: 25000000 cycles: 6295949 cumulative IPC: 3.971 (Simulation time: 00 hr 00 min 46 sec)
Heartbeat CPU 0 instructions: 30000004 cycles: 7938475 heartbeat IPC: 3.451 cumulative IPC: 3.044 (Simulation time: 00 hr 00 min 58 sec)
Heartbeat CPU 0 instructions: 40000003 cycles: 14357948 heartbeat IPC: 1.558 cumulative IPC: 1.861 (Simulation time: 00 hr 01 min 33 sec)
Heartbeat CPU 0 instructions: 50000001 cycles: 22373847 heartbeat IPC: 1.248 cumulative IPC: 1.555 (Simulation time: 00 hr 02 min 13 sec)
Heartbeat CPU 0 instructions: 60000003 cycles: 30116631 heartbeat IPC: 1.292 cumulative IPC: 1.469 (Simulation time: 00 hr 02 min 53 sec)
Heartbeat CPU 0 instructions: 70000000 cycles: 37579748 heartbeat IPC: 1.34 cumulative IPC: 1.438 (Simulation time: 00 hr 03 min 31 sec)
Heartbeat CPU 0 instructions: 80000003 cycles: 44856583 heartbeat IPC: 1.374 cumulative IPC: 1.426 (Simulation time: 00 hr 04 min 08 sec)
Heartbeat CPU 0 instructions: 90000003 cycles: 52580907 heartbeat IPC: 1.295 cumulative IPC: 1.404 (Simulation time: 00 hr 04 min 47 sec)
Heartbeat CPU 0 instructions: 100000002 cycles: 57827319 heartbeat IPC: 1.906 cumulative IPC: 1.455 (Simulation time: 00 hr 05 min 18 sec)
Heartbeat CPU 0 instructions: 110000001 cycles: 60969945 heartbeat IPC: 3.182 cumulative IPC: 1.555 (Simulation time: 00 hr 05 min 40 sec)
*** Reached end of trace: (0, "../traces/secret_traces/compute_int/compute_int_765.champsimtrace.xz")
Heartbeat CPU 0 instructions: 120000004 cycles: 65336414 heartbeat IPC: 2.29 cumulative IPC: 1.609 (Simulation time: 00 hr 06 min 06 sec)
Simulation finished CPU 0 instructions: 100000001 cycles: 60717128 cumulative IPC: 1.647 (Simulation time: 00 hr 06 min 18 sec)
Simulation complete CPU 0 instructions: 100000001 cycles: 60717128 cumulative IPC: 1.647 (Simulation time: 00 hr 06 min 18 sec)

ChampSim completed all CPUs

=== Simulation ===
CPU 0 runs ../traces/secret_traces/compute_int/compute_int_765.champsimtrace.xz
Region of Interest Statistics

CPU 0 cumulative IPC: 1.647 instructions: 100000001 cycles: 60717128
CPU 0 Branch Prediction Accuracy: 98.84% MPKI: 0.6841 Average ROB Occupancy at Mispredict: 161.9
Branch type MPKI
BRANCH_DIRECT_JUMP: 0.00419
BRANCH_INDIRECT: 0.139
BRANCH_CONDITIONAL: 0.518
BRANCH_DIRECT_CALL: 0.0112
BRANCH_INDIRECT_CALL: 0.0058
BRANCH_RETURN: 0.0063

L1D TOTAL        ACCESS:   17431771 HIT:   14906187 MISS:    2525584
L1D LOAD         ACCESS:   13520972 HIT:   11858877 MISS:    1662095
L1D RFO          ACCESS:          0 HIT:          0 MISS:          0
L1D PREFETCH     ACCESS:          0 HIT:          0 MISS:          0
L1D WRITE        ACCESS:    3901290 HIT:    3040917 MISS:     860373
L1D TRANSLATION  ACCESS:       9509 HIT:       6393 MISS:       3116
L1D PREFETCH REQUESTED:          0 ISSUED:          0 USEFUL:          0 USELESS:          0
L1D AVERAGE MISS LATENCY: 188.3 cycles
L1I TOTAL        ACCESS:      76760 HIT:      66279 MISS:      10481
L1I LOAD         ACCESS:      76760 HIT:      66279 MISS:      10481
L1I RFO          ACCESS:          0 HIT:          0 MISS:          0
L1I PREFETCH     ACCESS:          0 HIT:          0 MISS:          0
L1I WRITE        ACCESS:          0 HIT:          0 MISS:          0
L1I TRANSLATION  ACCESS:          0 HIT:          0 MISS:          0
L1I PREFETCH REQUESTED:          0 ISSUED:          0 USEFUL:          0 USELESS:          0
L1I AVERAGE MISS LATENCY: 135.9 cycles
L2C TOTAL        ACCESS:    1840634 HIT:    1158583 MISS:     682051
L2C LOAD         ACCESS:     625814 HIT:     391366 MISS:     234448
L2C RFO          ACCESS:     588034 HIT:     173496 MISS:     414538
L2C PREFETCH     ACCESS:          0 HIT:          0 MISS:          0
L2C WRITE        ACCESS:     624976 HIT:     593181 MISS:      31795
L2C TRANSLATION  ACCESS:       1810 HIT:        540 MISS:       1270
L2C PREFETCH REQUESTED:          0 ISSUED:          0 USEFUL:          0 USELESS:          0
L2C AVERAGE MISS LATENCY: 713.5 cycles
LLC TOTAL        ACCESS:    1090037 HIT:     272826 MISS:     817211
LLC LOAD         ACCESS:     234446 HIT:     148232 MISS:      86214
LLC RFO          ACCESS:     414537 HIT:       4850 MISS:     409687
LLC PREFETCH     ACCESS:          0 HIT:          0 MISS:          0
LLC WRITE        ACCESS:     439784 HIT:     119552 MISS:     320232
LLC TRANSLATION  ACCESS:       1270 HIT:        192 MISS:       1078
LLC PREFETCH REQUESTED:          0 ISSUED:          0 USEFUL:          0 USELESS:          0
LLC AVERAGE MISS LATENCY: 578.9 cycles
cpu0_DTLB TOTAL        ACCESS:   16221384 HIT:   15880808 MISS:     340576
cpu0_DTLB LOAD         ACCESS:   16221384 HIT:   15880808 MISS:     340576
cpu0_DTLB RFO          ACCESS:          0 HIT:          0 MISS:          0
cpu0_DTLB PREFETCH     ACCESS:          0 HIT:          0 MISS:          0
cpu0_DTLB WRITE        ACCESS:          0 HIT:          0 MISS:          0
cpu0_DTLB TRANSLATION  ACCESS:          0 HIT:          0 MISS:          0
cpu0_DTLB PREFETCH REQUESTED:          0 ISSUED:          0 USEFUL:          0 USELESS:          0
cpu0_DTLB AVERAGE MISS LATENCY: 16.63 cycles
cpu0_ITLB TOTAL        ACCESS:      69397 HIT:      64380 MISS:       5017
cpu0_ITLB LOAD         ACCESS:      69397 HIT:      64380 MISS:       5017
cpu0_ITLB RFO          ACCESS:          0 HIT:          0 MISS:          0
cpu0_ITLB PREFETCH     ACCESS:          0 HIT:          0 MISS:          0
cpu0_ITLB WRITE        ACCESS:          0 HIT:          0 MISS:          0
cpu0_ITLB TRANSLATION  ACCESS:          0 HIT:          0 MISS:          0
cpu0_ITLB PREFETCH REQUESTED:          0 ISSUED:          0 USEFUL:          0 USELESS:          0
cpu0_ITLB AVERAGE MISS LATENCY: 18.57 cycles
cpu0_STLB TOTAL        ACCESS:     232245 HIT:     221777 MISS:      10468
cpu0_STLB LOAD         ACCESS:     232245 HIT:     221777 MISS:      10468
cpu0_STLB RFO          ACCESS:          0 HIT:          0 MISS:          0
cpu0_STLB PREFETCH     ACCESS:          0 HIT:          0 MISS:          0
cpu0_STLB WRITE        ACCESS:          0 HIT:          0 MISS:          0
cpu0_STLB TRANSLATION  ACCESS:          0 HIT:          0 MISS:          0
cpu0_STLB PREFETCH REQUESTED:          0 ISSUED:          0 USEFUL:          0 USELESS:          0
cpu0_STLB AVERAGE MISS LATENCY: 424.5 cycles

DRAM Statistics

Channel 0 RQ ROW_BUFFER_HIT:     246882
  ROW_BUFFER_MISS:     249670
 AVG DBUS CONGESTED CYCLE: 3.994
WQ ROW_BUFFER_HIT: Channel 0 
  ROW_BUFFER_MISS:      13673
  FULL:     407185
