WARNING: physical memory size is smaller than virtual memory size.

*** ChampSim Multicore Out-of-Order Simulator ***
Warmup Instructions: 25000000
Simulation Instructions: 100000000
Number of CPUs: 1
Page size: 4096

[L1D] Demand IPV: 1 2 2 1 4 Prefetch IPV: 1 2 1 1 4
[L1I] Demand IPV: 1 2 2 1 4 Prefetch IPV: 1 2 1 1 4
[L2C] Demand IPV: 1 2 2 1 4 Prefetch IPV: 1 2 1 1 4
[LLC] Demand IPV: 1 2 2 1 4 Prefetch IPV: 1 2 1 1 4
Off-chip DRAM Size: 4 GiB Channels: 1 Width: 64-bit Data Race: 3200 MT/s
Heartbeat CPU 0 instructions: 10000002 cycles: 2500092 heartbeat IPC: 4 cumulative IPC: 4 (Simulation time: 00 hr 00 min 17 sec)
Heartbeat CPU 0 instructions: 20000003 cycles: 5000139 heartbeat IPC: 4 cumulative IPC: 4 (Simulation time: 00 hr 00 min 34 sec)
Warmup finished CPU 0 instructions: 25000003 cycles: 6250140 cumulative IPC: 4 (Simulation time: 00 hr 00 min 42 sec)
Warmup complete CPU 0 instructions: 25000003 cycles: 6250140 cumulative IPC: 4 (Simulation time: 00 hr 00 min 42 sec)
Heartbeat CPU 0 instructions: 30000000 cycles: 8283466 heartbeat IPC: 3.046 cumulative IPC: 2.459 (Simulation time: 00 hr 00 min 53 sec)
Heartbeat CPU 0 instructions: 40000001 cycles: 15367975 heartbeat IPC: 1.412 cumulative IPC: 1.645 (Simulation time: 00 hr 01 min 25 sec)
Heartbeat CPU 0 instructions: 50000000 cycles: 19477622 heartbeat IPC: 2.433 cumulative IPC: 1.89 (Simulation time: 00 hr 01 min 47 sec)
Heartbeat CPU 0 instructions: 60000000 cycles: 23589315 heartbeat IPC: 2.432 cumulative IPC: 2.019 (Simulation time: 00 hr 02 min 10 sec)
Heartbeat CPU 0 instructions: 70000001 cycles: 27610773 heartbeat IPC: 2.487 cumulative IPC: 2.107 (Simulation time: 00 hr 02 min 32 sec)
Heartbeat CPU 0 instructions: 80000001 cycles: 31677586 heartbeat IPC: 2.459 cumulative IPC: 2.163 (Simulation time: 00 hr 02 min 54 sec)
Heartbeat CPU 0 instructions: 90000002 cycles: 35713242 heartbeat IPC: 2.478 cumulative IPC: 2.206 (Simulation time: 00 hr 03 min 17 sec)
Heartbeat CPU 0 instructions: 100000000 cycles: 39812381 heartbeat IPC: 2.44 cumulative IPC: 2.235 (Simulation time: 00 hr 03 min 39 sec)
Heartbeat CPU 0 instructions: 110000000 cycles: 43879388 heartbeat IPC: 2.459 cumulative IPC: 2.259 (Simulation time: 00 hr 04 min 02 sec)
*** Reached end of trace: (0, "../traces/secret_traces/crypto/crypto95.champsimtrace.xz")
Heartbeat CPU 0 instructions: 120000004 cycles: 47932924 heartbeat IPC: 2.467 cumulative IPC: 2.279 (Simulation time: 00 hr 04 min 24 sec)
Simulation finished CPU 0 instructions: 100000001 cycles: 44391535 cumulative IPC: 2.253 (Simulation time: 00 hr 04 min 38 sec)
Simulation complete CPU 0 instructions: 100000001 cycles: 44391535 cumulative IPC: 2.253 (Simulation time: 00 hr 04 min 38 sec)

ChampSim completed all CPUs

=== Simulation ===
CPU 0 runs ../traces/secret_traces/crypto/crypto95.champsimtrace.xz
Region of Interest Statistics

CPU 0 cumulative IPC: 2.253 instructions: 100000001 cycles: 44391535
CPU 0 Branch Prediction Accuracy: 79.82% MPKI: 14.16 Average ROB Occupancy at Mispredict: 30.85
Branch type MPKI
BRANCH_DIRECT_JUMP: 0.0333
BRANCH_INDIRECT: 2.57
BRANCH_CONDITIONAL: 11.3
BRANCH_DIRECT_CALL: 0.0517
BRANCH_INDIRECT_CALL: 0.174
BRANCH_RETURN: 0.0629

L1D TOTAL        ACCESS:   19739137 HIT:   19507319 MISS:     231818
L1D LOAD         ACCESS:   15629609 HIT:   15454471 MISS:     175138
L1D RFO          ACCESS:          0 HIT:          0 MISS:          0
L1D PREFETCH     ACCESS:          0 HIT:          0 MISS:          0
L1D WRITE        ACCESS:    4107621 HIT:    4052657 MISS:      54964
L1D TRANSLATION  ACCESS:       1907 HIT:        191 MISS:       1716
L1D PREFETCH REQUESTED:          0 ISSUED:          0 USEFUL:          0 USELESS:          0
L1D AVERAGE MISS LATENCY: 18.3 cycles
L1I TOTAL        ACCESS:     856167 HIT:     472043 MISS:     384124
L1I LOAD         ACCESS:     856167 HIT:     472043 MISS:     384124
L1I RFO          ACCESS:          0 HIT:          0 MISS:          0
L1I PREFETCH     ACCESS:          0 HIT:          0 MISS:          0
L1I WRITE        ACCESS:          0 HIT:          0 MISS:          0
L1I TRANSLATION  ACCESS:          0 HIT:          0 MISS:          0
L1I PREFETCH REQUESTED:          0 ISSUED:          0 USEFUL:          0 USELESS:          0
L1I AVERAGE MISS LATENCY: 11.76 cycles
L2C TOTAL        ACCESS:     497707 HIT:     411210 MISS:      86497
L2C LOAD         ACCESS:     394172 HIT:     321334 MISS:      72838
L2C RFO          ACCESS:      18302 HIT:      11287 MISS:       7015
L2C PREFETCH     ACCESS:          0 HIT:          0 MISS:          0
L2C WRITE        ACCESS:      83519 HIT:      78187 MISS:       5332
L2C TRANSLATION  ACCESS:       1714 HIT:        402 MISS:       1312
L2C PREFETCH REQUESTED:          0 ISSUED:          0 USEFUL:          0 USELESS:          0
L2C AVERAGE MISS LATENCY: 60.49 cycles
LLC TOTAL        ACCESS:     108737 HIT:      71318 MISS:      37419
LLC LOAD         ACCESS:      72838 HIT:      46302 MISS:      26536
LLC RFO          ACCESS:       7015 HIT:       3569 MISS:       3446
LLC PREFETCH     ACCESS:          0 HIT:          0 MISS:          0
LLC WRITE        ACCESS:      27572 HIT:      20899 MISS:       6673
LLC TRANSLATION  ACCESS:       1312 HIT:        548 MISS:        764
LLC PREFETCH REQUESTED:          0 ISSUED:          0 USEFUL:          0 USELESS:          0
LLC AVERAGE MISS LATENCY: 95.61 cycles
cpu0_DTLB TOTAL        ACCESS:   14415395 HIT:   14347141 MISS:      68254
cpu0_DTLB LOAD         ACCESS:   14415395 HIT:   14347141 MISS:      68254
cpu0_DTLB RFO          ACCESS:          0 HIT:          0 MISS:          0
cpu0_DTLB PREFETCH     ACCESS:          0 HIT:          0 MISS:          0
cpu0_DTLB WRITE        ACCESS:          0 HIT:          0 MISS:          0
cpu0_DTLB TRANSLATION  ACCESS:          0 HIT:          0 MISS:          0
cpu0_DTLB PREFETCH REQUESTED:          0 ISSUED:          0 USEFUL:          0 USELESS:          0
cpu0_DTLB AVERAGE MISS LATENCY: 7.165 cycles
cpu0_ITLB TOTAL        ACCESS:     743744 HIT:     667493 MISS:      76251
cpu0_ITLB LOAD         ACCESS:     743744 HIT:     667493 MISS:      76251
cpu0_ITLB RFO          ACCESS:          0 HIT:          0 MISS:          0
cpu0_ITLB PREFETCH     ACCESS:          0 HIT:          0 MISS:          0
cpu0_ITLB WRITE        ACCESS:          0 HIT:          0 MISS:          0
cpu0_ITLB TRANSLATION  ACCESS:          0 HIT:          0 MISS:          0
cpu0_ITLB PREFETCH REQUESTED:          0 ISSUED:          0 USEFUL:          0 USELESS:          0
cpu0_ITLB AVERAGE MISS LATENCY: 4.18 cycles
cpu0_STLB TOTAL        ACCESS:      78625 HIT:      76808 MISS:       1817
cpu0_STLB LOAD         ACCESS:      78625 HIT:      76808 MISS:       1817
cpu0_STLB RFO          ACCESS:          0 HIT:          0 MISS:          0
cpu0_STLB PREFETCH     ACCESS:          0 HIT:          0 MISS:          0
cpu0_STLB WRITE        ACCESS:          0 HIT:          0 MISS:          0
cpu0_STLB TRANSLATION  ACCESS:          0 HIT:          0 MISS:          0
cpu0_STLB PREFETCH REQUESTED:          0 ISSUED:          0 USEFUL:          0 USELESS:          0
cpu0_STLB AVERAGE MISS LATENCY: 186.5 cycles

DRAM Statistics

Channel 0 RQ ROW_BUFFER_HIT:      15972
  ROW_BUFFER_MISS:      14774
 AVG DBUS CONGESTED CYCLE: 3.891
WQ ROW_BUFFER_HIT: Channel 0 
  ROW_BUFFER_MISS:       1964
  FULL:       5875
