WARNING: physical memory size is smaller than virtual memory size.

*** ChampSim Multicore Out-of-Order Simulator ***
Warmup Instructions: 25000000
Simulation Instructions: 100000000
Number of CPUs: 1
Page size: 4096

[L1D] Demand IPV: 1 2 2 1 4 Prefetch IPV: 1 2 1 1 4
[L1I] Demand IPV: 1 2 2 1 4 Prefetch IPV: 1 2 1 1 4
[L2C] Demand IPV: 1 2 2 1 4 Prefetch IPV: 1 2 1 1 4
[LLC] Demand IPV: 1 2 2 1 4 Prefetch IPV: 1 2 1 1 4
Off-chip DRAM Size: 4 GiB Channels: 1 Width: 64-bit Data Race: 3200 MT/s
Heartbeat CPU 0 instructions: 10000001 cycles: 2510552 heartbeat IPC: 3.983 cumulative IPC: 3.983 (Simulation time: 00 hr 00 min 16 sec)
*** Reached end of trace: (0, "../traces/secret_traces/crypto/crypto27.champsimtrace.xz")
Heartbeat CPU 0 instructions: 20000000 cycles: 5043780 heartbeat IPC: 3.948 cumulative IPC: 3.965 (Simulation time: 00 hr 00 min 33 sec)
Warmup finished CPU 0 instructions: 25000001 cycles: 6299412 cumulative IPC: 3.969 (Simulation time: 00 hr 00 min 41 sec)
Warmup complete CPU 0 instructions: 25000001 cycles: 6299412 cumulative IPC: 3.969 (Simulation time: 00 hr 00 min 41 sec)
Heartbeat CPU 0 instructions: 30000001 cycles: 8424119 heartbeat IPC: 2.958 cumulative IPC: 2.353 (Simulation time: 00 hr 00 min 52 sec)
*** Reached end of trace: (0, "../traces/secret_traces/crypto/crypto27.champsimtrace.xz")
Heartbeat CPU 0 instructions: 40000002 cycles: 15749135 heartbeat IPC: 1.365 cumulative IPC: 1.587 (Simulation time: 00 hr 01 min 24 sec)
Heartbeat CPU 0 instructions: 50000001 cycles: 20529300 heartbeat IPC: 2.092 cumulative IPC: 1.757 (Simulation time: 00 hr 01 min 47 sec)
*** Reached end of trace: (0, "../traces/secret_traces/crypto/crypto27.champsimtrace.xz")
Heartbeat CPU 0 instructions: 60000002 cycles: 28168587 heartbeat IPC: 1.309 cumulative IPC: 1.6 (Simulation time: 00 hr 02 min 20 sec)
Heartbeat CPU 0 instructions: 70000004 cycles: 32666630 heartbeat IPC: 2.223 cumulative IPC: 1.707 (Simulation time: 00 hr 02 min 42 sec)
*** Reached end of trace: (0, "../traces/secret_traces/crypto/crypto27.champsimtrace.xz")
Heartbeat CPU 0 instructions: 80000001 cycles: 40432356 heartbeat IPC: 1.288 cumulative IPC: 1.611 (Simulation time: 00 hr 03 min 16 sec)
Heartbeat CPU 0 instructions: 90000002 cycles: 44794575 heartbeat IPC: 2.292 cumulative IPC: 1.689 (Simulation time: 00 hr 03 min 37 sec)
*** Reached end of trace: (0, "../traces/secret_traces/crypto/crypto27.champsimtrace.xz")
Heartbeat CPU 0 instructions: 100000004 cycles: 52550908 heartbeat IPC: 1.289 cumulative IPC: 1.622 (Simulation time: 00 hr 04 min 11 sec)
Heartbeat CPU 0 instructions: 110000001 cycles: 56913000 heartbeat IPC: 2.292 cumulative IPC: 1.679 (Simulation time: 00 hr 04 min 32 sec)
*** Reached end of trace: (0, "../traces/secret_traces/crypto/crypto27.champsimtrace.xz")
Heartbeat CPU 0 instructions: 120000003 cycles: 64633223 heartbeat IPC: 1.295 cumulative IPC: 1.629 (Simulation time: 00 hr 05 min 05 sec)
Simulation finished CPU 0 instructions: 100000002 cycles: 60603520 cumulative IPC: 1.65 (Simulation time: 00 hr 05 min 16 sec)
Simulation complete CPU 0 instructions: 100000002 cycles: 60603520 cumulative IPC: 1.65 (Simulation time: 00 hr 05 min 16 sec)

ChampSim completed all CPUs

=== Simulation ===
CPU 0 runs ../traces/secret_traces/crypto/crypto27.champsimtrace.xz
Region of Interest Statistics

CPU 0 cumulative IPC: 1.65 instructions: 100000002 cycles: 60603520
CPU 0 Branch Prediction Accuracy: 71.36% MPKI: 20.29 Average ROB Occupancy at Mispredict: 17.2
Branch type MPKI
BRANCH_DIRECT_JUMP: 0.0719
BRANCH_INDIRECT: 3.22
BRANCH_CONDITIONAL: 16.5
BRANCH_DIRECT_CALL: 0.209
BRANCH_INDIRECT_CALL: 0.211
BRANCH_RETURN: 0.113

L1D TOTAL        ACCESS:   16235703 HIT:   15514439 MISS:     721264
L1D LOAD         ACCESS:   11048854 HIT:   10785329 MISS:     263525
L1D RFO          ACCESS:          0 HIT:          0 MISS:          0
L1D PREFETCH     ACCESS:          0 HIT:          0 MISS:          0
L1D WRITE        ACCESS:    5176688 HIT:    4724656 MISS:     452032
L1D TRANSLATION  ACCESS:      10161 HIT:       4454 MISS:       5707
L1D PREFETCH REQUESTED:          0 ISSUED:          0 USEFUL:          0 USELESS:          0
L1D AVERAGE MISS LATENCY: 109.8 cycles
L1I TOTAL        ACCESS:     504055 HIT:     358122 MISS:     145933
L1I LOAD         ACCESS:     504055 HIT:     358122 MISS:     145933
L1I RFO          ACCESS:          0 HIT:          0 MISS:          0
L1I PREFETCH     ACCESS:          0 HIT:          0 MISS:          0
L1I WRITE        ACCESS:          0 HIT:          0 MISS:          0
L1I TRANSLATION  ACCESS:          0 HIT:          0 MISS:          0
L1I PREFETCH REQUESTED:          0 ISSUED:          0 USEFUL:          0 USELESS:          0
L1I AVERAGE MISS LATENCY: 55.38 cycles
L2C TOTAL        ACCESS:     683395 HIT:     268014 MISS:     415381
L2C LOAD         ACCESS:     270039 HIT:      75456 MISS:     194583
L2C RFO          ACCESS:     193022 HIT:       5251 MISS:     187771
L2C PREFETCH     ACCESS:          0 HIT:          0 MISS:          0
L2C WRITE        ACCESS:     214763 HIT:     186458 MISS:      28305
L2C TRANSLATION  ACCESS:       5571 HIT:        849 MISS:       4722
L2C PREFETCH REQUESTED:          0 ISSUED:          0 USEFUL:          0 USELESS:          0
L2C AVERAGE MISS LATENCY: 203.5 cycles
LLC TOTAL        ACCESS:     589623 HIT:     361565 MISS:     228058
LLC LOAD         ACCESS:     194583 HIT:      81962 MISS:     112621
LLC RFO          ACCESS:     187771 HIT:     123210 MISS:      64561
LLC PREFETCH     ACCESS:          0 HIT:          0 MISS:          0
LLC WRITE        ACCESS:     202547 HIT:     154990 MISS:      47557
LLC TRANSLATION  ACCESS:       4722 HIT:       1403 MISS:       3319
LLC PREFETCH REQUESTED:          0 ISSUED:          0 USEFUL:          0 USELESS:          0
LLC AVERAGE MISS LATENCY: 335.7 cycles
cpu0_DTLB TOTAL        ACCESS:   14389387 HIT:   14323458 MISS:      65929
cpu0_DTLB LOAD         ACCESS:   14389387 HIT:   14323458 MISS:      65929
cpu0_DTLB RFO          ACCESS:          0 HIT:          0 MISS:          0
cpu0_DTLB PREFETCH     ACCESS:          0 HIT:          0 MISS:          0
cpu0_DTLB WRITE        ACCESS:          0 HIT:          0 MISS:          0
cpu0_DTLB TRANSLATION  ACCESS:          0 HIT:          0 MISS:          0
cpu0_DTLB PREFETCH REQUESTED:          0 ISSUED:          0 USEFUL:          0 USELESS:          0
cpu0_DTLB AVERAGE MISS LATENCY: 14.05 cycles
cpu0_ITLB TOTAL        ACCESS:     461249 HIT:     423869 MISS:      37380
cpu0_ITLB LOAD         ACCESS:     461249 HIT:     423869 MISS:      37380
cpu0_ITLB RFO          ACCESS:          0 HIT:          0 MISS:          0
cpu0_ITLB PREFETCH     ACCESS:          0 HIT:          0 MISS:          0
cpu0_ITLB WRITE        ACCESS:          0 HIT:          0 MISS:          0
cpu0_ITLB TRANSLATION  ACCESS:          0 HIT:          0 MISS:          0
cpu0_ITLB PREFETCH REQUESTED:          0 ISSUED:          0 USEFUL:          0 USELESS:          0
cpu0_ITLB AVERAGE MISS LATENCY: 10.03 cycles
cpu0_STLB TOTAL        ACCESS:      50975 HIT:      41400 MISS:       9575
cpu0_STLB LOAD         ACCESS:      50975 HIT:      41400 MISS:       9575
cpu0_STLB RFO          ACCESS:          0 HIT:          0 MISS:          0
cpu0_STLB PREFETCH     ACCESS:          0 HIT:          0 MISS:          0
cpu0_STLB WRITE        ACCESS:          0 HIT:          0 MISS:          0
cpu0_STLB TRANSLATION  ACCESS:          0 HIT:          0 MISS:          0
cpu0_STLB PREFETCH REQUESTED:          0 ISSUED:          0 USEFUL:          0 USELESS:          0
cpu0_STLB AVERAGE MISS LATENCY: 110.3 cycles

DRAM Statistics

Channel 0 RQ ROW_BUFFER_HIT:      94960
  ROW_BUFFER_MISS:      85484
 AVG DBUS CONGESTED CYCLE: 3.975
WQ ROW_BUFFER_HIT: Channel 0 
  ROW_BUFFER_MISS:       8659
  FULL:      57443
