WARNING: physical memory size is smaller than virtual memory size.

*** ChampSim Multicore Out-of-Order Simulator ***
Warmup Instructions: 25000000
Simulation Instructions: 100000000
Number of CPUs: 1
Page size: 4096

[L1D] Demand IPV: 1 2 2 1 4 Prefetch IPV: 1 2 1 1 4
[L1I] Demand IPV: 1 2 2 1 4 Prefetch IPV: 1 2 1 1 4
[L2C] Demand IPV: 1 2 2 1 4 Prefetch IPV: 1 2 1 1 4
[LLC] Demand IPV: 1 2 2 1 4 Prefetch IPV: 1 2 1 1 4
Off-chip DRAM Size: 4 GiB Channels: 1 Width: 64-bit Data Race: 3200 MT/s
Heartbeat CPU 0 instructions: 10000001 cycles: 2510587 heartbeat IPC: 3.983 cumulative IPC: 3.983 (Simulation time: 00 hr 00 min 18 sec)
Heartbeat CPU 0 instructions: 20000001 cycles: 5038384 heartbeat IPC: 3.956 cumulative IPC: 3.97 (Simulation time: 00 hr 00 min 37 sec)
Warmup finished CPU 0 instructions: 25000001 cycles: 6288385 cumulative IPC: 3.976 (Simulation time: 00 hr 00 min 46 sec)
Warmup complete CPU 0 instructions: 25000001 cycles: 6288385 cumulative IPC: 3.976 (Simulation time: 00 hr 00 min 46 sec)
Heartbeat CPU 0 instructions: 30000004 cycles: 7977690 heartbeat IPC: 3.402 cumulative IPC: 2.96 (Simulation time: 00 hr 00 min 57 sec)
Heartbeat CPU 0 instructions: 40000001 cycles: 11227703 heartbeat IPC: 3.077 cumulative IPC: 3.037 (Simulation time: 00 hr 01 min 19 sec)
*** Reached end of trace: (0, "../traces/secret_traces/crypto/crypto68.champsimtrace.xz")
Heartbeat CPU 0 instructions: 50000001 cycles: 16348122 heartbeat IPC: 1.953 cumulative IPC: 2.485 (Simulation time: 00 hr 01 min 48 sec)
Heartbeat CPU 0 instructions: 60000000 cycles: 19760585 heartbeat IPC: 2.93 cumulative IPC: 2.598 (Simulation time: 00 hr 02 min 10 sec)
Heartbeat CPU 0 instructions: 70000003 cycles: 24911592 heartbeat IPC: 1.941 cumulative IPC: 2.416 (Simulation time: 00 hr 02 min 39 sec)
Heartbeat CPU 0 instructions: 80000002 cycles: 28217802 heartbeat IPC: 3.025 cumulative IPC: 2.508 (Simulation time: 00 hr 03 min 01 sec)
*** Reached end of trace: (0, "../traces/secret_traces/crypto/crypto68.champsimtrace.xz")
Heartbeat CPU 0 instructions: 90000003 cycles: 32513757 heartbeat IPC: 2.328 cumulative IPC: 2.479 (Simulation time: 00 hr 03 min 27 sec)
Heartbeat CPU 0 instructions: 100000001 cycles: 36761000 heartbeat IPC: 2.354 cumulative IPC: 2.461 (Simulation time: 00 hr 03 min 52 sec)
Heartbeat CPU 0 instructions: 110000003 cycles: 41925125 heartbeat IPC: 1.936 cumulative IPC: 2.385 (Simulation time: 00 hr 04 min 21 sec)
Heartbeat CPU 0 instructions: 120000002 cycles: 45230178 heartbeat IPC: 3.026 cumulative IPC: 2.44 (Simulation time: 00 hr 04 min 43 sec)
Simulation finished CPU 0 instructions: 100000000 cycles: 40563415 cumulative IPC: 2.465 (Simulation time: 00 hr 04 min 54 sec)
Simulation complete CPU 0 instructions: 100000000 cycles: 40563415 cumulative IPC: 2.465 (Simulation time: 00 hr 04 min 54 sec)

ChampSim completed all CPUs

=== Simulation ===
CPU 0 runs ../traces/secret_traces/crypto/crypto68.champsimtrace.xz
Region of Interest Statistics

CPU 0 cumulative IPC: 2.465 instructions: 100000000 cycles: 40563415
CPU 0 Branch Prediction Accuracy: 95.96% MPKI: 6.611 Average ROB Occupancy at Mispredict: 44.58
Branch type MPKI
BRANCH_DIRECT_JUMP: 0.0291
BRANCH_INDIRECT: 1.26
BRANCH_CONDITIONAL: 5.11
BRANCH_DIRECT_CALL: 0.0802
BRANCH_INDIRECT_CALL: 0.0831
BRANCH_RETURN: 0.0445

L1D TOTAL        ACCESS:   21691821 HIT:   21403317 MISS:     288504
L1D LOAD         ACCESS:    9003682 HIT:    8896981 MISS:     106701
L1D RFO          ACCESS:          0 HIT:          0 MISS:          0
L1D PREFETCH     ACCESS:          0 HIT:          0 MISS:          0
L1D WRITE        ACCESS:   12684243 HIT:   12504660 MISS:     179583
L1D TRANSLATION  ACCESS:       3896 HIT:       1676 MISS:       2220
L1D PREFETCH REQUESTED:          0 ISSUED:          0 USEFUL:          0 USELESS:          0
L1D AVERAGE MISS LATENCY: 103.8 cycles
L1I TOTAL        ACCESS:     206775 HIT:     145415 MISS:      61360
L1I LOAD         ACCESS:     206775 HIT:     145415 MISS:      61360
L1I RFO          ACCESS:          0 HIT:          0 MISS:          0
L1I PREFETCH     ACCESS:          0 HIT:          0 MISS:          0
L1I WRITE        ACCESS:          0 HIT:          0 MISS:          0
L1I TRANSLATION  ACCESS:          0 HIT:          0 MISS:          0
L1I PREFETCH REQUESTED:          0 ISSUED:          0 USEFUL:          0 USELESS:          0
L1I AVERAGE MISS LATENCY: 53.94 cycles
L2C TOTAL        ACCESS:     274203 HIT:     108336 MISS:     165867
L2C LOAD         ACCESS:     109847 HIT:      31594 MISS:      78253
L2C RFO          ACCESS:      76767 HIT:       1989 MISS:      74778
L2C PREFETCH     ACCESS:          0 HIT:          0 MISS:          0
L2C WRITE        ACCESS:      85424 HIT:      74436 MISS:      10988
L2C TRANSLATION  ACCESS:       2165 HIT:        317 MISS:       1848
L2C PREFETCH REQUESTED:          0 ISSUED:          0 USEFUL:          0 USELESS:          0
L2C AVERAGE MISS LATENCY: 193.4 cycles
LLC TOTAL        ACCESS:     235804 HIT:     146393 MISS:      89411
LLC LOAD         ACCESS:      78253 HIT:      33677 MISS:      44576
LLC RFO          ACCESS:      74778 HIT:      50875 MISS:      23903
LLC PREFETCH     ACCESS:          0 HIT:          0 MISS:          0
LLC WRITE        ACCESS:      80925 HIT:      61350 MISS:      19575
LLC TRANSLATION  ACCESS:       1848 HIT:        491 MISS:       1357
LLC PREFETCH REQUESTED:          0 ISSUED:          0 USEFUL:          0 USELESS:          0
LLC AVERAGE MISS LATENCY: 323.3 cycles
cpu0_DTLB TOTAL        ACCESS:   17581361 HIT:   17554856 MISS:      26505
cpu0_DTLB LOAD         ACCESS:   17581361 HIT:   17554856 MISS:      26505
cpu0_DTLB RFO          ACCESS:          0 HIT:          0 MISS:          0
cpu0_DTLB PREFETCH     ACCESS:          0 HIT:          0 MISS:          0
cpu0_DTLB WRITE        ACCESS:          0 HIT:          0 MISS:          0
cpu0_DTLB TRANSLATION  ACCESS:          0 HIT:          0 MISS:          0
cpu0_DTLB PREFETCH REQUESTED:          0 ISSUED:          0 USEFUL:          0 USELESS:          0
cpu0_DTLB AVERAGE MISS LATENCY: 14.54 cycles
cpu0_ITLB TOTAL        ACCESS:     188924 HIT:     173326 MISS:      15598
cpu0_ITLB LOAD         ACCESS:     188924 HIT:     173326 MISS:      15598
cpu0_ITLB RFO          ACCESS:          0 HIT:          0 MISS:          0
cpu0_ITLB PREFETCH     ACCESS:          0 HIT:          0 MISS:          0
cpu0_ITLB WRITE        ACCESS:          0 HIT:          0 MISS:          0
cpu0_ITLB TRANSLATION  ACCESS:          0 HIT:          0 MISS:          0
cpu0_ITLB PREFETCH REQUESTED:          0 ISSUED:          0 USEFUL:          0 USELESS:          0
cpu0_ITLB AVERAGE MISS LATENCY: 9.736 cycles
cpu0_STLB TOTAL        ACCESS:      20692 HIT:      17045 MISS:       3647
cpu0_STLB LOAD         ACCESS:      20692 HIT:      17045 MISS:       3647
cpu0_STLB RFO          ACCESS:          0 HIT:          0 MISS:          0
cpu0_STLB PREFETCH     ACCESS:          0 HIT:          0 MISS:          0
cpu0_STLB WRITE        ACCESS:          0 HIT:          0 MISS:          0
cpu0_STLB TRANSLATION  ACCESS:          0 HIT:          0 MISS:          0
cpu0_STLB PREFETCH REQUESTED:          0 ISSUED:          0 USEFUL:          0 USELESS:          0
cpu0_STLB AVERAGE MISS LATENCY: 120.8 cycles

DRAM Statistics

Channel 0 RQ ROW_BUFFER_HIT:      36774
  ROW_BUFFER_MISS:      33049
 AVG DBUS CONGESTED CYCLE: 3.978
WQ ROW_BUFFER_HIT: Channel 0 
  ROW_BUFFER_MISS:       3603
  FULL:      22282
