WARNING: physical memory size is smaller than virtual memory size.

*** ChampSim Multicore Out-of-Order Simulator ***
Warmup Instructions: 25000000
Simulation Instructions: 100000000
Number of CPUs: 1
Page size: 4096

[L1D] Demand IPV: 1 2 2 1 4 Prefetch IPV: 1 2 1 1 4
[L1I] Demand IPV: 1 2 2 1 4 Prefetch IPV: 1 2 1 1 4
[L2C] Demand IPV: 1 2 2 1 4 Prefetch IPV: 1 2 1 1 4
[LLC] Demand IPV: 1 2 2 1 4 Prefetch IPV: 1 2 1 1 4
Off-chip DRAM Size: 4 GiB Channels: 1 Width: 64-bit Data Race: 3200 MT/s
Heartbeat CPU 0 instructions: 10000000 cycles: 2596412 heartbeat IPC: 3.851 cumulative IPC: 3.851 (Simulation time: 00 hr 00 min 15 sec)
Heartbeat CPU 0 instructions: 20000001 cycles: 5192257 heartbeat IPC: 3.852 cumulative IPC: 3.852 (Simulation time: 00 hr 00 min 31 sec)
Warmup finished CPU 0 instructions: 25000002 cycles: 6489790 cumulative IPC: 3.852 (Simulation time: 00 hr 00 min 39 sec)
Warmup complete CPU 0 instructions: 25000002 cycles: 6489790 cumulative IPC: 3.852 (Simulation time: 00 hr 00 min 39 sec)
Heartbeat CPU 0 instructions: 30000004 cycles: 7963165 heartbeat IPC: 3.609 cumulative IPC: 3.394 (Simulation time: 00 hr 00 min 49 sec)
Heartbeat CPU 0 instructions: 40000001 cycles: 10904277 heartbeat IPC: 3.4 cumulative IPC: 3.398 (Simulation time: 00 hr 01 min 08 sec)
Heartbeat CPU 0 instructions: 50000004 cycles: 13849266 heartbeat IPC: 3.396 cumulative IPC: 3.397 (Simulation time: 00 hr 01 min 28 sec)
Heartbeat CPU 0 instructions: 60000000 cycles: 16787950 heartbeat IPC: 3.403 cumulative IPC: 3.399 (Simulation time: 00 hr 01 min 47 sec)
Heartbeat CPU 0 instructions: 70000004 cycles: 19719486 heartbeat IPC: 3.411 cumulative IPC: 3.401 (Simulation time: 00 hr 02 min 06 sec)
Heartbeat CPU 0 instructions: 80000004 cycles: 22652336 heartbeat IPC: 3.41 cumulative IPC: 3.403 (Simulation time: 00 hr 02 min 25 sec)
Heartbeat CPU 0 instructions: 90000000 cycles: 25592085 heartbeat IPC: 3.402 cumulative IPC: 3.403 (Simulation time: 00 hr 02 min 45 sec)
Heartbeat CPU 0 instructions: 100000001 cycles: 28524463 heartbeat IPC: 3.41 cumulative IPC: 3.404 (Simulation time: 00 hr 03 min 04 sec)
*** Reached end of trace: (0, "../traces/secret_traces/crypto/crypto34.champsimtrace.xz")
Heartbeat CPU 0 instructions: 110000003 cycles: 31457951 heartbeat IPC: 3.409 cumulative IPC: 3.404 (Simulation time: 00 hr 03 min 23 sec)
Heartbeat CPU 0 instructions: 120000001 cycles: 34382173 heartbeat IPC: 3.42 cumulative IPC: 3.406 (Simulation time: 00 hr 03 min 42 sec)
Simulation finished CPU 0 instructions: 100000002 cycles: 29353751 cumulative IPC: 3.407 (Simulation time: 00 hr 03 min 52 sec)
Simulation complete CPU 0 instructions: 100000002 cycles: 29353751 cumulative IPC: 3.407 (Simulation time: 00 hr 03 min 52 sec)

ChampSim completed all CPUs

=== Simulation ===
CPU 0 runs ../traces/secret_traces/crypto/crypto34.champsimtrace.xz
Region of Interest Statistics

CPU 0 cumulative IPC: 3.407 instructions: 100000002 cycles: 29353751
CPU 0 Branch Prediction Accuracy: 99.03% MPKI: 2.221 Average ROB Occupancy at Mispredict: 33.78
Branch type MPKI
BRANCH_DIRECT_JUMP: 6e-05
BRANCH_INDIRECT: 0.208
BRANCH_CONDITIONAL: 2
BRANCH_DIRECT_CALL: 4e-05
BRANCH_INDIRECT_CALL: 0.00812
BRANCH_RETURN: 0.00338

L1D TOTAL        ACCESS:   11974913 HIT:   11843640 MISS:     131273
L1D LOAD         ACCESS:    9639285 HIT:    9608678 MISS:      30607
L1D RFO          ACCESS:          0 HIT:          0 MISS:          0
L1D PREFETCH     ACCESS:          0 HIT:          0 MISS:          0
L1D WRITE        ACCESS:    2335440 HIT:    2234796 MISS:     100644
L1D TRANSLATION  ACCESS:        188 HIT:        166 MISS:         22
L1D PREFETCH REQUESTED:          0 ISSUED:          0 USEFUL:          0 USELESS:          0
L1D AVERAGE MISS LATENCY: 6.962 cycles
L1I TOTAL        ACCESS:     149871 HIT:     113974 MISS:      35897
L1I LOAD         ACCESS:     149871 HIT:     113974 MISS:      35897
L1I RFO          ACCESS:          0 HIT:          0 MISS:          0
L1I PREFETCH     ACCESS:          0 HIT:          0 MISS:          0
L1I WRITE        ACCESS:          0 HIT:          0 MISS:          0
L1I TRANSLATION  ACCESS:          0 HIT:          0 MISS:          0
L1I PREFETCH REQUESTED:          0 ISSUED:          0 USEFUL:          0 USELESS:          0
L1I AVERAGE MISS LATENCY: 5.793 cycles
L2C TOTAL        ACCESS:      66234 HIT:      48794 MISS:      17440
L2C LOAD         ACCESS:      36095 HIT:      31955 MISS:       4140
L2C RFO          ACCESS:      13244 HIT:        429 MISS:      12815
L2C PREFETCH     ACCESS:          0 HIT:          0 MISS:          0
L2C WRITE        ACCESS:      16873 HIT:      16394 MISS:        479
L2C TRANSLATION  ACCESS:         22 HIT:         16 MISS:          6
L2C PREFETCH REQUESTED:          0 ISSUED:          0 USEFUL:          0 USELESS:          0
L2C AVERAGE MISS LATENCY: 63.58 cycles
LLC TOTAL        ACCESS:      29650 HIT:      17884 MISS:      11766
LLC LOAD         ACCESS:       4140 HIT:       1699 MISS:       2441
LLC RFO          ACCESS:      12815 HIT:       3495 MISS:       9320
LLC PREFETCH     ACCESS:          0 HIT:          0 MISS:          0
LLC WRITE        ACCESS:      12689 HIT:      12689 MISS:          0
LLC TRANSLATION  ACCESS:          6 HIT:          1 MISS:          5
LLC PREFETCH REQUESTED:          0 ISSUED:          0 USEFUL:          0 USELESS:          0
LLC AVERAGE MISS LATENCY: 64.4 cycles
cpu0_DTLB TOTAL        ACCESS:   11005566 HIT:   10996582 MISS:       8984
cpu0_DTLB LOAD         ACCESS:   11005566 HIT:   10996582 MISS:       8984
cpu0_DTLB RFO          ACCESS:          0 HIT:          0 MISS:          0
cpu0_DTLB PREFETCH     ACCESS:          0 HIT:          0 MISS:          0
cpu0_DTLB WRITE        ACCESS:          0 HIT:          0 MISS:          0
cpu0_DTLB TRANSLATION  ACCESS:          0 HIT:          0 MISS:          0
cpu0_DTLB PREFETCH REQUESTED:          0 ISSUED:          0 USEFUL:          0 USELESS:          0
cpu0_DTLB AVERAGE MISS LATENCY: 6.701 cycles
cpu0_ITLB TOTAL        ACCESS:     134317 HIT:     127882 MISS:       6435
cpu0_ITLB LOAD         ACCESS:     134317 HIT:     127882 MISS:       6435
cpu0_ITLB RFO          ACCESS:          0 HIT:          0 MISS:          0
cpu0_ITLB PREFETCH     ACCESS:          0 HIT:          0 MISS:          0
cpu0_ITLB WRITE        ACCESS:          0 HIT:          0 MISS:          0
cpu0_ITLB TRANSLATION  ACCESS:          0 HIT:          0 MISS:          0
cpu0_ITLB PREFETCH REQUESTED:          0 ISSUED:          0 USEFUL:          0 USELESS:          0
cpu0_ITLB AVERAGE MISS LATENCY: 2.173 cycles
cpu0_STLB TOTAL        ACCESS:       7244 HIT:       7056 MISS:        188
cpu0_STLB LOAD         ACCESS:       7244 HIT:       7056 MISS:        188
cpu0_STLB RFO          ACCESS:          0 HIT:          0 MISS:          0
cpu0_STLB PREFETCH     ACCESS:          0 HIT:          0 MISS:          0
cpu0_STLB WRITE        ACCESS:          0 HIT:          0 MISS:          0
cpu0_STLB TRANSLATION  ACCESS:          0 HIT:          0 MISS:          0
cpu0_STLB PREFETCH REQUESTED:          0 ISSUED:          0 USEFUL:          0 USELESS:          0
cpu0_STLB AVERAGE MISS LATENCY: 212.6 cycles

DRAM Statistics

Channel 0 RQ ROW_BUFFER_HIT:      11620
  ROW_BUFFER_MISS:        146
 AVG DBUS CONGESTED CYCLE: 3.285
WQ ROW_BUFFER_HIT: Channel 0 
  ROW_BUFFER_MISS:          0
  FULL:          0
