WARNING: physical memory size is smaller than virtual memory size.

*** ChampSim Multicore Out-of-Order Simulator ***
Warmup Instructions: 25000000
Simulation Instructions: 100000000
Number of CPUs: 1
Page size: 4096

[L1D] Demand IPV: 1 2 2 1 4 Prefetch IPV: 1 2 1 1 4
[L1I] Demand IPV: 1 2 2 1 4 Prefetch IPV: 1 2 1 1 4
[L2C] Demand IPV: 1 2 2 1 4 Prefetch IPV: 1 2 1 1 4
[LLC] Demand IPV: 1 2 2 1 4 Prefetch IPV: 1 2 1 1 4
Off-chip DRAM Size: 4 GiB Channels: 1 Width: 64-bit Data Race: 3200 MT/s
Heartbeat CPU 0 instructions: 10000003 cycles: 2500100 heartbeat IPC: 4 cumulative IPC: 4 (Simulation time: 00 hr 00 min 22 sec)
Heartbeat CPU 0 instructions: 20000003 cycles: 5000125 heartbeat IPC: 4 cumulative IPC: 4 (Simulation time: 00 hr 00 min 45 sec)
Warmup finished CPU 0 instructions: 25000003 cycles: 6250126 cumulative IPC: 4 (Simulation time: 00 hr 00 min 57 sec)
Warmup complete CPU 0 instructions: 25000003 cycles: 6250126 cumulative IPC: 4 (Simulation time: 00 hr 00 min 57 sec)
Heartbeat CPU 0 instructions: 30000002 cycles: 14872642 heartbeat IPC: 1.013 cumulative IPC: 0.5799 (Simulation time: 00 hr 01 min 30 sec)
Heartbeat CPU 0 instructions: 40000003 cycles: 32076720 heartbeat IPC: 0.5813 cumulative IPC: 0.5808 (Simulation time: 00 hr 02 min 37 sec)
Heartbeat CPU 0 instructions: 50000000 cycles: 49227481 heartbeat IPC: 0.5831 cumulative IPC: 0.5817 (Simulation time: 00 hr 03 min 44 sec)
Heartbeat CPU 0 instructions: 60000001 cycles: 66524302 heartbeat IPC: 0.5781 cumulative IPC: 0.5807 (Simulation time: 00 hr 04 min 51 sec)
Heartbeat CPU 0 instructions: 70000003 cycles: 83798366 heartbeat IPC: 0.5789 cumulative IPC: 0.5803 (Simulation time: 00 hr 05 min 58 sec)
Heartbeat CPU 0 instructions: 80000000 cycles: 101073363 heartbeat IPC: 0.5789 cumulative IPC: 0.58 (Simulation time: 00 hr 07 min 04 sec)
Heartbeat CPU 0 instructions: 90000003 cycles: 118421768 heartbeat IPC: 0.5764 cumulative IPC: 0.5795 (Simulation time: 00 hr 08 min 12 sec)
Heartbeat CPU 0 instructions: 100000003 cycles: 135619313 heartbeat IPC: 0.5815 cumulative IPC: 0.5797 (Simulation time: 00 hr 09 min 18 sec)
*** Reached end of trace: (0, "../traces/secret_traces/srv/srv192.champsimtrace.xz")
Heartbeat CPU 0 instructions: 110000000 cycles: 152829367 heartbeat IPC: 0.5811 cumulative IPC: 0.5799 (Simulation time: 00 hr 10 min 25 sec)
Heartbeat CPU 0 instructions: 120000000 cycles: 170140666 heartbeat IPC: 0.5777 cumulative IPC: 0.5797 (Simulation time: 00 hr 11 min 32 sec)
Simulation finished CPU 0 instructions: 100000001 cycles: 172486909 cumulative IPC: 0.5798 (Simulation time: 00 hr 12 min 05 sec)
Simulation complete CPU 0 instructions: 100000001 cycles: 172486909 cumulative IPC: 0.5798 (Simulation time: 00 hr 12 min 05 sec)

ChampSim completed all CPUs

=== Simulation ===
CPU 0 runs ../traces/secret_traces/srv/srv192.champsimtrace.xz
Region of Interest Statistics

CPU 0 cumulative IPC: 0.5798 instructions: 100000001 cycles: 172486909
CPU 0 Branch Prediction Accuracy: 67.28% MPKI: 57.55 Average ROB Occupancy at Mispredict: 3.602
Branch type MPKI
BRANCH_DIRECT_JUMP: 1.08
BRANCH_INDIRECT: 38.6
BRANCH_CONDITIONAL: 10.8
BRANCH_DIRECT_CALL: 2.92
BRANCH_INDIRECT_CALL: 2.28
BRANCH_RETURN: 1.82

L1D TOTAL        ACCESS:   34586941 HIT:   31259125 MISS:    3327816
L1D LOAD         ACCESS:   21116397 HIT:   19322992 MISS:    1793405
L1D RFO          ACCESS:          0 HIT:          0 MISS:          0
L1D PREFETCH     ACCESS:          0 HIT:          0 MISS:          0
L1D WRITE        ACCESS:   13466275 HIT:   11935920 MISS:    1530355
L1D TRANSLATION  ACCESS:       4269 HIT:        213 MISS:       4056
L1D PREFETCH REQUESTED:          0 ISSUED:          0 USEFUL:          0 USELESS:          0
L1D AVERAGE MISS LATENCY: 10.3 cycles
L1I TOTAL        ACCESS:   12106663 HIT:    4989430 MISS:    7117233
L1I LOAD         ACCESS:   12106663 HIT:    4989430 MISS:    7117233
L1I RFO          ACCESS:          0 HIT:          0 MISS:          0
L1I PREFETCH     ACCESS:          0 HIT:          0 MISS:          0
L1I WRITE        ACCESS:          0 HIT:          0 MISS:          0
L1I TRANSLATION  ACCESS:          0 HIT:          0 MISS:          0
L1I PREFETCH REQUESTED:          0 ISSUED:          0 USEFUL:          0 USELESS:          0
L1I AVERAGE MISS LATENCY: 9.408 cycles
L2C TOTAL        ACCESS:    8744839 HIT:    7948164 MISS:     796675
L2C LOAD         ACCESS:    7247146 HIT:    6565928 MISS:     681218
L2C RFO          ACCESS:     547242 HIT:     474021 MISS:      73221
L2C PREFETCH     ACCESS:          0 HIT:          0 MISS:          0
L2C WRITE        ACCESS:     946398 HIT:     907333 MISS:      39065
L2C TRANSLATION  ACCESS:       4053 HIT:        882 MISS:       3171
L2C PREFETCH REQUESTED:          0 ISSUED:          0 USEFUL:          0 USELESS:          0
L2C AVERAGE MISS LATENCY: 31.91 cycles
LLC TOTAL        ACCESS:     864859 HIT:     816215 MISS:      48644
LLC LOAD         ACCESS:     681218 HIT:     661046 MISS:      20172
LLC RFO          ACCESS:      73221 HIT:      49307 MISS:      23914
LLC PREFETCH     ACCESS:          0 HIT:          0 MISS:          0
LLC WRITE        ACCESS:     107249 HIT:     103487 MISS:       3762
LLC TRANSLATION  ACCESS:       3171 HIT:       2375 MISS:        796
LLC PREFETCH REQUESTED:          0 ISSUED:          0 USEFUL:          0 USELESS:          0
LLC AVERAGE MISS LATENCY: 210.1 cycles
cpu0_DTLB TOTAL        ACCESS:   27666693 HIT:   26600481 MISS:    1066212
cpu0_DTLB LOAD         ACCESS:   27666693 HIT:   26600481 MISS:    1066212
cpu0_DTLB RFO          ACCESS:          0 HIT:          0 MISS:          0
cpu0_DTLB PREFETCH     ACCESS:          0 HIT:          0 MISS:          0
cpu0_DTLB WRITE        ACCESS:          0 HIT:          0 MISS:          0
cpu0_DTLB TRANSLATION  ACCESS:          0 HIT:          0 MISS:          0
cpu0_DTLB PREFETCH REQUESTED:          0 ISSUED:          0 USEFUL:          0 USELESS:          0
cpu0_DTLB AVERAGE MISS LATENCY: 6.859 cycles
cpu0_ITLB TOTAL        ACCESS:   10790945 HIT:    8863473 MISS:    1927472
cpu0_ITLB LOAD         ACCESS:   10790945 HIT:    8863473 MISS:    1927472
cpu0_ITLB RFO          ACCESS:          0 HIT:          0 MISS:          0
cpu0_ITLB PREFETCH     ACCESS:          0 HIT:          0 MISS:          0
cpu0_ITLB WRITE        ACCESS:          0 HIT:          0 MISS:          0
cpu0_ITLB TRANSLATION  ACCESS:          0 HIT:          0 MISS:          0
cpu0_ITLB PREFETCH REQUESTED:          0 ISSUED:          0 USEFUL:          0 USELESS:          0
cpu0_ITLB AVERAGE MISS LATENCY: 3.146 cycles
cpu0_STLB TOTAL        ACCESS:    1864570 HIT:    1860465 MISS:       4105
cpu0_STLB LOAD         ACCESS:    1864570 HIT:    1860465 MISS:       4105
cpu0_STLB RFO          ACCESS:          0 HIT:          0 MISS:          0
cpu0_STLB PREFETCH     ACCESS:          0 HIT:          0 MISS:          0
cpu0_STLB WRITE        ACCESS:          0 HIT:          0 MISS:          0
cpu0_STLB TRANSLATION  ACCESS:          0 HIT:          0 MISS:          0
cpu0_STLB PREFETCH REQUESTED:          0 ISSUED:          0 USEFUL:          0 USELESS:          0
cpu0_STLB AVERAGE MISS LATENCY: 106.8 cycles

DRAM Statistics

Channel 0 RQ ROW_BUFFER_HIT:      22435
  ROW_BUFFER_MISS:      22437
 AVG DBUS CONGESTED CYCLE: 3.959
WQ ROW_BUFFER_HIT: Channel 0 
  ROW_BUFFER_MISS:        898
  FULL:      13845
