WARNING: physical memory size is smaller than virtual memory size.

*** ChampSim Multicore Out-of-Order Simulator ***
Warmup Instructions: 25000000
Simulation Instructions: 100000000
Number of CPUs: 1
Page size: 4096

[L1D] Demand IPV: 1 2 2 1 4 Prefetch IPV: 1 2 1 1 4
[L1I] Demand IPV: 1 2 2 1 4 Prefetch IPV: 1 2 1 1 4
[L2C] Demand IPV: 1 2 2 1 4 Prefetch IPV: 1 2 1 1 4
[LLC] Demand IPV: 1 2 2 1 4 Prefetch IPV: 1 2 1 1 4
Off-chip DRAM Size: 4 GiB Channels: 1 Width: 64-bit Data Race: 3200 MT/s
Heartbeat CPU 0 instructions: 10000001 cycles: 2500157 heartbeat IPC: 4 cumulative IPC: 4 (Simulation time: 00 hr 00 min 23 sec)
Heartbeat CPU 0 instructions: 20000003 cycles: 5000350 heartbeat IPC: 4 cumulative IPC: 4 (Simulation time: 00 hr 00 min 47 sec)
Warmup finished CPU 0 instructions: 25000003 cycles: 6250609 cumulative IPC: 4 (Simulation time: 00 hr 00 min 59 sec)
Warmup complete CPU 0 instructions: 25000003 cycles: 6250609 cumulative IPC: 4 (Simulation time: 00 hr 00 min 59 sec)
Heartbeat CPU 0 instructions: 30000001 cycles: 11112693 heartbeat IPC: 1.636 cumulative IPC: 1.028 (Simulation time: 00 hr 01 min 23 sec)
Heartbeat CPU 0 instructions: 40000003 cycles: 20866033 heartbeat IPC: 1.025 cumulative IPC: 1.026 (Simulation time: 00 hr 02 min 11 sec)
Heartbeat CPU 0 instructions: 50000002 cycles: 30630101 heartbeat IPC: 1.024 cumulative IPC: 1.025 (Simulation time: 00 hr 02 min 59 sec)
Heartbeat CPU 0 instructions: 60000001 cycles: 40418725 heartbeat IPC: 1.022 cumulative IPC: 1.024 (Simulation time: 00 hr 03 min 48 sec)
Heartbeat CPU 0 instructions: 70000001 cycles: 50179919 heartbeat IPC: 1.024 cumulative IPC: 1.024 (Simulation time: 00 hr 04 min 36 sec)
Heartbeat CPU 0 instructions: 80000000 cycles: 59999472 heartbeat IPC: 1.018 cumulative IPC: 1.023 (Simulation time: 00 hr 05 min 25 sec)
Heartbeat CPU 0 instructions: 90000000 cycles: 69779985 heartbeat IPC: 1.022 cumulative IPC: 1.023 (Simulation time: 00 hr 06 min 13 sec)
Heartbeat CPU 0 instructions: 100000003 cycles: 79571560 heartbeat IPC: 1.021 cumulative IPC: 1.023 (Simulation time: 00 hr 07 min 01 sec)
*** Reached end of trace: (0, "../traces/secret_traces/srv/srv315.champsimtrace.xz")
Heartbeat CPU 0 instructions: 110000000 cycles: 89131526 heartbeat IPC: 1.046 cumulative IPC: 1.026 (Simulation time: 00 hr 07 min 49 sec)
Heartbeat CPU 0 instructions: 120000002 cycles: 98629829 heartbeat IPC: 1.053 cumulative IPC: 1.028 (Simulation time: 00 hr 08 min 37 sec)
Simulation finished CPU 0 instructions: 100000003 cycles: 97180205 cumulative IPC: 1.029 (Simulation time: 00 hr 09 min 01 sec)
Simulation complete CPU 0 instructions: 100000003 cycles: 97180205 cumulative IPC: 1.029 (Simulation time: 00 hr 09 min 01 sec)

ChampSim completed all CPUs

=== Simulation ===
CPU 0 runs ../traces/secret_traces/srv/srv315.champsimtrace.xz
Region of Interest Statistics

CPU 0 cumulative IPC: 1.029 instructions: 100000003 cycles: 97180205
CPU 0 Branch Prediction Accuracy: 86.93% MPKI: 22.45 Average ROB Occupancy at Mispredict: 11.06
Branch type MPKI
BRANCH_DIRECT_JUMP: 0.00025
BRANCH_INDIRECT: 16
BRANCH_CONDITIONAL: 5.2
BRANCH_DIRECT_CALL: 0.00071
BRANCH_INDIRECT_CALL: 1.25
BRANCH_RETURN: 0.019

L1D TOTAL        ACCESS:   31360030 HIT:   29945799 MISS:    1414231
L1D LOAD         ACCESS:   19019118 HIT:   17957970 MISS:    1061148
L1D RFO          ACCESS:          0 HIT:          0 MISS:          0
L1D PREFETCH     ACCESS:          0 HIT:          0 MISS:          0
L1D WRITE        ACCESS:   12325704 HIT:   11987376 MISS:     338328
L1D TRANSLATION  ACCESS:      15208 HIT:        453 MISS:      14755
L1D PREFETCH REQUESTED:          0 ISSUED:          0 USEFUL:          0 USELESS:          0
L1D AVERAGE MISS LATENCY: 14.66 cycles
L1I TOTAL        ACCESS:   15832662 HIT:    7375217 MISS:    8457445
L1I LOAD         ACCESS:   15832662 HIT:    7375217 MISS:    8457445
L1I RFO          ACCESS:          0 HIT:          0 MISS:          0
L1I PREFETCH     ACCESS:          0 HIT:          0 MISS:          0
L1I WRITE        ACCESS:          0 HIT:          0 MISS:          0
L1I TRANSLATION  ACCESS:          0 HIT:          0 MISS:          0
L1I PREFETCH REQUESTED:          0 ISSUED:          0 USEFUL:          0 USELESS:          0
L1I AVERAGE MISS LATENCY: 6.709 cycles
L2C TOTAL        ACCESS:    7440280 HIT:    7108317 MISS:     331963
L2C LOAD         ACCESS:    6842007 HIT:    6590177 MISS:     251830
L2C RFO          ACCESS:     129165 HIT:      83725 MISS:      45440
L2C PREFETCH     ACCESS:          0 HIT:          0 MISS:          0
L2C WRITE        ACCESS:     454665 HIT:     431098 MISS:      23567
L2C TRANSLATION  ACCESS:      14443 HIT:       3317 MISS:      11126
L2C PREFETCH REQUESTED:          0 ISSUED:          0 USEFUL:          0 USELESS:          0
L2C AVERAGE MISS LATENCY: 38.48 cycles
LLC TOTAL        ACCESS:     442060 HIT:     397196 MISS:      44864
LLC LOAD         ACCESS:     251830 HIT:     222437 MISS:      29393
LLC RFO          ACCESS:      45440 HIT:      37107 MISS:       8333
LLC PREFETCH     ACCESS:          0 HIT:          0 MISS:          0
LLC WRITE        ACCESS:     133664 HIT:     130929 MISS:       2735
LLC TRANSLATION  ACCESS:      11126 HIT:       6723 MISS:       4403
LLC PREFETCH REQUESTED:          0 ISSUED:          0 USEFUL:          0 USELESS:          0
LLC AVERAGE MISS LATENCY: 146.3 cycles
cpu0_DTLB TOTAL        ACCESS:   24216243 HIT:   22864265 MISS:    1351978
cpu0_DTLB LOAD         ACCESS:   24216243 HIT:   22864265 MISS:    1351978
cpu0_DTLB RFO          ACCESS:          0 HIT:          0 MISS:          0
cpu0_DTLB PREFETCH     ACCESS:          0 HIT:          0 MISS:          0
cpu0_DTLB WRITE        ACCESS:          0 HIT:          0 MISS:          0
cpu0_DTLB TRANSLATION  ACCESS:          0 HIT:          0 MISS:          0
cpu0_DTLB PREFETCH REQUESTED:          0 ISSUED:          0 USEFUL:          0 USELESS:          0
cpu0_DTLB AVERAGE MISS LATENCY: 6.778 cycles
cpu0_ITLB TOTAL        ACCESS:   13788612 HIT:   10476496 MISS:    3312116
cpu0_ITLB LOAD         ACCESS:   13788612 HIT:   10476496 MISS:    3312116
cpu0_ITLB RFO          ACCESS:          0 HIT:          0 MISS:          0
cpu0_ITLB PREFETCH     ACCESS:          0 HIT:          0 MISS:          0
cpu0_ITLB WRITE        ACCESS:          0 HIT:          0 MISS:          0
cpu0_ITLB TRANSLATION  ACCESS:          0 HIT:          0 MISS:          0
cpu0_ITLB PREFETCH REQUESTED:          0 ISSUED:          0 USEFUL:          0 USELESS:          0
cpu0_ITLB AVERAGE MISS LATENCY: 1.765 cycles
cpu0_STLB TOTAL        ACCESS:    2198529 HIT:    2187334 MISS:      11195
cpu0_STLB LOAD         ACCESS:    2198529 HIT:    2187334 MISS:      11195
cpu0_STLB RFO          ACCESS:          0 HIT:          0 MISS:          0
cpu0_STLB PREFETCH     ACCESS:          0 HIT:          0 MISS:          0
cpu0_STLB WRITE        ACCESS:          0 HIT:          0 MISS:          0
cpu0_STLB TRANSLATION  ACCESS:          0 HIT:          0 MISS:          0
cpu0_STLB PREFETCH REQUESTED:          0 ISSUED:          0 USEFUL:          0 USELESS:          0
cpu0_STLB AVERAGE MISS LATENCY: 188 cycles

DRAM Statistics

Channel 0 RQ ROW_BUFFER_HIT:      13364
  ROW_BUFFER_MISS:      28764
 AVG DBUS CONGESTED CYCLE: 3.94
WQ ROW_BUFFER_HIT: Channel 0 
  ROW_BUFFER_MISS:       1625
  FULL:       6393
