WARNING: physical memory size is smaller than virtual memory size.

*** ChampSim Multicore Out-of-Order Simulator ***
Warmup Instructions: 25000000
Simulation Instructions: 100000000
Number of CPUs: 1
Page size: 4096

[L1D] Demand IPV: 1 2 2 1 4 Prefetch IPV: 1 2 1 1 4
[L1I] Demand IPV: 1 2 2 1 4 Prefetch IPV: 1 2 1 1 4
[L2C] Demand IPV: 1 2 2 1 4 Prefetch IPV: 1 2 1 1 4
[LLC] Demand IPV: 1 2 2 1 4 Prefetch IPV: 1 2 1 1 4
Off-chip DRAM Size: 4 GiB Channels: 1 Width: 64-bit Data Race: 3200 MT/s
Heartbeat CPU 0 instructions: 10000003 cycles: 2500098 heartbeat IPC: 4 cumulative IPC: 4 (Simulation time: 00 hr 00 min 23 sec)
Heartbeat CPU 0 instructions: 20000003 cycles: 5000098 heartbeat IPC: 4 cumulative IPC: 4 (Simulation time: 00 hr 00 min 47 sec)
Warmup finished CPU 0 instructions: 25000003 cycles: 6250099 cumulative IPC: 4 (Simulation time: 00 hr 00 min 58 sec)
Warmup complete CPU 0 instructions: 25000003 cycles: 6250099 cumulative IPC: 4 (Simulation time: 00 hr 00 min 58 sec)
Heartbeat CPU 0 instructions: 30000001 cycles: 14470130 heartbeat IPC: 1.056 cumulative IPC: 0.6083 (Simulation time: 00 hr 01 min 31 sec)
Heartbeat CPU 0 instructions: 40000001 cycles: 30835753 heartbeat IPC: 0.611 cumulative IPC: 0.6101 (Simulation time: 00 hr 02 min 37 sec)
Heartbeat CPU 0 instructions: 50000000 cycles: 47192118 heartbeat IPC: 0.6114 cumulative IPC: 0.6106 (Simulation time: 00 hr 03 min 42 sec)
Heartbeat CPU 0 instructions: 60000002 cycles: 63459946 heartbeat IPC: 0.6147 cumulative IPC: 0.6118 (Simulation time: 00 hr 04 min 48 sec)
Heartbeat CPU 0 instructions: 70000000 cycles: 79772456 heartbeat IPC: 0.613 cumulative IPC: 0.6121 (Simulation time: 00 hr 05 min 53 sec)
Heartbeat CPU 0 instructions: 80000001 cycles: 96017210 heartbeat IPC: 0.6156 cumulative IPC: 0.6127 (Simulation time: 00 hr 06 min 58 sec)
*** Reached end of trace: (0, "../traces/secret_traces/srv/srv42.champsimtrace.xz")
Heartbeat CPU 0 instructions: 90000001 cycles: 112283751 heartbeat IPC: 0.6148 cumulative IPC: 0.613 (Simulation time: 00 hr 08 min 03 sec)
Heartbeat CPU 0 instructions: 100000000 cycles: 128607324 heartbeat IPC: 0.6126 cumulative IPC: 0.613 (Simulation time: 00 hr 09 min 09 sec)
Heartbeat CPU 0 instructions: 110000000 cycles: 144946386 heartbeat IPC: 0.612 cumulative IPC: 0.6128 (Simulation time: 00 hr 10 min 14 sec)
Heartbeat CPU 0 instructions: 120000000 cycles: 161276291 heartbeat IPC: 0.6124 cumulative IPC: 0.6128 (Simulation time: 00 hr 11 min 19 sec)
Simulation finished CPU 0 instructions: 100000000 cycles: 163187232 cumulative IPC: 0.6128 (Simulation time: 00 hr 11 min 52 sec)
Simulation complete CPU 0 instructions: 100000000 cycles: 163187232 cumulative IPC: 0.6128 (Simulation time: 00 hr 11 min 52 sec)

ChampSim completed all CPUs

=== Simulation ===
CPU 0 runs ../traces/secret_traces/srv/srv42.champsimtrace.xz
Region of Interest Statistics

CPU 0 cumulative IPC: 0.6128 instructions: 100000000 cycles: 163187232
CPU 0 Branch Prediction Accuracy: 70.71% MPKI: 52 Average ROB Occupancy at Mispredict: 3.496
Branch type MPKI
BRANCH_DIRECT_JUMP: 0.532
BRANCH_INDIRECT: 36.1
BRANCH_CONDITIONAL: 10.1
BRANCH_DIRECT_CALL: 1.64
BRANCH_INDIRECT_CALL: 2.29
BRANCH_RETURN: 1.35

L1D TOTAL        ACCESS:   34898605 HIT:   31195262 MISS:    3703343
L1D LOAD         ACCESS:   20896252 HIT:   18829246 MISS:    2067006
L1D RFO          ACCESS:          0 HIT:          0 MISS:          0
L1D PREFETCH     ACCESS:          0 HIT:          0 MISS:          0
L1D WRITE        ACCESS:   14001663 HIT:   12366013 MISS:    1635650
L1D TRANSLATION  ACCESS:        690 HIT:          3 MISS:        687
L1D PREFETCH REQUESTED:          0 ISSUED:          0 USEFUL:          0 USELESS:          0
L1D AVERAGE MISS LATENCY: 6.756 cycles
L1I TOTAL        ACCESS:   13609540 HIT:    5297641 MISS:    8311899
L1I LOAD         ACCESS:   13609540 HIT:    5297641 MISS:    8311899
L1I RFO          ACCESS:          0 HIT:          0 MISS:          0
L1I PREFETCH     ACCESS:          0 HIT:          0 MISS:          0
L1I WRITE        ACCESS:          0 HIT:          0 MISS:          0
L1I TRANSLATION  ACCESS:          0 HIT:          0 MISS:          0
L1I PREFETCH REQUESTED:          0 ISSUED:          0 USEFUL:          0 USELESS:          0
L1I AVERAGE MISS LATENCY: 8.346 cycles
L2C TOTAL        ACCESS:    9997651 HIT:    9638349 MISS:     359302
L2C LOAD         ACCESS:    8297187 HIT:    7950553 MISS:     346634
L2C RFO          ACCESS:     588401 HIT:     582042 MISS:       6359
L2C PREFETCH     ACCESS:          0 HIT:          0 MISS:          0
L2C WRITE        ACCESS:    1111376 HIT:    1105363 MISS:       6013
L2C TRANSLATION  ACCESS:        687 HIT:        391 MISS:        296
L2C PREFETCH REQUESTED:          0 ISSUED:          0 USEFUL:          0 USELESS:          0
L2C AVERAGE MISS LATENCY: 24.31 cycles
LLC TOTAL        ACCESS:     361135 HIT:     352566 MISS:       8569
LLC LOAD         ACCESS:     346634 HIT:     338173 MISS:       8461
LLC RFO          ACCESS:       6359 HIT:       6325 MISS:         34
LLC PREFETCH     ACCESS:          0 HIT:          0 MISS:          0
LLC WRITE        ACCESS:       7846 HIT:       7845 MISS:          1
LLC TRANSLATION  ACCESS:        296 HIT:        223 MISS:         73
LLC PREFETCH REQUESTED:          0 ISSUED:          0 USEFUL:          0 USELESS:          0
LLC AVERAGE MISS LATENCY: 193.9 cycles
cpu0_DTLB TOTAL        ACCESS:   27842274 HIT:   26715922 MISS:    1126352
cpu0_DTLB LOAD         ACCESS:   27842274 HIT:   26715922 MISS:    1126352
cpu0_DTLB RFO          ACCESS:          0 HIT:          0 MISS:          0
cpu0_DTLB PREFETCH     ACCESS:          0 HIT:          0 MISS:          0
cpu0_DTLB WRITE        ACCESS:          0 HIT:          0 MISS:          0
cpu0_DTLB TRANSLATION  ACCESS:          0 HIT:          0 MISS:          0
cpu0_DTLB PREFETCH REQUESTED:          0 ISSUED:          0 USEFUL:          0 USELESS:          0
cpu0_DTLB AVERAGE MISS LATENCY: 6.745 cycles
cpu0_ITLB TOTAL        ACCESS:   12067053 HIT:    9697162 MISS:    2369891
cpu0_ITLB LOAD         ACCESS:   12067053 HIT:    9697162 MISS:    2369891
cpu0_ITLB RFO          ACCESS:          0 HIT:          0 MISS:          0
cpu0_ITLB PREFETCH     ACCESS:          0 HIT:          0 MISS:          0
cpu0_ITLB WRITE        ACCESS:          0 HIT:          0 MISS:          0
cpu0_ITLB TRANSLATION  ACCESS:          0 HIT:          0 MISS:          0
cpu0_ITLB PREFETCH REQUESTED:          0 ISSUED:          0 USEFUL:          0 USELESS:          0
cpu0_ITLB AVERAGE MISS LATENCY: 2.947 cycles
cpu0_STLB TOTAL        ACCESS:    2116641 HIT:    2115969 MISS:        672
cpu0_STLB LOAD         ACCESS:    2116641 HIT:    2115969 MISS:        672
cpu0_STLB RFO          ACCESS:          0 HIT:          0 MISS:          0
cpu0_STLB PREFETCH     ACCESS:          0 HIT:          0 MISS:          0
cpu0_STLB WRITE        ACCESS:          0 HIT:          0 MISS:          0
cpu0_STLB TRANSLATION  ACCESS:          0 HIT:          0 MISS:          0
cpu0_STLB PREFETCH REQUESTED:          0 ISSUED:          0 USEFUL:          0 USELESS:          0
cpu0_STLB AVERAGE MISS LATENCY: 75.2 cycles

DRAM Statistics

Channel 0 RQ ROW_BUFFER_HIT:       3959
  ROW_BUFFER_MISS:       4609
 AVG DBUS CONGESTED CYCLE: 3.953
WQ ROW_BUFFER_HIT: Channel 0 
  ROW_BUFFER_MISS:          0
  FULL:          0
