WARNING: physical memory size is smaller than virtual memory size.

*** ChampSim Multicore Out-of-Order Simulator ***
Warmup Instructions: 25000000
Simulation Instructions: 100000000
Number of CPUs: 1
Page size: 4096

[L1D] Demand IPV: 1 2 2 1 4 Prefetch IPV: 1 2 1 1 4
[L1I] Demand IPV: 1 2 2 1 4 Prefetch IPV: 1 2 1 1 4
[L2C] Demand IPV: 1 2 2 1 4 Prefetch IPV: 1 2 1 1 4
[LLC] Demand IPV: 1 2 2 1 4 Prefetch IPV: 1 2 1 1 4
Off-chip DRAM Size: 4 GiB Channels: 1 Width: 64-bit Data Race: 3200 MT/s
Heartbeat CPU 0 instructions: 10000001 cycles: 2500172 heartbeat IPC: 4 cumulative IPC: 4 (Simulation time: 00 hr 00 min 23 sec)
Heartbeat CPU 0 instructions: 20000000 cycles: 5000301 heartbeat IPC: 4 cumulative IPC: 4 (Simulation time: 00 hr 00 min 46 sec)
Warmup finished CPU 0 instructions: 25000001 cycles: 6250368 cumulative IPC: 4 (Simulation time: 00 hr 00 min 58 sec)
Warmup complete CPU 0 instructions: 25000001 cycles: 6250368 cumulative IPC: 4 (Simulation time: 00 hr 00 min 58 sec)
Heartbeat CPU 0 instructions: 30000001 cycles: 11154105 heartbeat IPC: 1.625 cumulative IPC: 1.02 (Simulation time: 00 hr 01 min 21 sec)
Heartbeat CPU 0 instructions: 40000001 cycles: 20994022 heartbeat IPC: 1.016 cumulative IPC: 1.017 (Simulation time: 00 hr 02 min 09 sec)
Heartbeat CPU 0 instructions: 50000002 cycles: 30741935 heartbeat IPC: 1.026 cumulative IPC: 1.021 (Simulation time: 00 hr 02 min 56 sec)
Heartbeat CPU 0 instructions: 60000000 cycles: 40457387 heartbeat IPC: 1.029 cumulative IPC: 1.023 (Simulation time: 00 hr 03 min 44 sec)
Heartbeat CPU 0 instructions: 70000000 cycles: 50270465 heartbeat IPC: 1.019 cumulative IPC: 1.022 (Simulation time: 00 hr 04 min 31 sec)
Heartbeat CPU 0 instructions: 80000003 cycles: 60025793 heartbeat IPC: 1.025 cumulative IPC: 1.023 (Simulation time: 00 hr 05 min 19 sec)
Heartbeat CPU 0 instructions: 90000002 cycles: 69761299 heartbeat IPC: 1.027 cumulative IPC: 1.023 (Simulation time: 00 hr 06 min 06 sec)
Heartbeat CPU 0 instructions: 100000003 cycles: 79537115 heartbeat IPC: 1.023 cumulative IPC: 1.023 (Simulation time: 00 hr 06 min 54 sec)
*** Reached end of trace: (0, "../traces/secret_traces/srv/srv444.champsimtrace.xz")
Heartbeat CPU 0 instructions: 110000003 cycles: 89058433 heartbeat IPC: 1.05 cumulative IPC: 1.026 (Simulation time: 00 hr 07 min 41 sec)
Heartbeat CPU 0 instructions: 120000001 cycles: 98609632 heartbeat IPC: 1.047 cumulative IPC: 1.029 (Simulation time: 00 hr 08 min 28 sec)
Simulation finished CPU 0 instructions: 100000000 cycles: 97117058 cumulative IPC: 1.03 (Simulation time: 00 hr 08 min 51 sec)
Simulation complete CPU 0 instructions: 100000000 cycles: 97117058 cumulative IPC: 1.03 (Simulation time: 00 hr 08 min 51 sec)

ChampSim completed all CPUs

=== Simulation ===
CPU 0 runs ../traces/secret_traces/srv/srv444.champsimtrace.xz
Region of Interest Statistics

CPU 0 cumulative IPC: 1.03 instructions: 100000000 cycles: 97117058
CPU 0 Branch Prediction Accuracy: 86.93% MPKI: 22.45 Average ROB Occupancy at Mispredict: 11.04
Branch type MPKI
BRANCH_DIRECT_JUMP: 0.00034
BRANCH_INDIRECT: 16
BRANCH_CONDITIONAL: 5.19
BRANCH_DIRECT_CALL: 0.00086
BRANCH_INDIRECT_CALL: 1.25
BRANCH_RETURN: 0.0214

L1D TOTAL        ACCESS:   31357292 HIT:   29952125 MISS:    1405167
L1D LOAD         ACCESS:   19011443 HIT:   17947531 MISS:    1063912
L1D RFO          ACCESS:          0 HIT:          0 MISS:          0
L1D PREFETCH     ACCESS:          0 HIT:          0 MISS:          0
L1D WRITE        ACCESS:   12330858 HIT:   12004087 MISS:     326771
L1D TRANSLATION  ACCESS:      14991 HIT:        507 MISS:      14484
L1D PREFETCH REQUESTED:          0 ISSUED:          0 USEFUL:          0 USELESS:          0
L1D AVERAGE MISS LATENCY: 14.24 cycles
L1I TOTAL        ACCESS:   15848025 HIT:    7348454 MISS:    8499571
L1I LOAD         ACCESS:   15848025 HIT:    7348454 MISS:    8499571
L1I RFO          ACCESS:          0 HIT:          0 MISS:          0
L1I PREFETCH     ACCESS:          0 HIT:          0 MISS:          0
L1I WRITE        ACCESS:          0 HIT:          0 MISS:          0
L1I TRANSLATION  ACCESS:          0 HIT:          0 MISS:          0
L1I PREFETCH REQUESTED:          0 ISSUED:          0 USEFUL:          0 USELESS:          0
L1I AVERAGE MISS LATENCY: 6.695 cycles
L2C TOTAL        ACCESS:    7473163 HIT:    7157912 MISS:     315251
L2C LOAD         ACCESS:    6877294 HIT:    6633590 MISS:     243704
L2C RFO          ACCESS:     127049 HIT:      87225 MISS:      39824
L2C PREFETCH     ACCESS:          0 HIT:          0 MISS:          0
L2C WRITE        ACCESS:     454680 HIT:     432748 MISS:      21932
L2C TRANSLATION  ACCESS:      14140 HIT:       4349 MISS:       9791
L2C PREFETCH REQUESTED:          0 ISSUED:          0 USEFUL:          0 USELESS:          0
L2C AVERAGE MISS LATENCY: 37.6 cycles
LLC TOTAL        ACCESS:     417989 HIT:     376681 MISS:      41308
LLC LOAD         ACCESS:     243704 HIT:     216237 MISS:      27467
LLC RFO          ACCESS:      39824 HIT:      32471 MISS:       7353
LLC PREFETCH     ACCESS:          0 HIT:          0 MISS:          0
LLC WRITE        ACCESS:     124670 HIT:     122325 MISS:       2345
LLC TRANSLATION  ACCESS:       9791 HIT:       5648 MISS:       4143
LLC PREFETCH REQUESTED:          0 ISSUED:          0 USEFUL:          0 USELESS:          0
LLC AVERAGE MISS LATENCY: 143.9 cycles
cpu0_DTLB TOTAL        ACCESS:   24211146 HIT:   22844537 MISS:    1366609
cpu0_DTLB LOAD         ACCESS:   24211146 HIT:   22844537 MISS:    1366609
cpu0_DTLB RFO          ACCESS:          0 HIT:          0 MISS:          0
cpu0_DTLB PREFETCH     ACCESS:          0 HIT:          0 MISS:          0
cpu0_DTLB WRITE        ACCESS:          0 HIT:          0 MISS:          0
cpu0_DTLB TRANSLATION  ACCESS:          0 HIT:          0 MISS:          0
cpu0_DTLB PREFETCH REQUESTED:          0 ISSUED:          0 USEFUL:          0 USELESS:          0
cpu0_DTLB AVERAGE MISS LATENCY: 6.683 cycles
cpu0_ITLB TOTAL        ACCESS:   13802686 HIT:   10489238 MISS:    3313448
cpu0_ITLB LOAD         ACCESS:   13802686 HIT:   10489238 MISS:    3313448
cpu0_ITLB RFO          ACCESS:          0 HIT:          0 MISS:          0
cpu0_ITLB PREFETCH     ACCESS:          0 HIT:          0 MISS:          0
cpu0_ITLB WRITE        ACCESS:          0 HIT:          0 MISS:          0
cpu0_ITLB TRANSLATION  ACCESS:          0 HIT:          0 MISS:          0
cpu0_ITLB PREFETCH REQUESTED:          0 ISSUED:          0 USEFUL:          0 USELESS:          0
cpu0_ITLB AVERAGE MISS LATENCY: 1.768 cycles
cpu0_STLB TOTAL        ACCESS:    2211048 HIT:    2199911 MISS:      11137
cpu0_STLB LOAD         ACCESS:    2211048 HIT:    2199911 MISS:      11137
cpu0_STLB RFO          ACCESS:          0 HIT:          0 MISS:          0
cpu0_STLB PREFETCH     ACCESS:          0 HIT:          0 MISS:          0
cpu0_STLB WRITE        ACCESS:          0 HIT:          0 MISS:          0
cpu0_STLB TRANSLATION  ACCESS:          0 HIT:          0 MISS:          0
cpu0_STLB PREFETCH REQUESTED:          0 ISSUED:          0 USEFUL:          0 USELESS:          0
cpu0_STLB AVERAGE MISS LATENCY: 178.8 cycles

DRAM Statistics

Channel 0 RQ ROW_BUFFER_HIT:      11017
  ROW_BUFFER_MISS:      27945
 AVG DBUS CONGESTED CYCLE: 3.929
WQ ROW_BUFFER_HIT: Channel 0 
  ROW_BUFFER_MISS:       1450
  FULL:       5562
