WARNING: physical memory size is smaller than virtual memory size.

*** ChampSim Multicore Out-of-Order Simulator ***
Warmup Instructions: 25000000
Simulation Instructions: 100000000
Number of CPUs: 1
Page size: 4096

[L1D] Demand IPV: 1 2 2 1 4 Prefetch IPV: 1 2 1 1 4
[L1I] Demand IPV: 1 2 2 1 4 Prefetch IPV: 1 2 1 1 4
[L2C] Demand IPV: 1 2 2 1 4 Prefetch IPV: 1 2 1 1 4
[LLC] Demand IPV: 1 2 2 1 4 Prefetch IPV: 1 2 1 1 4
Off-chip DRAM Size: 4 GiB Channels: 1 Width: 64-bit Data Race: 3200 MT/s
Heartbeat CPU 0 instructions: 10000000 cycles: 2500170 heartbeat IPC: 4 cumulative IPC: 4 (Simulation time: 00 hr 00 min 22 sec)
Heartbeat CPU 0 instructions: 20000000 cycles: 5000170 heartbeat IPC: 4 cumulative IPC: 4 (Simulation time: 00 hr 00 min 44 sec)
Warmup finished CPU 0 instructions: 25000000 cycles: 6250171 cumulative IPC: 4 (Simulation time: 00 hr 00 min 55 sec)
Warmup complete CPU 0 instructions: 25000000 cycles: 6250171 cumulative IPC: 4 (Simulation time: 00 hr 00 min 55 sec)
Heartbeat CPU 0 instructions: 30000001 cycles: 14502515 heartbeat IPC: 1.052 cumulative IPC: 0.6059 (Simulation time: 00 hr 01 min 27 sec)
Heartbeat CPU 0 instructions: 40000003 cycles: 29276095 heartbeat IPC: 0.6769 cumulative IPC: 0.6514 (Simulation time: 00 hr 02 min 27 sec)
Heartbeat CPU 0 instructions: 50000000 cycles: 43834398 heartbeat IPC: 0.6869 cumulative IPC: 0.6652 (Simulation time: 00 hr 03 min 27 sec)
Heartbeat CPU 0 instructions: 60000001 cycles: 58365145 heartbeat IPC: 0.6882 cumulative IPC: 0.6716 (Simulation time: 00 hr 04 min 26 sec)
Heartbeat CPU 0 instructions: 70000004 cycles: 72593499 heartbeat IPC: 0.7028 cumulative IPC: 0.6783 (Simulation time: 00 hr 05 min 25 sec)
Heartbeat CPU 0 instructions: 80000000 cycles: 87595676 heartbeat IPC: 0.6666 cumulative IPC: 0.6761 (Simulation time: 00 hr 06 min 25 sec)
Heartbeat CPU 0 instructions: 90000004 cycles: 101722056 heartbeat IPC: 0.7079 cumulative IPC: 0.6808 (Simulation time: 00 hr 07 min 24 sec)
Heartbeat CPU 0 instructions: 100000001 cycles: 116181619 heartbeat IPC: 0.6916 cumulative IPC: 0.6822 (Simulation time: 00 hr 08 min 23 sec)
*** Reached end of trace: (0, "../traces/secret_traces/srv/srv537.champsimtrace.xz")
Heartbeat CPU 0 instructions: 110000002 cycles: 130412785 heartbeat IPC: 0.7027 cumulative IPC: 0.6846 (Simulation time: 00 hr 09 min 21 sec)
Heartbeat CPU 0 instructions: 120000003 cycles: 144699730 heartbeat IPC: 0.6999 cumulative IPC: 0.6862 (Simulation time: 00 hr 10 min 20 sec)
Simulation finished CPU 0 instructions: 100000003 cycles: 145292775 cumulative IPC: 0.6883 (Simulation time: 00 hr 10 min 49 sec)
Simulation complete CPU 0 instructions: 100000003 cycles: 145292775 cumulative IPC: 0.6883 (Simulation time: 00 hr 10 min 49 sec)

ChampSim completed all CPUs

=== Simulation ===
CPU 0 runs ../traces/secret_traces/srv/srv537.champsimtrace.xz
Region of Interest Statistics

CPU 0 cumulative IPC: 0.6883 instructions: 100000003 cycles: 145292775
CPU 0 Branch Prediction Accuracy: 82.01% MPKI: 32.47 Average ROB Occupancy at Mispredict: 15.31
Branch type MPKI
BRANCH_DIRECT_JUMP: 0.835
BRANCH_INDIRECT: 17.5
BRANCH_CONDITIONAL: 10.9
BRANCH_DIRECT_CALL: 1.51
BRANCH_INDIRECT_CALL: 0.648
BRANCH_RETURN: 1.06

L1D TOTAL        ACCESS:   27475587 HIT:   25128422 MISS:    2347165
L1D LOAD         ACCESS:   17088907 HIT:   15489447 MISS:    1599460
L1D RFO          ACCESS:          0 HIT:          0 MISS:          0
L1D PREFETCH     ACCESS:          0 HIT:          0 MISS:          0
L1D WRITE        ACCESS:   10094053 HIT:    9622538 MISS:     471515
L1D TRANSLATION  ACCESS:     292627 HIT:      16437 MISS:     276190
L1D PREFETCH REQUESTED:          0 ISSUED:          0 USEFUL:          0 USELESS:          0
L1D AVERAGE MISS LATENCY: 26.75 cycles
L1I TOTAL        ACCESS:   10881652 HIT:    7153908 MISS:    3727744
L1I LOAD         ACCESS:   10881652 HIT:    7153908 MISS:    3727744
L1I RFO          ACCESS:          0 HIT:          0 MISS:          0
L1I PREFETCH     ACCESS:          0 HIT:          0 MISS:          0
L1I WRITE        ACCESS:          0 HIT:          0 MISS:          0
L1I TRANSLATION  ACCESS:          0 HIT:          0 MISS:          0
L1I PREFETCH REQUESTED:          0 ISSUED:          0 USEFUL:          0 USELESS:          0
L1I AVERAGE MISS LATENCY: 14.8 cycles
L2C TOTAL        ACCESS:    5068041 HIT:    3079792 MISS:    1988249
L2C LOAD         ACCESS:    4077875 HIT:    2477181 MISS:    1600694
L2C RFO          ACCESS:     197755 HIT:     124108 MISS:      73647
L2C PREFETCH     ACCESS:          0 HIT:          0 MISS:          0
L2C WRITE        ACCESS:     517438 HIT:     421441 MISS:      95997
L2C TRANSLATION  ACCESS:     274973 HIT:      57062 MISS:     217911
L2C PREFETCH REQUESTED:          0 ISSUED:          0 USEFUL:          0 USELESS:          0
L2C AVERAGE MISS LATENCY: 38.07 cycles
LLC TOTAL        ACCESS:    2105930 HIT:    1845635 MISS:     260295
LLC LOAD         ACCESS:    1600693 HIT:    1442859 MISS:     157834
LLC RFO          ACCESS:      73647 HIT:      51476 MISS:      22171
LLC PREFETCH     ACCESS:          0 HIT:          0 MISS:          0
LLC WRITE        ACCESS:     213679 HIT:     187914 MISS:      25765
LLC TRANSLATION  ACCESS:     217911 HIT:     163386 MISS:      54525
LLC PREFETCH REQUESTED:          0 ISSUED:          0 USEFUL:          0 USELESS:          0
LLC AVERAGE MISS LATENCY: 144.4 cycles
cpu0_DTLB TOTAL        ACCESS:   22214500 HIT:   20811651 MISS:    1402849
cpu0_DTLB LOAD         ACCESS:   22214500 HIT:   20811651 MISS:    1402849
cpu0_DTLB RFO          ACCESS:          0 HIT:          0 MISS:          0
cpu0_DTLB PREFETCH     ACCESS:          0 HIT:          0 MISS:          0
cpu0_DTLB WRITE        ACCESS:          0 HIT:          0 MISS:          0
cpu0_DTLB TRANSLATION  ACCESS:          0 HIT:          0 MISS:          0
cpu0_DTLB PREFETCH REQUESTED:          0 ISSUED:          0 USEFUL:          0 USELESS:          0
cpu0_DTLB AVERAGE MISS LATENCY: 15.28 cycles
cpu0_ITLB TOTAL        ACCESS:    9608071 HIT:    8835926 MISS:     772145
cpu0_ITLB LOAD         ACCESS:    9608071 HIT:    8835926 MISS:     772145
cpu0_ITLB RFO          ACCESS:          0 HIT:          0 MISS:          0
cpu0_ITLB PREFETCH     ACCESS:          0 HIT:          0 MISS:          0
cpu0_ITLB WRITE        ACCESS:          0 HIT:          0 MISS:          0
cpu0_ITLB TRANSLATION  ACCESS:          0 HIT:          0 MISS:          0
cpu0_ITLB PREFETCH REQUESTED:          0 ISSUED:          0 USEFUL:          0 USELESS:          0
cpu0_ITLB AVERAGE MISS LATENCY: 10.57 cycles
cpu0_STLB TOTAL        ACCESS:    1491740 HIT:    1256029 MISS:     235711
cpu0_STLB LOAD         ACCESS:    1491740 HIT:    1256029 MISS:     235711
cpu0_STLB RFO          ACCESS:          0 HIT:          0 MISS:          0
cpu0_STLB PREFETCH     ACCESS:          0 HIT:          0 MISS:          0
cpu0_STLB WRITE        ACCESS:          0 HIT:          0 MISS:          0
cpu0_STLB TRANSLATION  ACCESS:          0 HIT:          0 MISS:          0
cpu0_STLB PREFETCH REQUESTED:          0 ISSUED:          0 USEFUL:          0 USELESS:          0
cpu0_STLB AVERAGE MISS LATENCY: 82.33 cycles

DRAM Statistics

Channel 0 RQ ROW_BUFFER_HIT:      38573
  ROW_BUFFER_MISS:     195955
 AVG DBUS CONGESTED CYCLE: 3.874
WQ ROW_BUFFER_HIT: Channel 0 
  ROW_BUFFER_MISS:      20564
  FULL:      87973
