WARNING: physical memory size is smaller than virtual memory size.

*** ChampSim Multicore Out-of-Order Simulator ***
Warmup Instructions: 25000000
Simulation Instructions: 100000000
Number of CPUs: 1
Page size: 4096

[L1D] Demand IPV: 1 2 2 1 4 Prefetch IPV: 1 2 1 1 4
[L1I] Demand IPV: 1 2 2 1 4 Prefetch IPV: 1 2 1 1 4
[L2C] Demand IPV: 1 2 2 1 4 Prefetch IPV: 1 2 1 1 4
[LLC] Demand IPV: 1 2 2 1 4 Prefetch IPV: 1 2 1 1 4
Off-chip DRAM Size: 4 GiB Channels: 1 Width: 64-bit Data Race: 3200 MT/s
Heartbeat CPU 0 instructions: 10000002 cycles: 2500082 heartbeat IPC: 4 cumulative IPC: 4 (Simulation time: 00 hr 00 min 22 sec)
Heartbeat CPU 0 instructions: 20000001 cycles: 5000098 heartbeat IPC: 4 cumulative IPC: 4 (Simulation time: 00 hr 00 min 45 sec)
Warmup finished CPU 0 instructions: 25000001 cycles: 6250099 cumulative IPC: 4 (Simulation time: 00 hr 00 min 57 sec)
Warmup complete CPU 0 instructions: 25000001 cycles: 6250099 cumulative IPC: 4 (Simulation time: 00 hr 00 min 57 sec)
Heartbeat CPU 0 instructions: 30000002 cycles: 14886734 heartbeat IPC: 1.011 cumulative IPC: 0.5789 (Simulation time: 00 hr 01 min 30 sec)
Heartbeat CPU 0 instructions: 40000001 cycles: 32114563 heartbeat IPC: 0.5805 cumulative IPC: 0.5799 (Simulation time: 00 hr 02 min 37 sec)
Heartbeat CPU 0 instructions: 50000000 cycles: 49327243 heartbeat IPC: 0.581 cumulative IPC: 0.5804 (Simulation time: 00 hr 03 min 44 sec)
Heartbeat CPU 0 instructions: 60000000 cycles: 66676365 heartbeat IPC: 0.5764 cumulative IPC: 0.5792 (Simulation time: 00 hr 04 min 51 sec)
Heartbeat CPU 0 instructions: 70000000 cycles: 84191080 heartbeat IPC: 0.5709 cumulative IPC: 0.5774 (Simulation time: 00 hr 05 min 59 sec)
Heartbeat CPU 0 instructions: 80000000 cycles: 101452057 heartbeat IPC: 0.5793 cumulative IPC: 0.5777 (Simulation time: 00 hr 07 min 05 sec)
Heartbeat CPU 0 instructions: 90000000 cycles: 118912563 heartbeat IPC: 0.5727 cumulative IPC: 0.5769 (Simulation time: 00 hr 08 min 13 sec)
Heartbeat CPU 0 instructions: 100000000 cycles: 136099087 heartbeat IPC: 0.5819 cumulative IPC: 0.5776 (Simulation time: 00 hr 09 min 20 sec)
*** Reached end of trace: (0, "../traces/secret_traces/srv/srv559.champsimtrace.xz")
Heartbeat CPU 0 instructions: 110000000 cycles: 153298019 heartbeat IPC: 0.5814 cumulative IPC: 0.578 (Simulation time: 00 hr 10 min 26 sec)
Heartbeat CPU 0 instructions: 120000001 cycles: 170606220 heartbeat IPC: 0.5778 cumulative IPC: 0.578 (Simulation time: 00 hr 11 min 34 sec)
Simulation finished CPU 0 instructions: 100000003 cycles: 173078154 cumulative IPC: 0.5778 (Simulation time: 00 hr 12 min 07 sec)
Simulation complete CPU 0 instructions: 100000003 cycles: 173078154 cumulative IPC: 0.5778 (Simulation time: 00 hr 12 min 07 sec)

ChampSim completed all CPUs

=== Simulation ===
CPU 0 runs ../traces/secret_traces/srv/srv559.champsimtrace.xz
Region of Interest Statistics

CPU 0 cumulative IPC: 0.5778 instructions: 100000003 cycles: 173078154
CPU 0 Branch Prediction Accuracy: 67.22% MPKI: 57.64 Average ROB Occupancy at Mispredict: 3.593
Branch type MPKI
BRANCH_DIRECT_JUMP: 1.11
BRANCH_INDIRECT: 38.6
BRANCH_CONDITIONAL: 10.9
BRANCH_DIRECT_CALL: 2.94
BRANCH_INDIRECT_CALL: 2.28
BRANCH_RETURN: 1.84

L1D TOTAL        ACCESS:   34583688 HIT:   31269611 MISS:    3314077
L1D LOAD         ACCESS:   21123139 HIT:   19346220 MISS:    1776919
L1D RFO          ACCESS:          0 HIT:          0 MISS:          0
L1D PREFETCH     ACCESS:          0 HIT:          0 MISS:          0
L1D WRITE        ACCESS:   13455927 HIT:   11923166 MISS:    1532761
L1D TRANSLATION  ACCESS:       4622 HIT:        225 MISS:       4397
L1D PREFETCH REQUESTED:          0 ISSUED:          0 USEFUL:          0 USELESS:          0
L1D AVERAGE MISS LATENCY: 10.42 cycles
L1I TOTAL        ACCESS:   12066945 HIT:    4980566 MISS:    7086379
L1I LOAD         ACCESS:   12066945 HIT:    4980566 MISS:    7086379
L1I RFO          ACCESS:          0 HIT:          0 MISS:          0
L1I PREFETCH     ACCESS:          0 HIT:          0 MISS:          0
L1I WRITE        ACCESS:          0 HIT:          0 MISS:          0
L1I TRANSLATION  ACCESS:          0 HIT:          0 MISS:          0
L1I PREFETCH REQUESTED:          0 ISSUED:          0 USEFUL:          0 USELESS:          0
L1I AVERAGE MISS LATENCY: 9.549 cycles
L2C TOTAL        ACCESS:    8711599 HIT:    7870686 MISS:     840913
L2C LOAD         ACCESS:    7213889 HIT:    6488648 MISS:     725241
L2C RFO          ACCESS:     547833 HIT:     473210 MISS:      74623
L2C PREFETCH     ACCESS:          0 HIT:          0 MISS:          0
L2C WRITE        ACCESS:     945486 HIT:     907731 MISS:      37755
L2C TRANSLATION  ACCESS:       4391 HIT:       1097 MISS:       3294
L2C PREFETCH REQUESTED:          0 ISSUED:          0 USEFUL:          0 USELESS:          0
L2C AVERAGE MISS LATENCY: 31.64 cycles
LLC TOTAL        ACCESS:     910159 HIT:     860153 MISS:      50006
LLC LOAD         ACCESS:     725241 HIT:     704968 MISS:      20273
LLC RFO          ACCESS:      74623 HIT:      49738 MISS:      24885
LLC PREFETCH     ACCESS:          0 HIT:          0 MISS:          0
LLC WRITE        ACCESS:     107001 HIT:     103020 MISS:       3981
LLC TRANSLATION  ACCESS:       3294 HIT:       2427 MISS:        867
LLC PREFETCH REQUESTED:          0 ISSUED:          0 USEFUL:          0 USELESS:          0
LLC AVERAGE MISS LATENCY: 209.9 cycles
cpu0_DTLB TOTAL        ACCESS:   27663999 HIT:   26594789 MISS:    1069210
cpu0_DTLB LOAD         ACCESS:   27663999 HIT:   26594789 MISS:    1069210
cpu0_DTLB RFO          ACCESS:          0 HIT:          0 MISS:          0
cpu0_DTLB PREFETCH     ACCESS:          0 HIT:          0 MISS:          0
cpu0_DTLB WRITE        ACCESS:          0 HIT:          0 MISS:          0
cpu0_DTLB TRANSLATION  ACCESS:          0 HIT:          0 MISS:          0
cpu0_DTLB PREFETCH REQUESTED:          0 ISSUED:          0 USEFUL:          0 USELESS:          0
cpu0_DTLB AVERAGE MISS LATENCY: 6.893 cycles
cpu0_ITLB TOTAL        ACCESS:   10758097 HIT:    8840640 MISS:    1917457
cpu0_ITLB LOAD         ACCESS:   10758097 HIT:    8840640 MISS:    1917457
cpu0_ITLB RFO          ACCESS:          0 HIT:          0 MISS:          0
cpu0_ITLB PREFETCH     ACCESS:          0 HIT:          0 MISS:          0
cpu0_ITLB WRITE        ACCESS:          0 HIT:          0 MISS:          0
cpu0_ITLB TRANSLATION  ACCESS:          0 HIT:          0 MISS:          0
cpu0_ITLB PREFETCH REQUESTED:          0 ISSUED:          0 USEFUL:          0 USELESS:          0
cpu0_ITLB AVERAGE MISS LATENCY: 3.152 cycles
cpu0_STLB TOTAL        ACCESS:    1862606 HIT:    1858166 MISS:       4440
cpu0_STLB LOAD         ACCESS:    1862606 HIT:    1858166 MISS:       4440
cpu0_STLB RFO          ACCESS:          0 HIT:          0 MISS:          0
cpu0_STLB PREFETCH     ACCESS:          0 HIT:          0 MISS:          0
cpu0_STLB WRITE        ACCESS:          0 HIT:          0 MISS:          0
cpu0_STLB TRANSLATION  ACCESS:          0 HIT:          0 MISS:          0
cpu0_STLB PREFETCH REQUESTED:          0 ISSUED:          0 USEFUL:          0 USELESS:          0
cpu0_STLB AVERAGE MISS LATENCY: 106.4 cycles

DRAM Statistics

Channel 0 RQ ROW_BUFFER_HIT:      22992
  ROW_BUFFER_MISS:      23004
 AVG DBUS CONGESTED CYCLE: 3.96
WQ ROW_BUFFER_HIT: Channel 0 
  ROW_BUFFER_MISS:       1000
  FULL:      14329
