WARNING: physical memory size is smaller than virtual memory size.

*** ChampSim Multicore Out-of-Order Simulator ***
Warmup Instructions: 25000000
Simulation Instructions: 100000000
Number of CPUs: 1
Page size: 4096

[L1D] Demand IPV: 1 2 2 1 4 Prefetch IPV: 1 2 1 1 4
[L1I] Demand IPV: 1 2 2 1 4 Prefetch IPV: 1 2 1 1 4
[L2C] Demand IPV: 1 2 2 1 4 Prefetch IPV: 1 2 1 1 4
[LLC] Demand IPV: 1 2 2 1 4 Prefetch IPV: 1 2 1 1 4
Off-chip DRAM Size: 4 GiB Channels: 1 Width: 64-bit Data Race: 3200 MT/s
Heartbeat CPU 0 instructions: 10000001 cycles: 2502811 heartbeat IPC: 3.996 cumulative IPC: 3.996 (Simulation time: 00 hr 00 min 21 sec)
Heartbeat CPU 0 instructions: 20000002 cycles: 5033062 heartbeat IPC: 3.952 cumulative IPC: 3.974 (Simulation time: 00 hr 00 min 43 sec)
Warmup finished CPU 0 instructions: 25000002 cycles: 6283063 cumulative IPC: 3.979 (Simulation time: 00 hr 00 min 54 sec)
Warmup complete CPU 0 instructions: 25000002 cycles: 6283063 cumulative IPC: 3.979 (Simulation time: 00 hr 00 min 54 sec)
Heartbeat CPU 0 instructions: 30000004 cycles: 8319826 heartbeat IPC: 3.043 cumulative IPC: 2.455 (Simulation time: 00 hr 01 min 08 sec)
Heartbeat CPU 0 instructions: 40000000 cycles: 12738112 heartbeat IPC: 2.263 cumulative IPC: 2.324 (Simulation time: 00 hr 01 min 39 sec)
Heartbeat CPU 0 instructions: 50000003 cycles: 16867926 heartbeat IPC: 2.421 cumulative IPC: 2.362 (Simulation time: 00 hr 02 min 09 sec)
Heartbeat CPU 0 instructions: 60000004 cycles: 21010719 heartbeat IPC: 2.414 cumulative IPC: 2.376 (Simulation time: 00 hr 02 min 38 sec)
*** Reached end of trace: (0, "../traces/secret_traces/srv/srv593.champsimtrace.xz")
Heartbeat CPU 0 instructions: 70000000 cycles: 26247823 heartbeat IPC: 1.909 cumulative IPC: 2.254 (Simulation time: 00 hr 03 min 11 sec)
Heartbeat CPU 0 instructions: 80000004 cycles: 32493009 heartbeat IPC: 1.601 cumulative IPC: 2.098 (Simulation time: 00 hr 03 min 47 sec)
Heartbeat CPU 0 instructions: 90000004 cycles: 36602059 heartbeat IPC: 2.434 cumulative IPC: 2.144 (Simulation time: 00 hr 04 min 17 sec)
Heartbeat CPU 0 instructions: 100000004 cycles: 41014553 heartbeat IPC: 2.266 cumulative IPC: 2.159 (Simulation time: 00 hr 04 min 47 sec)
Heartbeat CPU 0 instructions: 110000003 cycles: 45192062 heartbeat IPC: 2.394 cumulative IPC: 2.185 (Simulation time: 00 hr 05 min 17 sec)
Heartbeat CPU 0 instructions: 120000002 cycles: 49392329 heartbeat IPC: 2.381 cumulative IPC: 2.204 (Simulation time: 00 hr 05 min 47 sec)
*** Reached end of trace: (0, "../traces/secret_traces/srv/srv593.champsimtrace.xz")
Simulation finished CPU 0 instructions: 100000001 cycles: 45727673 cumulative IPC: 2.187 (Simulation time: 00 hr 06 min 04 sec)
Simulation complete CPU 0 instructions: 100000001 cycles: 45727673 cumulative IPC: 2.187 (Simulation time: 00 hr 06 min 04 sec)

ChampSim completed all CPUs

=== Simulation ===
CPU 0 runs ../traces/secret_traces/srv/srv593.champsimtrace.xz
Region of Interest Statistics

CPU 0 cumulative IPC: 2.187 instructions: 100000001 cycles: 45727673
CPU 0 Branch Prediction Accuracy: 95.55% MPKI: 6.936 Average ROB Occupancy at Mispredict: 32.74
Branch type MPKI
BRANCH_DIRECT_JUMP: 0.0101
BRANCH_INDIRECT: 4.7
BRANCH_CONDITIONAL: 1.86
BRANCH_DIRECT_CALL: 0.027
BRANCH_INDIRECT_CALL: 0.103
BRANCH_RETURN: 0.232

L1D TOTAL        ACCESS:   32193872 HIT:   31985474 MISS:     208398
L1D LOAD         ACCESS:   16220258 HIT:   16138372 MISS:      81886
L1D RFO          ACCESS:          0 HIT:          0 MISS:          0
L1D PREFETCH     ACCESS:          0 HIT:          0 MISS:          0
L1D WRITE        ACCESS:   15971811 HIT:   15846620 MISS:     125191
L1D TRANSLATION  ACCESS:       1803 HIT:        482 MISS:       1321
L1D PREFETCH REQUESTED:          0 ISSUED:          0 USEFUL:          0 USELESS:          0
L1D AVERAGE MISS LATENCY: 60.23 cycles
L1I TOTAL        ACCESS:   14479720 HIT:   13342261 MISS:    1137459
L1I LOAD         ACCESS:   14479720 HIT:   13342261 MISS:    1137459
L1I RFO          ACCESS:          0 HIT:          0 MISS:          0
L1I PREFETCH     ACCESS:          0 HIT:          0 MISS:          0
L1I WRITE        ACCESS:          0 HIT:          0 MISS:          0
L1I TRANSLATION  ACCESS:          0 HIT:          0 MISS:          0
L1I PREFETCH REQUESTED:          0 ISSUED:          0 USEFUL:          0 USELESS:          0
L1I AVERAGE MISS LATENCY: 7.836 cycles
L2C TOTAL        ACCESS:     968259 HIT:     884315 MISS:      83944
L2C LOAD         ACCESS:     875464 HIT:     831767 MISS:      43697
L2C RFO          ACCESS:      42731 HIT:       9145 MISS:      33586
L2C PREFETCH     ACCESS:          0 HIT:          0 MISS:          0
L2C WRITE        ACCESS:      48807 HIT:      43269 MISS:       5538
L2C TRANSLATION  ACCESS:       1257 HIT:        134 MISS:       1123
L2C PREFETCH REQUESTED:          0 ISSUED:          0 USEFUL:          0 USELESS:          0
L2C AVERAGE MISS LATENCY: 159.2 cycles
LLC TOTAL        ACCESS:     117476 HIT:      74348 MISS:      43128
LLC LOAD         ACCESS:      43697 HIT:      18098 MISS:      25599
LLC RFO          ACCESS:      33586 HIT:      25194 MISS:       8392
LLC PREFETCH     ACCESS:          0 HIT:          0 MISS:          0
LLC WRITE        ACCESS:      39070 HIT:      30860 MISS:       8210
LLC TRANSLATION  ACCESS:       1123 HIT:        196 MISS:        927
LLC PREFETCH REQUESTED:          0 ISSUED:          0 USEFUL:          0 USELESS:          0
LLC AVERAGE MISS LATENCY: 272.6 cycles
cpu0_DTLB TOTAL        ACCESS:   23988345 HIT:   23234712 MISS:     753633
cpu0_DTLB LOAD         ACCESS:   23988345 HIT:   23234712 MISS:     753633
cpu0_DTLB RFO          ACCESS:          0 HIT:          0 MISS:          0
cpu0_DTLB PREFETCH     ACCESS:          0 HIT:          0 MISS:          0
cpu0_DTLB WRITE        ACCESS:          0 HIT:          0 MISS:          0
cpu0_DTLB TRANSLATION  ACCESS:          0 HIT:          0 MISS:          0
cpu0_DTLB PREFETCH REQUESTED:          0 ISSUED:          0 USEFUL:          0 USELESS:          0
cpu0_DTLB AVERAGE MISS LATENCY: 4.021 cycles
cpu0_ITLB TOTAL        ACCESS:   12480944 HIT:   11324135 MISS:    1156809
cpu0_ITLB LOAD         ACCESS:   12480944 HIT:   11324135 MISS:    1156809
cpu0_ITLB RFO          ACCESS:          0 HIT:          0 MISS:          0
cpu0_ITLB PREFETCH     ACCESS:          0 HIT:          0 MISS:          0
cpu0_ITLB WRITE        ACCESS:          0 HIT:          0 MISS:          0
cpu0_ITLB TRANSLATION  ACCESS:          0 HIT:          0 MISS:          0
cpu0_ITLB PREFETCH REQUESTED:          0 ISSUED:          0 USEFUL:          0 USELESS:          0
cpu0_ITLB AVERAGE MISS LATENCY: 1.37 cycles
cpu0_STLB TOTAL        ACCESS:     783133 HIT:     781555 MISS:       1578
cpu0_STLB LOAD         ACCESS:     783133 HIT:     781555 MISS:       1578
cpu0_STLB RFO          ACCESS:          0 HIT:          0 MISS:          0
cpu0_STLB PREFETCH     ACCESS:          0 HIT:          0 MISS:          0
cpu0_STLB WRITE        ACCESS:          0 HIT:          0 MISS:          0
cpu0_STLB TRANSLATION  ACCESS:          0 HIT:          0 MISS:          0
cpu0_STLB PREFETCH REQUESTED:          0 ISSUED:          0 USEFUL:          0 USELESS:          0
cpu0_STLB AVERAGE MISS LATENCY: 203.4 cycles

DRAM Statistics

Channel 0 RQ ROW_BUFFER_HIT:      17309
  ROW_BUFFER_MISS:      17603
 AVG DBUS CONGESTED CYCLE: 3.965
WQ ROW_BUFFER_HIT: Channel 0 
  ROW_BUFFER_MISS:       1778
  FULL:       8781
