WARNING: physical memory size is smaller than virtual memory size.

*** ChampSim Multicore Out-of-Order Simulator ***
Warmup Instructions: 25000000
Simulation Instructions: 100000000
Number of CPUs: 1
Page size: 4096

[L1D] Demand IPV: 1 2 2 1 4 Prefetch IPV: 1 2 1 1 4
[L1I] Demand IPV: 1 2 2 1 4 Prefetch IPV: 1 2 1 1 4
[L2C] Demand IPV: 1 2 2 1 4 Prefetch IPV: 1 2 1 1 4
[LLC] Demand IPV: 1 2 2 1 4 Prefetch IPV: 1 2 1 1 4
Off-chip DRAM Size: 4 GiB Channels: 1 Width: 64-bit Data Race: 3200 MT/s
Heartbeat CPU 0 instructions: 10000001 cycles: 2501055 heartbeat IPC: 3.998 cumulative IPC: 3.998 (Simulation time: 00 hr 00 min 23 sec)
Heartbeat CPU 0 instructions: 20000001 cycles: 5001055 heartbeat IPC: 4 cumulative IPC: 3.999 (Simulation time: 00 hr 00 min 46 sec)
Warmup finished CPU 0 instructions: 25000001 cycles: 6251056 cumulative IPC: 3.999 (Simulation time: 00 hr 00 min 58 sec)
Warmup complete CPU 0 instructions: 25000001 cycles: 6251056 cumulative IPC: 3.999 (Simulation time: 00 hr 00 min 58 sec)
Heartbeat CPU 0 instructions: 30000000 cycles: 14734530 heartbeat IPC: 1.027 cumulative IPC: 0.5894 (Simulation time: 00 hr 01 min 31 sec)
Heartbeat CPU 0 instructions: 40000000 cycles: 31617037 heartbeat IPC: 0.5923 cumulative IPC: 0.5913 (Simulation time: 00 hr 02 min 38 sec)
Heartbeat CPU 0 instructions: 50000001 cycles: 48752980 heartbeat IPC: 0.5836 cumulative IPC: 0.5882 (Simulation time: 00 hr 03 min 45 sec)
Heartbeat CPU 0 instructions: 60000000 cycles: 65774730 heartbeat IPC: 0.5875 cumulative IPC: 0.588 (Simulation time: 00 hr 04 min 52 sec)
Heartbeat CPU 0 instructions: 70000001 cycles: 82733051 heartbeat IPC: 0.5897 cumulative IPC: 0.5884 (Simulation time: 00 hr 05 min 59 sec)
Heartbeat CPU 0 instructions: 80000000 cycles: 99629575 heartbeat IPC: 0.5918 cumulative IPC: 0.589 (Simulation time: 00 hr 07 min 06 sec)
*** Reached end of trace: (0, "../traces/secret_traces/srv/srv558.champsimtrace.xz")
Heartbeat CPU 0 instructions: 90000000 cycles: 116189560 heartbeat IPC: 0.6039 cumulative IPC: 0.5912 (Simulation time: 00 hr 08 min 11 sec)
Heartbeat CPU 0 instructions: 100000002 cycles: 132760062 heartbeat IPC: 0.6035 cumulative IPC: 0.5928 (Simulation time: 00 hr 09 min 17 sec)
Heartbeat CPU 0 instructions: 110000001 cycles: 149404638 heartbeat IPC: 0.6008 cumulative IPC: 0.5938 (Simulation time: 00 hr 10 min 23 sec)
Heartbeat CPU 0 instructions: 120000001 cycles: 166038456 heartbeat IPC: 0.6012 cumulative IPC: 0.5945 (Simulation time: 00 hr 11 min 28 sec)
Simulation finished CPU 0 instructions: 100000001 cycles: 168126968 cumulative IPC: 0.5948 (Simulation time: 00 hr 12 min 01 sec)
Simulation complete CPU 0 instructions: 100000001 cycles: 168126968 cumulative IPC: 0.5948 (Simulation time: 00 hr 12 min 01 sec)

ChampSim completed all CPUs

=== Simulation ===
CPU 0 runs ../traces/secret_traces/srv/srv558.champsimtrace.xz
Region of Interest Statistics

CPU 0 cumulative IPC: 0.5948 instructions: 100000001 cycles: 168126968
CPU 0 Branch Prediction Accuracy: 71.41% MPKI: 51.2 Average ROB Occupancy at Mispredict: 3.937
Branch type MPKI
BRANCH_DIRECT_JUMP: 0.469
BRANCH_INDIRECT: 35.7
BRANCH_CONDITIONAL: 10
BRANCH_DIRECT_CALL: 1.61
BRANCH_INDIRECT_CALL: 2.18
BRANCH_RETURN: 1.23

L1D TOTAL        ACCESS:   34193948 HIT:   30261892 MISS:    3932056
L1D LOAD         ACCESS:   20623652 HIT:   18359523 MISS:    2264129
L1D RFO          ACCESS:          0 HIT:          0 MISS:          0
L1D PREFETCH     ACCESS:          0 HIT:          0 MISS:          0
L1D WRITE        ACCESS:   13530107 HIT:   11901418 MISS:    1628689
L1D TRANSLATION  ACCESS:      40189 HIT:        951 MISS:      39238
L1D PREFETCH REQUESTED:          0 ISSUED:          0 USEFUL:          0 USELESS:          0
L1D AVERAGE MISS LATENCY: 10.16 cycles
L1I TOTAL        ACCESS:   12980342 HIT:    5138938 MISS:    7841404
L1I LOAD         ACCESS:   12980342 HIT:    5138938 MISS:    7841404
L1I RFO          ACCESS:          0 HIT:          0 MISS:          0
L1I PREFETCH     ACCESS:          0 HIT:          0 MISS:          0
L1I WRITE        ACCESS:          0 HIT:          0 MISS:          0
L1I TRANSLATION  ACCESS:          0 HIT:          0 MISS:          0
L1I PREFETCH REQUESTED:          0 ISSUED:          0 USEFUL:          0 USELESS:          0
L1I AVERAGE MISS LATENCY: 8.467 cycles
L2C TOTAL        ACCESS:    9725497 HIT:    9197833 MISS:     527664
L2C LOAD         ACCESS:    8029063 HIT:    7572441 MISS:     456622
L2C RFO          ACCESS:     586952 HIT:     558267 MISS:      28685
L2C PREFETCH     ACCESS:          0 HIT:          0 MISS:          0
L2C WRITE        ACCESS:    1070292 HIT:    1054396 MISS:      15896
L2C TRANSLATION  ACCESS:      39190 HIT:      12729 MISS:      26461
L2C PREFETCH REQUESTED:          0 ISSUED:          0 USEFUL:          0 USELESS:          0
L2C AVERAGE MISS LATENCY: 43.88 cycles
LLC TOTAL        ACCESS:     552011 HIT:     474314 MISS:      77697
LLC LOAD         ACCESS:     456621 HIT:     399638 MISS:      56983
LLC RFO          ACCESS:      28685 HIT:      21955 MISS:       6730
LLC PREFETCH     ACCESS:          0 HIT:          0 MISS:          0
LLC WRITE        ACCESS:      40244 HIT:      38421 MISS:       1823
LLC TRANSLATION  ACCESS:      26461 HIT:      14300 MISS:      12161
LLC PREFETCH REQUESTED:          0 ISSUED:          0 USEFUL:          0 USELESS:          0
LLC AVERAGE MISS LATENCY: 165.3 cycles
cpu0_DTLB TOTAL        ACCESS:   27310892 HIT:   26029942 MISS:    1280950
cpu0_DTLB LOAD         ACCESS:   27310892 HIT:   26029942 MISS:    1280950
cpu0_DTLB RFO          ACCESS:          0 HIT:          0 MISS:          0
cpu0_DTLB PREFETCH     ACCESS:          0 HIT:          0 MISS:          0
cpu0_DTLB WRITE        ACCESS:          0 HIT:          0 MISS:          0
cpu0_DTLB TRANSLATION  ACCESS:          0 HIT:          0 MISS:          0
cpu0_DTLB PREFETCH REQUESTED:          0 ISSUED:          0 USEFUL:          0 USELESS:          0
cpu0_DTLB AVERAGE MISS LATENCY: 8.991 cycles
cpu0_ITLB TOTAL        ACCESS:   11500324 HIT:    9291277 MISS:    2209047
cpu0_ITLB LOAD         ACCESS:   11500324 HIT:    9291277 MISS:    2209047
cpu0_ITLB RFO          ACCESS:          0 HIT:          0 MISS:          0
cpu0_ITLB PREFETCH     ACCESS:          0 HIT:          0 MISS:          0
cpu0_ITLB WRITE        ACCESS:          0 HIT:          0 MISS:          0
cpu0_ITLB TRANSLATION  ACCESS:          0 HIT:          0 MISS:          0
cpu0_ITLB PREFETCH REQUESTED:          0 ISSUED:          0 USEFUL:          0 USELESS:          0
cpu0_ITLB AVERAGE MISS LATENCY: 3.013 cycles
cpu0_STLB TOTAL        ACCESS:    2121860 HIT:    2094943 MISS:      26917
cpu0_STLB LOAD         ACCESS:    2121860 HIT:    2094943 MISS:      26917
cpu0_STLB RFO          ACCESS:          0 HIT:          0 MISS:          0
cpu0_STLB PREFETCH     ACCESS:          0 HIT:          0 MISS:          0
cpu0_STLB WRITE        ACCESS:          0 HIT:          0 MISS:          0
cpu0_STLB TRANSLATION  ACCESS:          0 HIT:          0 MISS:          0
cpu0_STLB PREFETCH REQUESTED:          0 ISSUED:          0 USEFUL:          0 USELESS:          0
cpu0_STLB AVERAGE MISS LATENCY: 142.3 cycles

DRAM Statistics

Channel 0 RQ ROW_BUFFER_HIT:      28730
  ROW_BUFFER_MISS:      47137
 AVG DBUS CONGESTED CYCLE: 3.911
WQ ROW_BUFFER_HIT: Channel 0 
  ROW_BUFFER_MISS:        424
  FULL:       1265
