WARNING: physical memory size is smaller than virtual memory size.

*** ChampSim Multicore Out-of-Order Simulator ***
Warmup Instructions: 25000000
Simulation Instructions: 100000000
Number of CPUs: 1
Page size: 4096

[L1D] Demand IPV: 1 2 2 1 4 Prefetch IPV: 1 2 1 1 4
[L1I] Demand IPV: 1 2 2 1 4 Prefetch IPV: 1 2 1 1 4
[L2C] Demand IPV: 1 2 2 1 4 Prefetch IPV: 1 2 1 1 4
[LLC] Demand IPV: 1 2 2 1 4 Prefetch IPV: 1 2 1 1 4
Off-chip DRAM Size: 4 GiB Channels: 1 Width: 64-bit Data Race: 3200 MT/s
Heartbeat CPU 0 instructions: 10000002 cycles: 2500104 heartbeat IPC: 4 cumulative IPC: 4 (Simulation time: 00 hr 00 min 23 sec)
Heartbeat CPU 0 instructions: 20000002 cycles: 5000138 heartbeat IPC: 4 cumulative IPC: 4 (Simulation time: 00 hr 00 min 46 sec)
Warmup finished CPU 0 instructions: 25000000 cycles: 6251428 cumulative IPC: 3.999 (Simulation time: 00 hr 00 min 57 sec)
Warmup complete CPU 0 instructions: 25000000 cycles: 6251428 cumulative IPC: 3.999 (Simulation time: 00 hr 00 min 57 sec)
Heartbeat CPU 0 instructions: 30000000 cycles: 14725846 heartbeat IPC: 1.028 cumulative IPC: 0.59 (Simulation time: 00 hr 01 min 30 sec)
Heartbeat CPU 0 instructions: 40000002 cycles: 31775765 heartbeat IPC: 0.5865 cumulative IPC: 0.5877 (Simulation time: 00 hr 02 min 37 sec)
Heartbeat CPU 0 instructions: 50000001 cycles: 48802699 heartbeat IPC: 0.5873 cumulative IPC: 0.5875 (Simulation time: 00 hr 03 min 44 sec)
Heartbeat CPU 0 instructions: 60000000 cycles: 65910231 heartbeat IPC: 0.5845 cumulative IPC: 0.5867 (Simulation time: 00 hr 04 min 51 sec)
Heartbeat CPU 0 instructions: 70000000 cycles: 82979383 heartbeat IPC: 0.5859 cumulative IPC: 0.5865 (Simulation time: 00 hr 05 min 58 sec)
Heartbeat CPU 0 instructions: 80000001 cycles: 100180306 heartbeat IPC: 0.5814 cumulative IPC: 0.5855 (Simulation time: 00 hr 07 min 06 sec)
Heartbeat CPU 0 instructions: 90000000 cycles: 117256851 heartbeat IPC: 0.5856 cumulative IPC: 0.5856 (Simulation time: 00 hr 08 min 13 sec)
Heartbeat CPU 0 instructions: 100000004 cycles: 134519537 heartbeat IPC: 0.5793 cumulative IPC: 0.5847 (Simulation time: 00 hr 09 min 20 sec)
*** Reached end of trace: (0, "../traces/secret_traces/srv/srv769.champsimtrace.xz")
Heartbeat CPU 0 instructions: 110000000 cycles: 151630358 heartbeat IPC: 0.5844 cumulative IPC: 0.5847 (Simulation time: 00 hr 10 min 27 sec)
Heartbeat CPU 0 instructions: 120000002 cycles: 168869680 heartbeat IPC: 0.5801 cumulative IPC: 0.5842 (Simulation time: 00 hr 11 min 35 sec)
Simulation finished CPU 0 instructions: 100000000 cycles: 171107490 cumulative IPC: 0.5844 (Simulation time: 00 hr 12 min 08 sec)
Simulation complete CPU 0 instructions: 100000000 cycles: 171107490 cumulative IPC: 0.5844 (Simulation time: 00 hr 12 min 08 sec)

ChampSim completed all CPUs

=== Simulation ===
CPU 0 runs ../traces/secret_traces/srv/srv769.champsimtrace.xz
Region of Interest Statistics

CPU 0 cumulative IPC: 0.5844 instructions: 100000000 cycles: 171107490
CPU 0 Branch Prediction Accuracy: 67.5% MPKI: 57.23 Average ROB Occupancy at Mispredict: 3.608
Branch type MPKI
BRANCH_DIRECT_JUMP: 1.08
BRANCH_INDIRECT: 38.4
BRANCH_CONDITIONAL: 10.8
BRANCH_DIRECT_CALL: 2.9
BRANCH_INDIRECT_CALL: 2.28
BRANCH_RETURN: 1.81

L1D TOTAL        ACCESS:   34447339 HIT:   31063313 MISS:    3384026
L1D LOAD         ACCESS:   21053728 HIT:   19206559 MISS:    1847169
L1D RFO          ACCESS:          0 HIT:          0 MISS:          0
L1D PREFETCH     ACCESS:          0 HIT:          0 MISS:          0
L1D WRITE        ACCESS:   13389227 HIT:   11856536 MISS:    1532691
L1D TRANSLATION  ACCESS:       4384 HIT:        218 MISS:       4166
L1D PREFETCH REQUESTED:          0 ISSUED:          0 USEFUL:          0 USELESS:          0
L1D AVERAGE MISS LATENCY: 10.8 cycles
L1I TOTAL        ACCESS:   12008097 HIT:    4953665 MISS:    7054432
L1I LOAD         ACCESS:   12008097 HIT:    4953665 MISS:    7054432
L1I RFO          ACCESS:          0 HIT:          0 MISS:          0
L1I PREFETCH     ACCESS:          0 HIT:          0 MISS:          0
L1I WRITE        ACCESS:          0 HIT:          0 MISS:          0
L1I TRANSLATION  ACCESS:          0 HIT:          0 MISS:          0
L1I PREFETCH REQUESTED:          0 ISSUED:          0 USEFUL:          0 USELESS:          0
L1I AVERAGE MISS LATENCY: 9.34 cycles
L2C TOTAL        ACCESS:    8755165 HIT:    7993866 MISS:     761299
L2C LOAD         ACCESS:    7251792 HIT:    6596202 MISS:     655590
L2C RFO          ACCESS:     549666 HIT:     479596 MISS:      70070
L2C PREFETCH     ACCESS:          0 HIT:          0 MISS:          0
L2C WRITE        ACCESS:     949542 HIT:     916810 MISS:      32732
L2C TRANSLATION  ACCESS:       4165 HIT:       1258 MISS:       2907
L2C PREFETCH REQUESTED:          0 ISSUED:          0 USEFUL:          0 USELESS:          0
L2C AVERAGE MISS LATENCY: 34.79 cycles
LLC TOTAL        ACCESS:     826501 HIT:     774145 MISS:      52356
LLC LOAD         ACCESS:     655589 HIT:     634764 MISS:      20825
LLC RFO          ACCESS:      70070 HIT:      43837 MISS:      26233
LLC PREFETCH     ACCESS:          0 HIT:          0 MISS:          0
LLC WRITE        ACCESS:      97935 HIT:      93373 MISS:       4562
LLC TRANSLATION  ACCESS:       2907 HIT:       2171 MISS:        736
LLC PREFETCH REQUESTED:          0 ISSUED:          0 USEFUL:          0 USELESS:          0
LLC AVERAGE MISS LATENCY: 226.6 cycles
cpu0_DTLB TOTAL        ACCESS:   27544313 HIT:   26463013 MISS:    1081300
cpu0_DTLB LOAD         ACCESS:   27544313 HIT:   26463013 MISS:    1081300
cpu0_DTLB RFO          ACCESS:          0 HIT:          0 MISS:          0
cpu0_DTLB PREFETCH     ACCESS:          0 HIT:          0 MISS:          0
cpu0_DTLB WRITE        ACCESS:          0 HIT:          0 MISS:          0
cpu0_DTLB TRANSLATION  ACCESS:          0 HIT:          0 MISS:          0
cpu0_DTLB PREFETCH REQUESTED:          0 ISSUED:          0 USEFUL:          0 USELESS:          0
cpu0_DTLB AVERAGE MISS LATENCY: 6.836 cycles
cpu0_ITLB TOTAL        ACCESS:   10702735 HIT:    8792187 MISS:    1910548
cpu0_ITLB LOAD         ACCESS:   10702735 HIT:    8792187 MISS:    1910548
cpu0_ITLB RFO          ACCESS:          0 HIT:          0 MISS:          0
cpu0_ITLB PREFETCH     ACCESS:          0 HIT:          0 MISS:          0
cpu0_ITLB WRITE        ACCESS:          0 HIT:          0 MISS:          0
cpu0_ITLB TRANSLATION  ACCESS:          0 HIT:          0 MISS:          0
cpu0_ITLB PREFETCH REQUESTED:          0 ISSUED:          0 USEFUL:          0 USELESS:          0
cpu0_ITLB AVERAGE MISS LATENCY: 3.14 cycles
cpu0_STLB TOTAL        ACCESS:    1867331 HIT:    1863144 MISS:       4187
cpu0_STLB LOAD         ACCESS:    1867331 HIT:    1863144 MISS:       4187
cpu0_STLB RFO          ACCESS:          0 HIT:          0 MISS:          0
cpu0_STLB PREFETCH     ACCESS:          0 HIT:          0 MISS:          0
cpu0_STLB WRITE        ACCESS:          0 HIT:          0 MISS:          0
cpu0_STLB TRANSLATION  ACCESS:          0 HIT:          0 MISS:          0
cpu0_STLB PREFETCH REQUESTED:          0 ISSUED:          0 USEFUL:          0 USELESS:          0
cpu0_STLB AVERAGE MISS LATENCY: 99.28 cycles

DRAM Statistics

Channel 0 RQ ROW_BUFFER_HIT:      24085
  ROW_BUFFER_MISS:      23693
 AVG DBUS CONGESTED CYCLE: 3.961
WQ ROW_BUFFER_HIT: Channel 0 
  ROW_BUFFER_MISS:        942
  FULL:      15535
