WARNING: physical memory size is smaller than virtual memory size.

*** ChampSim Multicore Out-of-Order Simulator ***
Warmup Instructions: 25000000
Simulation Instructions: 100000000
Number of CPUs: 1
Page size: 4096

[L1D] Demand IPV: 1 2 2 1 4 Prefetch IPV: 1 2 1 1 4
[L1I] Demand IPV: 1 2 2 1 4 Prefetch IPV: 1 2 1 1 4
[L2C] Demand IPV: 1 2 2 1 4 Prefetch IPV: 1 2 1 1 4
[LLC] Demand IPV: 1 2 2 1 4 Prefetch IPV: 1 2 1 1 4
Off-chip DRAM Size: 4 GiB Channels: 1 Width: 64-bit Data Race: 3200 MT/s
Heartbeat CPU 0 instructions: 10000002 cycles: 2500122 heartbeat IPC: 4 cumulative IPC: 4 (Simulation time: 00 hr 00 min 23 sec)
Heartbeat CPU 0 instructions: 20000002 cycles: 5000122 heartbeat IPC: 4 cumulative IPC: 4 (Simulation time: 00 hr 00 min 47 sec)
Warmup finished CPU 0 instructions: 25000002 cycles: 6250123 cumulative IPC: 4 (Simulation time: 00 hr 00 min 58 sec)
Warmup complete CPU 0 instructions: 25000002 cycles: 6250123 cumulative IPC: 4 (Simulation time: 00 hr 00 min 58 sec)
Heartbeat CPU 0 instructions: 30000002 cycles: 14389266 heartbeat IPC: 1.065 cumulative IPC: 0.6143 (Simulation time: 00 hr 01 min 31 sec)
Heartbeat CPU 0 instructions: 40000000 cycles: 30647770 heartbeat IPC: 0.6151 cumulative IPC: 0.6148 (Simulation time: 00 hr 02 min 36 sec)
Heartbeat CPU 0 instructions: 50000000 cycles: 46930883 heartbeat IPC: 0.6141 cumulative IPC: 0.6145 (Simulation time: 00 hr 03 min 41 sec)
Heartbeat CPU 0 instructions: 60000001 cycles: 63205535 heartbeat IPC: 0.6145 cumulative IPC: 0.6145 (Simulation time: 00 hr 04 min 46 sec)
Heartbeat CPU 0 instructions: 70000000 cycles: 79482916 heartbeat IPC: 0.6143 cumulative IPC: 0.6145 (Simulation time: 00 hr 05 min 51 sec)
Heartbeat CPU 0 instructions: 80000002 cycles: 95757979 heartbeat IPC: 0.6144 cumulative IPC: 0.6145 (Simulation time: 00 hr 06 min 56 sec)
*** Reached end of trace: (0, "../traces/secret_traces/srv/srv734.champsimtrace.xz")
Heartbeat CPU 0 instructions: 90000000 cycles: 111996221 heartbeat IPC: 0.6158 cumulative IPC: 0.6147 (Simulation time: 00 hr 08 min 01 sec)
Heartbeat CPU 0 instructions: 100000002 cycles: 128234124 heartbeat IPC: 0.6158 cumulative IPC: 0.6148 (Simulation time: 00 hr 09 min 06 sec)
Heartbeat CPU 0 instructions: 110000003 cycles: 144476208 heartbeat IPC: 0.6157 cumulative IPC: 0.6149 (Simulation time: 00 hr 10 min 10 sec)
Heartbeat CPU 0 instructions: 120000001 cycles: 160696274 heartbeat IPC: 0.6165 cumulative IPC: 0.6151 (Simulation time: 00 hr 11 min 15 sec)
Simulation finished CPU 0 instructions: 100000000 cycles: 162574155 cumulative IPC: 0.6151 (Simulation time: 00 hr 11 min 48 sec)
Simulation complete CPU 0 instructions: 100000000 cycles: 162574155 cumulative IPC: 0.6151 (Simulation time: 00 hr 11 min 48 sec)

ChampSim completed all CPUs

=== Simulation ===
CPU 0 runs ../traces/secret_traces/srv/srv734.champsimtrace.xz
Region of Interest Statistics

CPU 0 cumulative IPC: 0.6151 instructions: 100000000 cycles: 162574155
CPU 0 Branch Prediction Accuracy: 70.63% MPKI: 52.14 Average ROB Occupancy at Mispredict: 3.469
Branch type MPKI
BRANCH_DIRECT_JUMP: 0.537
BRANCH_INDIRECT: 36.1
BRANCH_CONDITIONAL: 10.2
BRANCH_DIRECT_CALL: 1.65
BRANCH_INDIRECT_CALL: 2.28
BRANCH_RETURN: 1.36

L1D TOTAL        ACCESS:   34897918 HIT:   31202592 MISS:    3695326
L1D LOAD         ACCESS:   20887885 HIT:   18824144 MISS:    2063741
L1D RFO          ACCESS:          0 HIT:          0 MISS:          0
L1D PREFETCH     ACCESS:          0 HIT:          0 MISS:          0
L1D WRITE        ACCESS:   14009278 HIT:   12378448 MISS:    1630830
L1D TRANSLATION  ACCESS:        755 HIT:          0 MISS:        755
L1D PREFETCH REQUESTED:          0 ISSUED:          0 USEFUL:          0 USELESS:          0
L1D AVERAGE MISS LATENCY: 6.633 cycles
L1I TOTAL        ACCESS:   13622138 HIT:    5298289 MISS:    8323849
L1I LOAD         ACCESS:   13622138 HIT:    5298289 MISS:    8323849
L1I RFO          ACCESS:          0 HIT:          0 MISS:          0
L1I PREFETCH     ACCESS:          0 HIT:          0 MISS:          0
L1I WRITE        ACCESS:          0 HIT:          0 MISS:          0
L1I TRANSLATION  ACCESS:          0 HIT:          0 MISS:          0
L1I PREFETCH REQUESTED:          0 ISSUED:          0 USEFUL:          0 USELESS:          0
L1I AVERAGE MISS LATENCY: 8.264 cycles
L2C TOTAL        ACCESS:   10020482 HIT:    9723213 MISS:     297269
L2C LOAD         ACCESS:    8315384 HIT:    8025928 MISS:     289456
L2C RFO          ACCESS:     589262 HIT:     585561 MISS:       3701
L2C PREFETCH     ACCESS:          0 HIT:          0 MISS:          0
L2C WRITE        ACCESS:    1115081 HIT:    1111442 MISS:       3639
L2C TRANSLATION  ACCESS:        755 HIT:        282 MISS:        473
L2C PREFETCH REQUESTED:          0 ISSUED:          0 USEFUL:          0 USELESS:          0
L2C AVERAGE MISS LATENCY: 25.09 cycles
LLC TOTAL        ACCESS:     299499 HIT:     291506 MISS:       7993
LLC LOAD         ACCESS:     289456 HIT:     281519 MISS:       7937
LLC RFO          ACCESS:       3698 HIT:       3698 MISS:          0
LLC PREFETCH     ACCESS:          0 HIT:          0 MISS:          0
LLC WRITE        ACCESS:       5872 HIT:       5870 MISS:          2
LLC TRANSLATION  ACCESS:        473 HIT:        419 MISS:         54
LLC PREFETCH REQUESTED:          0 ISSUED:          0 USEFUL:          0 USELESS:          0
LLC AVERAGE MISS LATENCY: 197.2 cycles
cpu0_DTLB TOTAL        ACCESS:   27864613 HIT:   26736262 MISS:    1128351
cpu0_DTLB LOAD         ACCESS:   27864613 HIT:   26736262 MISS:    1128351
cpu0_DTLB RFO          ACCESS:          0 HIT:          0 MISS:          0
cpu0_DTLB PREFETCH     ACCESS:          0 HIT:          0 MISS:          0
cpu0_DTLB WRITE        ACCESS:          0 HIT:          0 MISS:          0
cpu0_DTLB TRANSLATION  ACCESS:          0 HIT:          0 MISS:          0
cpu0_DTLB PREFETCH REQUESTED:          0 ISSUED:          0 USEFUL:          0 USELESS:          0
cpu0_DTLB AVERAGE MISS LATENCY: 6.792 cycles
cpu0_ITLB TOTAL        ACCESS:   12084338 HIT:    9716727 MISS:    2367611
cpu0_ITLB LOAD         ACCESS:   12084338 HIT:    9716727 MISS:    2367611
cpu0_ITLB RFO          ACCESS:          0 HIT:          0 MISS:          0
cpu0_ITLB PREFETCH     ACCESS:          0 HIT:          0 MISS:          0
cpu0_ITLB WRITE        ACCESS:          0 HIT:          0 MISS:          0
cpu0_ITLB TRANSLATION  ACCESS:          0 HIT:          0 MISS:          0
cpu0_ITLB PREFETCH REQUESTED:          0 ISSUED:          0 USEFUL:          0 USELESS:          0
cpu0_ITLB AVERAGE MISS LATENCY: 2.962 cycles
cpu0_STLB TOTAL        ACCESS:    2124308 HIT:    2123565 MISS:        743
cpu0_STLB LOAD         ACCESS:    2124308 HIT:    2123565 MISS:        743
cpu0_STLB RFO          ACCESS:          0 HIT:          0 MISS:          0
cpu0_STLB PREFETCH     ACCESS:          0 HIT:          0 MISS:          0
cpu0_STLB WRITE        ACCESS:          0 HIT:          0 MISS:          0
cpu0_STLB TRANSLATION  ACCESS:          0 HIT:          0 MISS:          0
cpu0_STLB PREFETCH REQUESTED:          0 ISSUED:          0 USEFUL:          0 USELESS:          0
cpu0_STLB AVERAGE MISS LATENCY: 52.5 cycles

DRAM Statistics

Channel 0 RQ ROW_BUFFER_HIT:       3678
  ROW_BUFFER_MISS:       4313
 AVG DBUS CONGESTED CYCLE: 3.953
WQ ROW_BUFFER_HIT: Channel 0 
  ROW_BUFFER_MISS:          0
  FULL:          0
