WARNING: physical memory size is smaller than virtual memory size.

*** ChampSim Multicore Out-of-Order Simulator ***
Warmup Instructions: 30000000
Simulation Instructions: 100000000
Number of CPUs: 1
Page size: 4096

BTB:
Basic BTB sets: 1024 ways: 8
Indirect:
history lengths: 0 0 10 16 27 44 60 96 109 219 449 487 714 1313 2146 3881 
ITTAGE tables: 64768 bytes;Region table: 240 bytes;IUM: 384 bytes;Total Storage= 65392 bytes;
RAS:
RAS size: 64
Berti Prefetcher
CPU 0 Entangling prefetcher
Off-chip DRAM Size: 8 GiB Channels: 2 Width: 64-bit Data Race: 6400 MT/s
Heartbeat CPU 0 instructions: 10000009 cycles: 1722518 heartbeat IPC: 5.805 cumulative IPC: 5.805 (Simulation time: 00 hr 00 min 35 sec)
Heartbeat CPU 0 instructions: 20000002 cycles: 3390100 heartbeat IPC: 5.997 cumulative IPC: 5.9 (Simulation time: 00 hr 01 min 09 sec)
Heartbeat CPU 0 instructions: 30000002 cycles: 5058274 heartbeat IPC: 5.995 cumulative IPC: 5.931 (Simulation time: 00 hr 01 min 43 sec)
Warmup finished CPU 0 instructions: 30000002 cycles: 5058275 cumulative IPC: 5.931 (Simulation time: 00 hr 01 min 43 sec)
Warmup complete CPU 0 instructions: 30000002 cycles: 5058275 cumulative IPC: 5.931 (Simulation time: 00 hr 01 min 43 sec)
*** Reached end of trace: (0, "../traces/secret_traces/compute_int/compute_int_393.champsimtrace.xz")
Heartbeat CPU 0 instructions: 40000010 cycles: 8843064 heartbeat IPC: 2.642 cumulative IPC: 2.642 (Simulation time: 00 hr 02 min 34 sec)
Heartbeat CPU 0 instructions: 50000001 cycles: 14181448 heartbeat IPC: 1.873 cumulative IPC: 2.192 (Simulation time: 00 hr 03 min 38 sec)
Heartbeat CPU 0 instructions: 60000001 cycles: 19027908 heartbeat IPC: 2.063 cumulative IPC: 2.148 (Simulation time: 00 hr 04 min 34 sec)
Heartbeat CPU 0 instructions: 70000000 cycles: 23300237 heartbeat IPC: 2.341 cumulative IPC: 2.193 (Simulation time: 00 hr 05 min 27 sec)
*** Reached end of trace: (0, "../traces/secret_traces/compute_int/compute_int_393.champsimtrace.xz")
Heartbeat CPU 0 instructions: 80000002 cycles: 27430569 heartbeat IPC: 2.421 cumulative IPC: 2.235 (Simulation time: 00 hr 06 min 24 sec)
Heartbeat CPU 0 instructions: 90000000 cycles: 32660271 heartbeat IPC: 1.912 cumulative IPC: 2.174 (Simulation time: 00 hr 07 min 22 sec)
Heartbeat CPU 0 instructions: 100000001 cycles: 36933159 heartbeat IPC: 2.34 cumulative IPC: 2.196 (Simulation time: 00 hr 08 min 16 sec)
*** Reached end of trace: (0, "../traces/secret_traces/compute_int/compute_int_393.champsimtrace.xz")
Heartbeat CPU 0 instructions: 110000000 cycles: 40783787 heartbeat IPC: 2.597 cumulative IPC: 2.239 (Simulation time: 00 hr 09 min 07 sec)
Heartbeat CPU 0 instructions: 120000009 cycles: 45864210 heartbeat IPC: 1.968 cumulative IPC: 2.206 (Simulation time: 00 hr 10 min 10 sec)
Heartbeat CPU 0 instructions: 130000001 cycles: 50753950 heartbeat IPC: 2.045 cumulative IPC: 2.188 (Simulation time: 00 hr 11 min 07 sec)
Simulation finished CPU 0 instructions: 100000000 cycles: 45695677 cumulative IPC: 2.188 (Simulation time: 00 hr 11 min 07 sec)
Simulation complete CPU 0 instructions: 100000000 cycles: 45695677 cumulative IPC: 2.188 (Simulation time: 00 hr 11 min 07 sec)

ChampSim completed all CPUs

=== Simulation ===
CPU 0 runs ../traces/secret_traces/compute_int/compute_int_393.champsimtrace.xz
Region of Interest Statistics

CPU 0 cumulative IPC: 2.188 instructions: 100000000 cycles: 45695677
CPU 0 Branch Prediction Accuracy: 91.74% MPKI: 12.72 Average ROB Occupancy at Mispredict: 17.3
Branch type MPKI
BRANCH_DIRECT_JUMP: 0.0175
BRANCH_INDIRECT: 0.116
BRANCH_CONDITIONAL: 12.5
BRANCH_DIRECT_CALL: 0.0482
BRANCH_INDIRECT_CALL: 0.00398
BRANCH_RETURN: 0.0271

LLC TOTAL        ACCESS:     637767 HIT:     214309 MISS:     423458
LLC LOAD         ACCESS:      38947 HIT:       5136 MISS:      33811
LLC RFO          ACCESS:      89314 HIT:      17774 MISS:      71540
LLC PREFETCH     ACCESS:     329102 HIT:      14324 MISS:     314778
LLC WRITE        ACCESS:     177931 HIT:     176795 MISS:       1136
LLC TRANSLATION  ACCESS:       2473 HIT:        280 MISS:       2193
LLC PREFETCH REQUESTED:          0 ISSUED:          0 USEFUL:          0 USELESS:          0
LLC AVERAGE MISS LATENCY: 156.2 cycles
cpu0_DTLB TOTAL        ACCESS:   21666086 HIT:   21629071 MISS:      37015
cpu0_DTLB LOAD         ACCESS:   21666086 HIT:   21629071 MISS:      37015
cpu0_DTLB RFO          ACCESS:          0 HIT:          0 MISS:          0
cpu0_DTLB PREFETCH     ACCESS:          0 HIT:          0 MISS:          0
cpu0_DTLB WRITE        ACCESS:          0 HIT:          0 MISS:          0
cpu0_DTLB TRANSLATION  ACCESS:          0 HIT:          0 MISS:          0
cpu0_DTLB PREFETCH REQUESTED:          0 ISSUED:          0 USEFUL:          0 USELESS:          0
cpu0_DTLB AVERAGE MISS LATENCY: 16.22 cycles
cpu0_ITLB TOTAL        ACCESS:     269056 HIT:     265061 MISS:       3995
cpu0_ITLB LOAD         ACCESS:     269056 HIT:     265061 MISS:       3995
cpu0_ITLB RFO          ACCESS:          0 HIT:          0 MISS:          0
cpu0_ITLB PREFETCH     ACCESS:          0 HIT:          0 MISS:          0
cpu0_ITLB WRITE        ACCESS:          0 HIT:          0 MISS:          0
cpu0_ITLB TRANSLATION  ACCESS:          0 HIT:          0 MISS:          0
cpu0_ITLB PREFETCH REQUESTED:          0 ISSUED:          0 USEFUL:          0 USELESS:          0
cpu0_ITLB AVERAGE MISS LATENCY: 56.34 cycles
cpu0_L1D TOTAL        ACCESS:   38304404 HIT:   32668710 MISS:    5635694
cpu0_L1D LOAD         ACCESS:   13287470 HIT:   13007878 MISS:     279592
cpu0_L1D RFO          ACCESS:          0 HIT:          0 MISS:          0
cpu0_L1D PREFETCH     ACCESS:   17114192 HIT:   12232603 MISS:    4881589
cpu0_L1D WRITE        ACCESS:    7894237 HIT:    7424266 MISS:     469971
cpu0_L1D TRANSLATION  ACCESS:       8505 HIT:       3963 MISS:       4542
cpu0_L1D PREFETCH REQUESTED:   24083093 ISSUED:   17114199 USEFUL:     191431 USELESS:       2877
cpu0_L1D AVERAGE MISS LATENCY: 6.552 cycles
cpu0_L1I TOTAL        ACCESS:     391410 HIT:     318371 MISS:      73039
cpu0_L1I LOAD         ACCESS:     134983 HIT:     115134 MISS:      19849
cpu0_L1I RFO          ACCESS:          0 HIT:          0 MISS:          0
cpu0_L1I PREFETCH     ACCESS:     256427 HIT:     203237 MISS:      53190
cpu0_L1I WRITE        ACCESS:          0 HIT:          0 MISS:          0
cpu0_L1I TRANSLATION  ACCESS:          0 HIT:          0 MISS:          0
cpu0_L1I PREFETCH REQUESTED:     416732 ISSUED:     256427 USEFUL:      30816 USELESS:      19033
cpu0_L1I AVERAGE MISS LATENCY: 60.61 cycles
cpu0_L2C TOTAL        ACCESS:    9698521 HIT:    8641572 MISS:    1056949
cpu0_L2C LOAD         ACCESS:     177987 HIT:     128287 MISS:      49700
cpu0_L2C RFO          ACCESS:     157378 HIT:      67987 MISS:      89391
cpu0_L2C PREFETCH     ACCESS:    9158413 HIT:    8243726 MISS:     914687
cpu0_L2C WRITE        ACCESS:     200226 HIT:     199528 MISS:        698
cpu0_L2C TRANSLATION  ACCESS:       4517 HIT:       2044 MISS:       2473
cpu0_L2C PREFETCH REQUESTED:    4796084 ISSUED:    4551743 USEFUL:     231964 USELESS:      25897
cpu0_L2C AVERAGE MISS LATENCY: 70.86 cycles
cpu0_STLB TOTAL        ACCESS:      14122 HIT:       5998 MISS:       8124
cpu0_STLB LOAD         ACCESS:      14122 HIT:       5998 MISS:       8124
cpu0_STLB RFO          ACCESS:          0 HIT:          0 MISS:          0
cpu0_STLB PREFETCH     ACCESS:          0 HIT:          0 MISS:          0
cpu0_STLB WRITE        ACCESS:          0 HIT:          0 MISS:          0
cpu0_STLB TRANSLATION  ACCESS:          0 HIT:          0 MISS:          0
cpu0_STLB PREFETCH REQUESTED:          0 ISSUED:          0 USEFUL:          0 USELESS:          0
cpu0_STLB AVERAGE MISS LATENCY: 107 cycles

DRAM Statistics

Channel 0 RQ ROW_BUFFER_HIT:     113664
  ROW_BUFFER_MISS:      97852
 AVG DBUS CONGESTED CYCLE: 3.873
WQ ROW_BUFFER_HIT: Channel 0 
  ROW_BUFFER_MISS:      14663
  FULL:      68024

Channel 1 RQ ROW_BUFFER_HIT:     113196
  ROW_BUFFER_MISS:      97602
 AVG DBUS CONGESTED CYCLE: 3.864
WQ ROW_BUFFER_HIT: Channel 1 
  ROW_BUFFER_MISS:      14731
  FULL:      67462
BERTI TO_L1: 12759073 TO_L2: 17171892 TO_L2_BC_MSHR: 2741776
BERTI AVG_LAT: 52.3006 NUM_TRACK_LATENCY: 464287 NUM_CANT_TRACK_LATENCY: 0
BERTI CROSS_PAGE 4554670 NO_CROSS_PAGE: 25376295
BERTI FOUND_BERTI: 16629394 NO_FOUND_BERTI: 1287425
BERTI AVERAGE_ISSUED: 7.04329
CPU 0 L1I Entangling prefetcher final stats
IP accesses: 5a5 16940 690 / 137719
IP misses: 8409 210240 144 / 22585
IP hits: 0 0 0 / 0
IP late: 587a 161e80 40 / 10180
IP wrong: ef71 3bdc40 75 / 18936
miss rate: 0.163994
coverage: 0
coverage_late: 0.450742
accuracy: 0
accuracy_late: 0.349636
discarded: 0
evicts entangled j table: 0
evicts entangled k table: 2997
max bb size: 67
formats: 930 0 2467 1342 532 953 0 
hist_lookups: 1670 2052 1920 1724 1485 1258 1029 786 664 497 370 257 149 85 44 0 3 4615 
hist_lookups_evict: 0.0161221 %
hist_lookups_shortlat: 24.8012 %
bb_found_hist: 0 32687 16387 6620 2544 1519 742 245 221 170 116 0 205 6 9 4 0 0 0 0 4 0 18 0 2 0 0 0 0 0 0 0 0 0 0 0 0 0 0 0 0 0 0 0 0 0 0 0 0 0 0 0 0 0 0 0 0 0 0 0 0 0 0 0 
bb_found_summary: 116965 61499 1.90191
entangled_found_hist: 0 19402 13046 22924 4386 443 63 0 
entangled_found_summary: 134403 60264 2.23024
bb_ent_found_hist: 0 45878 23200 13389 5601 3470 1195 903 640 193 134 0 256 10 0 0 0 0 0 0 0 0 0 0 4 0 0 0 0 0 0 0 0 0 0 0 0 0 0 0 0 0 0 0 0 0 0 0 0 0 0 0 0 0 0 0 0 0 0 0 0 0 0 0 
bb_ent_found_summary: 197185 94873 2.07842
