WARNING: physical memory size is smaller than virtual memory size.

*** ChampSim Multicore Out-of-Order Simulator ***
Warmup Instructions: 30000000
Simulation Instructions: 100000000
Number of CPUs: 1
Page size: 4096

BTB:
Basic BTB sets: 1024 ways: 8
Indirect:
history lengths: 0 0 10 16 27 44 60 96 109 219 449 487 714 1313 2146 3881 
ITTAGE tables: 64768 bytes;Region table: 240 bytes;IUM: 384 bytes;Total Storage= 65392 bytes;
RAS:
RAS size: 64
Berti Prefetcher
CPU 0 Entangling prefetcher
Off-chip DRAM Size: 8 GiB Channels: 2 Width: 64-bit Data Race: 6400 MT/s
Heartbeat CPU 0 instructions: 10000001 cycles: 1669659 heartbeat IPC: 5.989 cumulative IPC: 5.989 (Simulation time: 00 hr 00 min 41 sec)
Heartbeat CPU 0 instructions: 20000002 cycles: 3336338 heartbeat IPC: 6 cumulative IPC: 5.995 (Simulation time: 00 hr 01 min 19 sec)
*** Reached end of trace: (0, "../traces/secret_traces/compute_int/compute_int_147.champsimtrace.xz")
Heartbeat CPU 0 instructions: 30000009 cycles: 5009331 heartbeat IPC: 5.977 cumulative IPC: 5.989 (Simulation time: 00 hr 01 min 53 sec)
Warmup finished CPU 0 instructions: 30000009 cycles: 5009332 cumulative IPC: 5.989 (Simulation time: 00 hr 01 min 53 sec)
Warmup complete CPU 0 instructions: 30000009 cycles: 5009332 cumulative IPC: 5.989 (Simulation time: 00 hr 01 min 53 sec)
Heartbeat CPU 0 instructions: 40000002 cycles: 7939286 heartbeat IPC: 3.413 cumulative IPC: 3.413 (Simulation time: 00 hr 02 min 39 sec)
*** Reached end of trace: (0, "../traces/secret_traces/compute_int/compute_int_147.champsimtrace.xz")
Heartbeat CPU 0 instructions: 50000005 cycles: 11007033 heartbeat IPC: 3.26 cumulative IPC: 3.335 (Simulation time: 00 hr 03 min 28 sec)
Heartbeat CPU 0 instructions: 60000003 cycles: 14219295 heartbeat IPC: 3.113 cumulative IPC: 3.257 (Simulation time: 00 hr 04 min 23 sec)
*** Reached end of trace: (0, "../traces/secret_traces/compute_int/compute_int_147.champsimtrace.xz")
Heartbeat CPU 0 instructions: 70000011 cycles: 17067856 heartbeat IPC: 3.511 cumulative IPC: 3.317 (Simulation time: 00 hr 05 min 13 sec)
Heartbeat CPU 0 instructions: 80000004 cycles: 20390914 heartbeat IPC: 3.009 cumulative IPC: 3.251 (Simulation time: 00 hr 06 min 04 sec)
*** Reached end of trace: (0, "../traces/secret_traces/compute_int/compute_int_147.champsimtrace.xz")
Heartbeat CPU 0 instructions: 90000000 cycles: 23171518 heartbeat IPC: 3.596 cumulative IPC: 3.304 (Simulation time: 00 hr 06 min 58 sec)
Heartbeat CPU 0 instructions: 100000009 cycles: 26420898 heartbeat IPC: 3.078 cumulative IPC: 3.269 (Simulation time: 00 hr 07 min 53 sec)
Heartbeat CPU 0 instructions: 110000006 cycles: 29212034 heartbeat IPC: 3.583 cumulative IPC: 3.305 (Simulation time: 00 hr 08 min 40 sec)
*** Reached end of trace: (0, "../traces/secret_traces/compute_int/compute_int_147.champsimtrace.xz")
Heartbeat CPU 0 instructions: 120000002 cycles: 32560742 heartbeat IPC: 2.986 cumulative IPC: 3.267 (Simulation time: 00 hr 09 min 31 sec)
Heartbeat CPU 0 instructions: 130000002 cycles: 35461197 heartbeat IPC: 3.448 cumulative IPC: 3.284 (Simulation time: 00 hr 10 min 21 sec)
Simulation finished CPU 0 instructions: 100000000 cycles: 30451870 cumulative IPC: 3.284 (Simulation time: 00 hr 10 min 21 sec)
Simulation complete CPU 0 instructions: 100000000 cycles: 30451870 cumulative IPC: 3.284 (Simulation time: 00 hr 10 min 21 sec)

ChampSim completed all CPUs

=== Simulation ===
CPU 0 runs ../traces/secret_traces/compute_int/compute_int_147.champsimtrace.xz
Region of Interest Statistics

CPU 0 cumulative IPC: 3.284 instructions: 100000000 cycles: 30451870
CPU 0 Branch Prediction Accuracy: 94.67% MPKI: 7.137 Average ROB Occupancy at Mispredict: 38.85
Branch type MPKI
BRANCH_DIRECT_JUMP: 0
BRANCH_INDIRECT: 0.00054
BRANCH_CONDITIONAL: 7.14
BRANCH_DIRECT_CALL: 0
BRANCH_INDIRECT_CALL: 0
BRANCH_RETURN: 8e-05

LLC TOTAL        ACCESS:     757764 HIT:     301990 MISS:     455774
LLC LOAD         ACCESS:      10644 HIT:        366 MISS:      10278
LLC RFO          ACCESS:     122918 HIT:        115 MISS:     122803
LLC PREFETCH     ACCESS:     322998 HIT:        466 MISS:     322532
LLC WRITE        ACCESS:     301104 HIT:     301020 MISS:         84
LLC TRANSLATION  ACCESS:        100 HIT:         23 MISS:         77
LLC PREFETCH REQUESTED:          0 ISSUED:          0 USEFUL:          0 USELESS:          0
LLC AVERAGE MISS LATENCY: 168.6 cycles
cpu0_DTLB TOTAL        ACCESS:   22676442 HIT:   22663367 MISS:      13075
cpu0_DTLB LOAD         ACCESS:   22676442 HIT:   22663367 MISS:      13075
cpu0_DTLB RFO          ACCESS:          0 HIT:          0 MISS:          0
cpu0_DTLB PREFETCH     ACCESS:          0 HIT:          0 MISS:          0
cpu0_DTLB WRITE        ACCESS:          0 HIT:          0 MISS:          0
cpu0_DTLB TRANSLATION  ACCESS:          0 HIT:          0 MISS:          0
cpu0_DTLB PREFETCH REQUESTED:          0 ISSUED:          0 USEFUL:          0 USELESS:          0
cpu0_DTLB AVERAGE MISS LATENCY: 4.726 cycles
cpu0_ITLB TOTAL        ACCESS:       9928 HIT:       9928 MISS:          0
cpu0_ITLB LOAD         ACCESS:       9928 HIT:       9928 MISS:          0
cpu0_ITLB RFO          ACCESS:          0 HIT:          0 MISS:          0
cpu0_ITLB PREFETCH     ACCESS:          0 HIT:          0 MISS:          0
cpu0_ITLB WRITE        ACCESS:          0 HIT:          0 MISS:          0
cpu0_ITLB TRANSLATION  ACCESS:          0 HIT:          0 MISS:          0
cpu0_ITLB PREFETCH REQUESTED:          0 ISSUED:          0 USEFUL:          0 USELESS:          0
cpu0_ITLB AVERAGE MISS LATENCY: -nan cycles
cpu0_L1D TOTAL        ACCESS:   45642796 HIT:   38745543 MISS:    6897253
cpu0_L1D LOAD         ACCESS:   19436363 HIT:   19268429 MISS:     167934
cpu0_L1D RFO          ACCESS:          0 HIT:          0 MISS:          0
cpu0_L1D PREFETCH     ACCESS:   16829912 HIT:   12922996 MISS:    3906916
cpu0_L1D WRITE        ACCESS:    9376306 HIT:    6554115 MISS:    2822191
cpu0_L1D TRANSLATION  ACCESS:        215 HIT:          3 MISS:        212
cpu0_L1D PREFETCH REQUESTED:   21809958 ISSUED:   16829909 USEFUL:     123174 USELESS:       1019
cpu0_L1D AVERAGE MISS LATENCY: 3.988 cycles
cpu0_L1I TOTAL        ACCESS:      14024 HIT:      13500 MISS:        524
cpu0_L1I LOAD         ACCESS:       6658 HIT:       6358 MISS:        300
cpu0_L1I RFO          ACCESS:          0 HIT:          0 MISS:          0
cpu0_L1I PREFETCH     ACCESS:       7366 HIT:       7142 MISS:        224
cpu0_L1I WRITE        ACCESS:          0 HIT:          0 MISS:          0
cpu0_L1I TRANSLATION  ACCESS:          0 HIT:          0 MISS:          0
cpu0_L1I PREFETCH REQUESTED:       8549 ISSUED:       7366 USEFUL:        104 USELESS:          5
cpu0_L1I AVERAGE MISS LATENCY: 161 cycles
cpu0_L2C TOTAL        ACCESS:    7859775 HIT:    6761747 MISS:    1098028
cpu0_L2C LOAD         ACCESS:      57670 HIT:      42468 MISS:      15202
cpu0_L2C RFO          ACCESS:     303497 HIT:     173498 MISS:     129999
cpu0_L2C PREFETCH     ACCESS:    7197709 HIT:    6244986 MISS:     952723
cpu0_L2C WRITE        ACCESS:     300687 HIT:     300683 MISS:          4
cpu0_L2C TRANSLATION  ACCESS:        212 HIT:        112 MISS:        100
cpu0_L2C PREFETCH REQUESTED:    3720936 ISSUED:    3534424 USEFUL:     211897 USELESS:       9853
cpu0_L2C AVERAGE MISS LATENCY: 77.37 cycles
cpu0_STLB TOTAL        ACCESS:       7785 HIT:       7570 MISS:        215
cpu0_STLB LOAD         ACCESS:       7785 HIT:       7570 MISS:        215
cpu0_STLB RFO          ACCESS:          0 HIT:          0 MISS:          0
cpu0_STLB PREFETCH     ACCESS:          0 HIT:          0 MISS:          0
cpu0_STLB WRITE        ACCESS:          0 HIT:          0 MISS:          0
cpu0_STLB TRANSLATION  ACCESS:          0 HIT:          0 MISS:          0
cpu0_STLB PREFETCH REQUESTED:          0 ISSUED:          0 USEFUL:          0 USELESS:          0
cpu0_STLB AVERAGE MISS LATENCY: 105.7 cycles

DRAM Statistics

Channel 0 RQ ROW_BUFFER_HIT:      71113
  ROW_BUFFER_MISS:     156865
 AVG DBUS CONGESTED CYCLE: 3.906
WQ ROW_BUFFER_HIT: Channel 0 
  ROW_BUFFER_MISS:      66075
  FULL:      84034

Channel 1 RQ ROW_BUFFER_HIT:      71136
  ROW_BUFFER_MISS:     156575
 AVG DBUS CONGESTED CYCLE: 3.904
WQ ROW_BUFFER_HIT: Channel 1 
  ROW_BUFFER_MISS:      66024
  FULL:      84020
BERTI TO_L1: 7148545 TO_L2: 17084033 TO_L2_BC_MSHR: 894308
BERTI AVG_LAT: 63.6996 NUM_TRACK_LATENCY: 275208 NUM_CANT_TRACK_LATENCY: 0
BERTI CROSS_PAGE 3205620 NO_CROSS_PAGE: 21026958
BERTI FOUND_BERTI: 12470348 NO_FOUND_BERTI: 13303825
BERTI AVERAGE_ISSUED: 4.35366
CPU 0 L1I Entangling prefetcher final stats
IP accesses: 6a5 1a940 135 / 6658
IP misses: 3a2d e8b40 37 / 300
IP hits: 0 0 0 / 0
IP late: 124 4900 9 / 172
IP wrong: 16d 5b40 5 / 5
miss rate: 0.0450586
coverage: 0
coverage_late: 0.573334
accuracy: 0
accuracy_late: 0.971752
discarded: 0
evicts entangled j table: 0
evicts entangled k table: 0
max bb size: 6
formats: 2 0 1 1 0 2 0 
hist_lookups: 1 0 1 0 0 0 1 2 1 0 0 0 4 2 0 0 0 279 
hist_lookups_evict: 0 %
hist_lookups_shortlat: 95.8763 %
bb_found_hist: 0 1253 566 232 75 111 9 0 0 0 0 0 0 0 0 0 0 0 0 0 0 0 0 0 0 0 0 0 0 0 0 0 0 0 0 0 0 0 0 0 0 0 0 0 0 0 0 0 0 0 0 0 0 0 0 0 0 0 0 0 0 0 0 0 
bb_found_summary: 3990 2246 1.7765
entangled_found_hist: 0 719 371 238 27 9 0 0 
entangled_found_summary: 2328 1364 1.70675
bb_ent_found_hist: 0 847 245 163 52 61 9 0 0 0 0 0 0 0 0 0 0 0 0 0 0 0 0 0 0 0 0 0 0 0 0 0 0 0 0 0 0 0 0 0 0 0 0 0 0 0 0 0 0 0 0 0 0 0 0 0 0 0 0 0 0 0 0 0 
bb_ent_found_summary: 2393 1377 1.73784
