WARNING: physical memory size is smaller than virtual memory size.

*** ChampSim Multicore Out-of-Order Simulator ***
Warmup Instructions: 30000000
Simulation Instructions: 100000000
Number of CPUs: 1
Page size: 4096

BTB:
Basic BTB sets: 1024 ways: 8
Indirect:
history lengths: 0 0 10 16 27 44 60 96 109 219 449 487 714 1313 2146 3881 
ITTAGE tables: 64768 bytes;Region table: 240 bytes;IUM: 384 bytes;Total Storage= 65392 bytes;
RAS:
RAS size: 64
Berti Prefetcher
CPU 0 Entangling prefetcher
Off-chip DRAM Size: 8 GiB Channels: 2 Width: 64-bit Data Race: 6400 MT/s
Heartbeat CPU 0 instructions: 10000003 cycles: 1666725 heartbeat IPC: 6 cumulative IPC: 6 (Simulation time: 00 hr 00 min 35 sec)
Heartbeat CPU 0 instructions: 20000004 cycles: 3333499 heartbeat IPC: 6 cumulative IPC: 6 (Simulation time: 00 hr 01 min 10 sec)
Heartbeat CPU 0 instructions: 30000000 cycles: 5000165 heartbeat IPC: 6 cumulative IPC: 6 (Simulation time: 00 hr 01 min 46 sec)
Warmup finished CPU 0 instructions: 30000000 cycles: 5000166 cumulative IPC: 6 (Simulation time: 00 hr 01 min 46 sec)
Warmup complete CPU 0 instructions: 30000000 cycles: 5000166 cumulative IPC: 6 (Simulation time: 00 hr 01 min 46 sec)
Heartbeat CPU 0 instructions: 40000006 cycles: 8320138 heartbeat IPC: 3.012 cumulative IPC: 3.012 (Simulation time: 00 hr 02 min 36 sec)
Heartbeat CPU 0 instructions: 50000000 cycles: 11432476 heartbeat IPC: 3.213 cumulative IPC: 3.109 (Simulation time: 00 hr 03 min 26 sec)
Heartbeat CPU 0 instructions: 60000001 cycles: 14448310 heartbeat IPC: 3.316 cumulative IPC: 3.175 (Simulation time: 00 hr 04 min 15 sec)
Heartbeat CPU 0 instructions: 70000004 cycles: 17759441 heartbeat IPC: 3.02 cumulative IPC: 3.135 (Simulation time: 00 hr 05 min 06 sec)
Heartbeat CPU 0 instructions: 80000000 cycles: 20673656 heartbeat IPC: 3.431 cumulative IPC: 3.19 (Simulation time: 00 hr 05 min 54 sec)
Heartbeat CPU 0 instructions: 90000005 cycles: 23990875 heartbeat IPC: 3.015 cumulative IPC: 3.159 (Simulation time: 00 hr 06 min 45 sec)
Heartbeat CPU 0 instructions: 100000005 cycles: 27477775 heartbeat IPC: 2.868 cumulative IPC: 3.114 (Simulation time: 00 hr 07 min 38 sec)
*** Reached end of trace: (0, "../traces/secret_traces/compute_int/compute_int_527.champsimtrace.xz")
Heartbeat CPU 0 instructions: 110000002 cycles: 30506161 heartbeat IPC: 3.302 cumulative IPC: 3.137 (Simulation time: 00 hr 08 min 27 sec)
Heartbeat CPU 0 instructions: 120000008 cycles: 33344851 heartbeat IPC: 3.523 cumulative IPC: 3.175 (Simulation time: 00 hr 09 min 14 sec)
Heartbeat CPU 0 instructions: 130000000 cycles: 36160490 heartbeat IPC: 3.552 cumulative IPC: 3.209 (Simulation time: 00 hr 10 min 02 sec)
Simulation finished CPU 0 instructions: 100000000 cycles: 31160325 cumulative IPC: 3.209 (Simulation time: 00 hr 10 min 02 sec)
Simulation complete CPU 0 instructions: 100000000 cycles: 31160325 cumulative IPC: 3.209 (Simulation time: 00 hr 10 min 02 sec)

ChampSim completed all CPUs

=== Simulation ===
CPU 0 runs ../traces/secret_traces/compute_int/compute_int_527.champsimtrace.xz
Region of Interest Statistics

CPU 0 cumulative IPC: 3.209 instructions: 100000000 cycles: 31160325
CPU 0 Branch Prediction Accuracy: 97.38% MPKI: 3.27 Average ROB Occupancy at Mispredict: 50.75
Branch type MPKI
BRANCH_DIRECT_JUMP: 9e-05
BRANCH_INDIRECT: 0.598
BRANCH_CONDITIONAL: 2.67
BRANCH_DIRECT_CALL: 2e-05
BRANCH_INDIRECT_CALL: 0
BRANCH_RETURN: 7e-05

LLC TOTAL        ACCESS:      98215 HIT:      26479 MISS:      71736
LLC LOAD         ACCESS:      31741 HIT:       1590 MISS:      30151
LLC RFO          ACCESS:        443 HIT:        295 MISS:        148
LLC PREFETCH     ACCESS:      23663 HIT:       1745 MISS:      21918
LLC WRITE        ACCESS:      21654 HIT:      21594 MISS:         60
LLC TRANSLATION  ACCESS:      20714 HIT:       1255 MISS:      19459
LLC PREFETCH REQUESTED:          0 ISSUED:          0 USEFUL:          0 USELESS:          0
LLC AVERAGE MISS LATENCY: 108.4 cycles
cpu0_DTLB TOTAL        ACCESS:   14183516 HIT:   14105362 MISS:      78154
cpu0_DTLB LOAD         ACCESS:   14183516 HIT:   14105362 MISS:      78154
cpu0_DTLB RFO          ACCESS:          0 HIT:          0 MISS:          0
cpu0_DTLB PREFETCH     ACCESS:          0 HIT:          0 MISS:          0
cpu0_DTLB WRITE        ACCESS:          0 HIT:          0 MISS:          0
cpu0_DTLB TRANSLATION  ACCESS:          0 HIT:          0 MISS:          0
cpu0_DTLB PREFETCH REQUESTED:          0 ISSUED:          0 USEFUL:          0 USELESS:          0
cpu0_DTLB AVERAGE MISS LATENCY: 79.18 cycles
cpu0_ITLB TOTAL        ACCESS:   13028967 HIT:   13028967 MISS:          0
cpu0_ITLB LOAD         ACCESS:   13028967 HIT:   13028967 MISS:          0
cpu0_ITLB RFO          ACCESS:          0 HIT:          0 MISS:          0
cpu0_ITLB PREFETCH     ACCESS:          0 HIT:          0 MISS:          0
cpu0_ITLB WRITE        ACCESS:          0 HIT:          0 MISS:          0
cpu0_ITLB TRANSLATION  ACCESS:          0 HIT:          0 MISS:          0
cpu0_ITLB PREFETCH REQUESTED:          0 ISSUED:          0 USEFUL:          0 USELESS:          0
cpu0_ITLB AVERAGE MISS LATENCY: -nan cycles
cpu0_L1D TOTAL        ACCESS:   20454236 HIT:   20208027 MISS:     246209
cpu0_L1D LOAD         ACCESS:   14522840 HIT:   14360382 MISS:     162458
cpu0_L1D RFO          ACCESS:          0 HIT:          0 MISS:          0
cpu0_L1D PREFETCH     ACCESS:         58 HIT:         42 MISS:         16
cpu0_L1D WRITE        ACCESS:    5891194 HIT:    5836071 MISS:      55123
cpu0_L1D TRANSLATION  ACCESS:      40144 HIT:      11532 MISS:      28612
cpu0_L1D PREFETCH REQUESTED:         58 ISSUED:         58 USEFUL:          0 USELESS:          0
cpu0_L1D AVERAGE MISS LATENCY: 30.61 cycles
cpu0_L1I TOTAL        ACCESS:   20248530 HIT:   19652335 MISS:     596195
cpu0_L1I LOAD         ACCESS:    7394466 HIT:    7135242 MISS:     259224
cpu0_L1I RFO          ACCESS:          0 HIT:          0 MISS:          0
cpu0_L1I PREFETCH     ACCESS:   12854064 HIT:   12517093 MISS:     336971
cpu0_L1I WRITE        ACCESS:          0 HIT:          0 MISS:          0
cpu0_L1I TRANSLATION  ACCESS:          0 HIT:          0 MISS:          0
cpu0_L1I PREFETCH REQUESTED:   94831592 ISSUED:   12854033 USEFUL:     172315 USELESS:     146506
cpu0_L1I AVERAGE MISS LATENCY: 7.794 cycles
cpu0_L2C TOTAL        ACCESS:    1191597 HIT:    1105052 MISS:      86545
cpu0_L2C LOAD         ACCESS:     227861 HIT:     195846 MISS:      32015
cpu0_L2C RFO          ACCESS:      22539 HIT:      22086 MISS:        453
cpu0_L2C PREFETCH     ACCESS:     865451 HIT:     832095 MISS:      33356
cpu0_L2C WRITE        ACCESS:      47170 HIT:      47163 MISS:          7
cpu0_L2C TRANSLATION  ACCESS:      28576 HIT:       7862 MISS:      20714
cpu0_L2C PREFETCH REQUESTED:     546724 ISSUED:     546588 USEFUL:       1707 USELESS:      20998
cpu0_L2C AVERAGE MISS LATENCY: 108.1 cycles
cpu0_STLB TOTAL        ACCESS:      25790 HIT:       4524 MISS:      21266
cpu0_STLB LOAD         ACCESS:      25790 HIT:       4524 MISS:      21266
cpu0_STLB RFO          ACCESS:          0 HIT:          0 MISS:          0
cpu0_STLB PREFETCH     ACCESS:          0 HIT:          0 MISS:          0
cpu0_STLB WRITE        ACCESS:          0 HIT:          0 MISS:          0
cpu0_STLB TRANSLATION  ACCESS:          0 HIT:          0 MISS:          0
cpu0_STLB PREFETCH REQUESTED:          0 ISSUED:          0 USEFUL:          0 USELESS:          0
cpu0_STLB AVERAGE MISS LATENCY: 291.9 cycles

DRAM Statistics

Channel 0 RQ ROW_BUFFER_HIT:      17493
  ROW_BUFFER_MISS:      18238
 AVG DBUS CONGESTED CYCLE: 3.385
WQ ROW_BUFFER_HIT: Channel 0 
  ROW_BUFFER_MISS:        756
  FULL:       6038

Channel 1 RQ ROW_BUFFER_HIT:      17684
  ROW_BUFFER_MISS:      18260
 AVG DBUS CONGESTED CYCLE: 3.385
WQ ROW_BUFFER_HIT: Channel 1 
  ROW_BUFFER_MISS:        777
  FULL:       6115
BERTI TO_L1: 38 TO_L2: 216 TO_L2_BC_MSHR: 0
BERTI AVG_LAT: 57.6332 NUM_TRACK_LATENCY: 83209 NUM_CANT_TRACK_LATENCY: 0
BERTI CROSS_PAGE 4 NO_CROSS_PAGE: 250
BERTI FOUND_BERTI: 656579 NO_FOUND_BERTI: 18351311
BERTI AVERAGE_ISSUED: 1
CPU 0 L1I Entangling prefetcher final stats
IP accesses: 256 9580 71886 / 7394525
IP misses: 282 a080 8771 / 259283
IP hits: 0 0 0 / 0
IP late: 282 a080 4419 / 84816
IP wrong: 142 5080 5839 / 143315
miss rate: 0.0350642
coverage: 0
coverage_late: 0.327118
accuracy: 0
accuracy_late: 0.371787
discarded: 0
evicts entangled j table: 0
evicts entangled k table: 6818
max bb size: 65
formats: 21 0 118 28 5113 8743 0 
hist_lookups: 13778 14466 18191 14404 8563 5559 3331 1847 1733 1139 573 491 321 103 50 0 0 1636 
hist_lookups_evict: 0 %
hist_lookups_shortlat: 1.89825 %
bb_found_hist: 0 1141610 702070 565640 382789 364481 211131 153634 105991 164780 72917 84449 67961 32762 17687 45250 7979 192 488 0 5568 61 18081 14 0 0 0 0 38818 0 1708 21383 11044 0 1 14788 4 398 17867 16435 0 43689 0 0 360 0 28 0 65908 0 0 0 29901 0 0 0 0 17913 0 0 0 0 0 3703 
bb_found_summary: 28533738 4429483 6.44178
entangled_found_hist: 0 487504 387897 350734 615371 1553050 288897 0 
entangled_found_summary: 14275616 3683453 3.87561
bb_ent_found_hist: 0 3649467 1649705 1117213 1600026 645209 503222 449773 209006 197936 151810 276204 178630 26099 131724 44887 37572 279 7444 0 0 0 2 235 0 0 0 0 38850 0 0 0 144 0 56 0 57 0 0 278177 0 0 0 0 0 0 0 0 0 0 0 0 0 0 0 0 0 17909 0 0 0 0 0 0 
bb_ent_found_summary: 52815928 11211636 4.71082
