WARNING: physical memory size is smaller than virtual memory size.

*** ChampSim Multicore Out-of-Order Simulator ***
Warmup Instructions: 30000000
Simulation Instructions: 100000000
Number of CPUs: 1
Page size: 4096

BTB:
Basic BTB sets: 1024 ways: 8
Indirect:
history lengths: 0 0 10 16 27 44 60 96 109 219 449 487 714 1313 2146 3881 
ITTAGE tables: 64768 bytes;Region table: 240 bytes;IUM: 384 bytes;Total Storage= 65392 bytes;
RAS:
RAS size: 64
Berti Prefetcher
CPU 0 Entangling prefetcher
Off-chip DRAM Size: 8 GiB Channels: 2 Width: 64-bit Data Race: 6400 MT/s
Heartbeat CPU 0 instructions: 10000007 cycles: 1668154 heartbeat IPC: 5.995 cumulative IPC: 5.995 (Simulation time: 00 hr 00 min 38 sec)
Heartbeat CPU 0 instructions: 20000006 cycles: 3349927 heartbeat IPC: 5.946 cumulative IPC: 5.97 (Simulation time: 00 hr 01 min 16 sec)
Heartbeat CPU 0 instructions: 30000001 cycles: 5018593 heartbeat IPC: 5.993 cumulative IPC: 5.978 (Simulation time: 00 hr 02 min 01 sec)
Warmup finished CPU 0 instructions: 30000001 cycles: 5018594 cumulative IPC: 5.978 (Simulation time: 00 hr 02 min 01 sec)
Warmup complete CPU 0 instructions: 30000001 cycles: 5018594 cumulative IPC: 5.978 (Simulation time: 00 hr 02 min 01 sec)
Heartbeat CPU 0 instructions: 40000001 cycles: 8978352 heartbeat IPC: 2.525 cumulative IPC: 2.525 (Simulation time: 00 hr 03 min 14 sec)
Heartbeat CPU 0 instructions: 50000001 cycles: 12894608 heartbeat IPC: 2.553 cumulative IPC: 2.539 (Simulation time: 00 hr 04 min 09 sec)
Heartbeat CPU 0 instructions: 60000002 cycles: 16748650 heartbeat IPC: 2.595 cumulative IPC: 2.558 (Simulation time: 00 hr 05 min 04 sec)
Heartbeat CPU 0 instructions: 70000000 cycles: 20604781 heartbeat IPC: 2.593 cumulative IPC: 2.566 (Simulation time: 00 hr 05 min 59 sec)
Heartbeat CPU 0 instructions: 80000000 cycles: 24560874 heartbeat IPC: 2.528 cumulative IPC: 2.559 (Simulation time: 00 hr 07 min 00 sec)
Heartbeat CPU 0 instructions: 90000011 cycles: 28254961 heartbeat IPC: 2.707 cumulative IPC: 2.582 (Simulation time: 00 hr 08 min 02 sec)
Heartbeat CPU 0 instructions: 100000000 cycles: 32061817 heartbeat IPC: 2.627 cumulative IPC: 2.588 (Simulation time: 00 hr 09 min 03 sec)
*** Reached end of trace: (0, "../traces/secret_traces/compute_int/compute_int_666.champsimtrace.xz")
Heartbeat CPU 0 instructions: 110000009 cycles: 35902710 heartbeat IPC: 2.604 cumulative IPC: 2.59 (Simulation time: 00 hr 09 min 58 sec)
Heartbeat CPU 0 instructions: 120000002 cycles: 40192063 heartbeat IPC: 2.331 cumulative IPC: 2.559 (Simulation time: 00 hr 10 min 55 sec)
Heartbeat CPU 0 instructions: 130000004 cycles: 44176399 heartbeat IPC: 2.51 cumulative IPC: 2.554 (Simulation time: 00 hr 11 min 52 sec)
Simulation finished CPU 0 instructions: 100000003 cycles: 39157806 cumulative IPC: 2.554 (Simulation time: 00 hr 11 min 52 sec)
Simulation complete CPU 0 instructions: 100000003 cycles: 39157806 cumulative IPC: 2.554 (Simulation time: 00 hr 11 min 52 sec)

ChampSim completed all CPUs

=== Simulation ===
CPU 0 runs ../traces/secret_traces/compute_int/compute_int_666.champsimtrace.xz
Region of Interest Statistics

CPU 0 cumulative IPC: 2.554 instructions: 100000003 cycles: 39157806
CPU 0 Branch Prediction Accuracy: 94.58% MPKI: 9.229 Average ROB Occupancy at Mispredict: 24.8
Branch type MPKI
BRANCH_DIRECT_JUMP: 0.0128
BRANCH_INDIRECT: 3.17
BRANCH_CONDITIONAL: 5.99
BRANCH_DIRECT_CALL: 0.0264
BRANCH_INDIRECT_CALL: 0.0113
BRANCH_RETURN: 0.0138

LLC TOTAL        ACCESS:     136765 HIT:      59744 MISS:      77021
LLC LOAD         ACCESS:      33402 HIT:       6629 MISS:      26773
LLC RFO          ACCESS:       8543 HIT:       4892 MISS:       3651
LLC PREFETCH     ACCESS:      56516 HIT:      12809 MISS:      43707
LLC WRITE        ACCESS:      35469 HIT:      34383 MISS:       1086
LLC TRANSLATION  ACCESS:       2835 HIT:       1031 MISS:       1804
LLC PREFETCH REQUESTED:          0 ISSUED:          0 USEFUL:          0 USELESS:          0
LLC AVERAGE MISS LATENCY: 170.7 cycles
cpu0_DTLB TOTAL        ACCESS:   16780958 HIT:   16721567 MISS:      59391
cpu0_DTLB LOAD         ACCESS:   16780958 HIT:   16721567 MISS:      59391
cpu0_DTLB RFO          ACCESS:          0 HIT:          0 MISS:          0
cpu0_DTLB PREFETCH     ACCESS:          0 HIT:          0 MISS:          0
cpu0_DTLB WRITE        ACCESS:          0 HIT:          0 MISS:          0
cpu0_DTLB TRANSLATION  ACCESS:          0 HIT:          0 MISS:          0
cpu0_DTLB PREFETCH REQUESTED:          0 ISSUED:          0 USEFUL:          0 USELESS:          0
cpu0_DTLB AVERAGE MISS LATENCY: 13.75 cycles
cpu0_ITLB TOTAL        ACCESS:   17482444 HIT:   17480157 MISS:       2287
cpu0_ITLB LOAD         ACCESS:   17482444 HIT:   17480157 MISS:       2287
cpu0_ITLB RFO          ACCESS:          0 HIT:          0 MISS:          0
cpu0_ITLB PREFETCH     ACCESS:          0 HIT:          0 MISS:          0
cpu0_ITLB WRITE        ACCESS:          0 HIT:          0 MISS:          0
cpu0_ITLB TRANSLATION  ACCESS:          0 HIT:          0 MISS:          0
cpu0_ITLB PREFETCH REQUESTED:          0 ISSUED:          0 USEFUL:          0 USELESS:          0
cpu0_ITLB AVERAGE MISS LATENCY: 56.52 cycles
cpu0_L1D TOTAL        ACCESS:   23937363 HIT:   23172855 MISS:     764508
cpu0_L1D LOAD         ACCESS:   14407253 HIT:   14157043 MISS:     250210
cpu0_L1D RFO          ACCESS:          0 HIT:          0 MISS:          0
cpu0_L1D PREFETCH     ACCESS:    1366164 HIT:    1092870 MISS:     273294
cpu0_L1D WRITE        ACCESS:    8152950 HIT:    7922191 MISS:     230759
cpu0_L1D TRANSLATION  ACCESS:      10996 HIT:        751 MISS:      10245
cpu0_L1D PREFETCH REQUESTED:    2981193 ISSUED:    1366164 USEFUL:      23803 USELESS:       9019
cpu0_L1D AVERAGE MISS LATENCY: 12.04 cycles
cpu0_L1I TOTAL        ACCESS:   27663525 HIT:   24647079 MISS:    3016446
cpu0_L1I LOAD         ACCESS:    6967449 HIT:    6100203 MISS:     867246
cpu0_L1I RFO          ACCESS:          0 HIT:          0 MISS:          0
cpu0_L1I PREFETCH     ACCESS:   20696076 HIT:   18546876 MISS:    2149200
cpu0_L1I WRITE        ACCESS:          0 HIT:          0 MISS:          0
cpu0_L1I TRANSLATION  ACCESS:          0 HIT:          0 MISS:          0
cpu0_L1I PREFETCH REQUESTED:   87732029 ISSUED:   20696100 USEFUL:     970247 USELESS:    1092691
cpu0_L1I AVERAGE MISS LATENCY: 9.782 cycles
cpu0_L2C TOTAL        ACCESS:    6288508 HIT:    6172978 MISS:     115530
cpu0_L2C LOAD         ACCESS:     767712 HIT:     733185 MISS:      34527
cpu0_L2C RFO          ACCESS:      98747 HIT:      90187 MISS:       8560
cpu0_L2C PREFETCH     ACCESS:    5273020 HIT:    5203419 MISS:      69601
cpu0_L2C WRITE        ACCESS:     138794 HIT:     138787 MISS:          7
cpu0_L2C TRANSLATION  ACCESS:      10235 HIT:       7400 MISS:       2835
cpu0_L2C PREFETCH REQUESTED:    3047968 ISSUED:    2992764 USEFUL:      15671 USELESS:      29054
cpu0_L2C AVERAGE MISS LATENCY: 131.1 cycles
cpu0_STLB TOTAL        ACCESS:      37522 HIT:      26700 MISS:      10822
cpu0_STLB LOAD         ACCESS:      37522 HIT:      26700 MISS:      10822
cpu0_STLB RFO          ACCESS:          0 HIT:          0 MISS:          0
cpu0_STLB PREFETCH     ACCESS:          0 HIT:          0 MISS:          0
cpu0_STLB WRITE        ACCESS:          0 HIT:          0 MISS:          0
cpu0_STLB TRANSLATION  ACCESS:          0 HIT:          0 MISS:          0
cpu0_STLB PREFETCH REQUESTED:          0 ISSUED:          0 USEFUL:          0 USELESS:          0
cpu0_STLB AVERAGE MISS LATENCY: 64.48 cycles

DRAM Statistics

Channel 0 RQ ROW_BUFFER_HIT:       4282
  ROW_BUFFER_MISS:      33929
 AVG DBUS CONGESTED CYCLE: 3.797
WQ ROW_BUFFER_HIT: Channel 0 
  ROW_BUFFER_MISS:       1895
  FULL:      10727

Channel 1 RQ ROW_BUFFER_HIT:       4160
  ROW_BUFFER_MISS:      33561
 AVG DBUS CONGESTED CYCLE: 3.781
WQ ROW_BUFFER_HIT: Channel 1 
  ROW_BUFFER_MISS:       1919
  FULL:      10403
BERTI TO_L1: 1724418 TO_L2: 2154114 TO_L2_BC_MSHR: 93768
BERTI AVG_LAT: 37.6449 NUM_TRACK_LATENCY: 225479 NUM_CANT_TRACK_LATENCY: 0
BERTI CROSS_PAGE 1435507 NO_CROSS_PAGE: 2443025
BERTI FOUND_BERTI: 1794357 NO_FOUND_BERTI: 17037185
BERTI AVERAGE_ISSUED: 4.16739
CPU 0 L1I Entangling prefetcher final stats
IP accesses: 54c 15300 94133 / 6968435
IP misses: 54c 15300 24553 / 868232
IP hits: 0 0 0 / 0
IP late: 550 15400 5865 / 364838
IP wrong: 254e 95380 10921 / 1079181
miss rate: 0.124595
coverage: 0
coverage_late: 0.420208
accuracy: 0
accuracy_late: 0.252655
discarded: 0
evicts entangled j table: 0
evicts entangled k table: 104352
max bb size: 65
formats: 260 0 61758 28570 17444 31761 0 
hist_lookups: 70898 88498 83287 78918 65709 47908 28350 15420 8300 5443 4275 2911 1732 1069 458 0 0 10199 
hist_lookups_evict: 0 %
hist_lookups_shortlat: 1.98666 %
bb_found_hist: 0 1314844 1078953 739916 489009 398983 300751 228688 180632 99916 44550 95932 21180 41115 11579 2839 66358 7644 11605 14644 0 32730 0 0 0 0 0 0 0 0 0 0 0 0 0 0 0 0 0 0 0 0 0 0 0 0 0 0 0 0 0 0 0 0 0 0 0 0 0 0 0 0 0 0 
bb_found_summary: 20253301 5181868 3.9085
entangled_found_hist: 0 497107 878221 2284179 736993 344879 118136 0 
entangled_found_summary: 14487269 4859515 2.98122
bb_ent_found_hist: 0 2746363 2670770 1847347 1673378 830068 820576 854934 236593 280447 109027 564451 97004 61783 24964 19353 219369 24 34130 98384 0 841 0 0 0 0 0 0 0 0 0 0 0 0 0 0 0 0 0 0 0 0 0 0 0 0 0 0 0 0 0 0 0 0 0 0 0 0 0 0 0 0 0 0 
bb_ent_found_summary: 55716415 13189806 4.22421
