WARNING: physical memory size is smaller than virtual memory size.

*** ChampSim Multicore Out-of-Order Simulator ***
Warmup Instructions: 30000000
Simulation Instructions: 100000000
Number of CPUs: 1
Page size: 4096

BTB:
Basic BTB sets: 1024 ways: 8
Indirect:
history lengths: 0 0 10 16 27 44 60 96 109 219 449 487 714 1313 2146 3881 
ITTAGE tables: 64768 bytes;Region table: 240 bytes;IUM: 384 bytes;Total Storage= 65392 bytes;
RAS:
RAS size: 64
Berti Prefetcher
CPU 0 Entangling prefetcher
Off-chip DRAM Size: 8 GiB Channels: 2 Width: 64-bit Data Race: 6400 MT/s
Heartbeat CPU 0 instructions: 10000003 cycles: 1680305 heartbeat IPC: 5.951 cumulative IPC: 5.951 (Simulation time: 00 hr 00 min 34 sec)
Heartbeat CPU 0 instructions: 20000008 cycles: 3397741 heartbeat IPC: 5.823 cumulative IPC: 5.886 (Simulation time: 00 hr 01 min 09 sec)
Heartbeat CPU 0 instructions: 30000005 cycles: 5066517 heartbeat IPC: 5.992 cumulative IPC: 5.921 (Simulation time: 00 hr 01 min 44 sec)
Warmup finished CPU 0 instructions: 30000005 cycles: 5066518 cumulative IPC: 5.921 (Simulation time: 00 hr 01 min 44 sec)
Warmup complete CPU 0 instructions: 30000005 cycles: 5066518 cumulative IPC: 5.921 (Simulation time: 00 hr 01 min 44 sec)
*** Reached end of trace: (0, "../traces/secret_traces/compute_int/compute_int_737.champsimtrace.xz")
Heartbeat CPU 0 instructions: 40000008 cycles: 9523681 heartbeat IPC: 2.244 cumulative IPC: 2.244 (Simulation time: 00 hr 02 min 41 sec)
Heartbeat CPU 0 instructions: 50000011 cycles: 14356108 heartbeat IPC: 2.069 cumulative IPC: 2.153 (Simulation time: 00 hr 03 min 38 sec)
Heartbeat CPU 0 instructions: 60000001 cycles: 17927956 heartbeat IPC: 2.8 cumulative IPC: 2.333 (Simulation time: 00 hr 04 min 30 sec)
*** Reached end of trace: (0, "../traces/secret_traces/compute_int/compute_int_737.champsimtrace.xz")
Heartbeat CPU 0 instructions: 70000007 cycles: 21710008 heartbeat IPC: 2.644 cumulative IPC: 2.403 (Simulation time: 00 hr 05 min 22 sec)
Heartbeat CPU 0 instructions: 80000001 cycles: 26620769 heartbeat IPC: 2.036 cumulative IPC: 2.32 (Simulation time: 00 hr 06 min 21 sec)
Heartbeat CPU 0 instructions: 90000005 cycles: 30687973 heartbeat IPC: 2.459 cumulative IPC: 2.342 (Simulation time: 00 hr 07 min 15 sec)
*** Reached end of trace: (0, "../traces/secret_traces/compute_int/compute_int_737.champsimtrace.xz")
Heartbeat CPU 0 instructions: 100000002 cycles: 34031962 heartbeat IPC: 2.99 cumulative IPC: 2.417 (Simulation time: 00 hr 08 min 06 sec)
Heartbeat CPU 0 instructions: 110000000 cycles: 39011322 heartbeat IPC: 2.008 cumulative IPC: 2.357 (Simulation time: 00 hr 09 min 08 sec)
Heartbeat CPU 0 instructions: 120000003 cycles: 43189596 heartbeat IPC: 2.393 cumulative IPC: 2.361 (Simulation time: 00 hr 10 min 02 sec)
Heartbeat CPU 0 instructions: 130000009 cycles: 46311748 heartbeat IPC: 3.203 cumulative IPC: 2.425 (Simulation time: 00 hr 10 min 51 sec)
Simulation finished CPU 0 instructions: 100000004 cycles: 41245231 cumulative IPC: 2.425 (Simulation time: 00 hr 10 min 51 sec)
Simulation complete CPU 0 instructions: 100000004 cycles: 41245231 cumulative IPC: 2.425 (Simulation time: 00 hr 10 min 51 sec)

ChampSim completed all CPUs

=== Simulation ===
CPU 0 runs ../traces/secret_traces/compute_int/compute_int_737.champsimtrace.xz
Region of Interest Statistics

CPU 0 cumulative IPC: 2.425 instructions: 100000004 cycles: 41245231
CPU 0 Branch Prediction Accuracy: 93.1% MPKI: 14.56 Average ROB Occupancy at Mispredict: 25.14
Branch type MPKI
BRANCH_DIRECT_JUMP: 1e-05
BRANCH_INDIRECT: 8.03
BRANCH_CONDITIONAL: 6.53
BRANCH_DIRECT_CALL: 4e-05
BRANCH_INDIRECT_CALL: 0
BRANCH_RETURN: 9e-05

LLC TOTAL        ACCESS:     526648 HIT:     213721 MISS:     312927
LLC LOAD         ACCESS:      79749 HIT:       1142 MISS:      78607
LLC RFO          ACCESS:     135165 HIT:        240 MISS:     134925
LLC PREFETCH     ACCESS:     101034 HIT:       1802 MISS:      99232
LLC WRITE        ACCESS:     210581 HIT:     210524 MISS:         57
LLC TRANSLATION  ACCESS:        119 HIT:         13 MISS:        106
LLC PREFETCH REQUESTED:          0 ISSUED:          0 USEFUL:          0 USELESS:          0
LLC AVERAGE MISS LATENCY: 181.7 cycles
cpu0_DTLB TOTAL        ACCESS:   23473216 HIT:   23456305 MISS:      16911
cpu0_DTLB LOAD         ACCESS:   23473216 HIT:   23456305 MISS:      16911
cpu0_DTLB RFO          ACCESS:          0 HIT:          0 MISS:          0
cpu0_DTLB PREFETCH     ACCESS:          0 HIT:          0 MISS:          0
cpu0_DTLB WRITE        ACCESS:          0 HIT:          0 MISS:          0
cpu0_DTLB TRANSLATION  ACCESS:          0 HIT:          0 MISS:          0
cpu0_DTLB PREFETCH REQUESTED:          0 ISSUED:          0 USEFUL:          0 USELESS:          0
cpu0_DTLB AVERAGE MISS LATENCY: 4.944 cycles
cpu0_ITLB TOTAL        ACCESS:      15516 HIT:      15514 MISS:          2
cpu0_ITLB LOAD         ACCESS:      15516 HIT:      15514 MISS:          2
cpu0_ITLB RFO          ACCESS:          0 HIT:          0 MISS:          0
cpu0_ITLB PREFETCH     ACCESS:          0 HIT:          0 MISS:          0
cpu0_ITLB WRITE        ACCESS:          0 HIT:          0 MISS:          0
cpu0_ITLB TRANSLATION  ACCESS:          0 HIT:          0 MISS:          0
cpu0_ITLB PREFETCH REQUESTED:          0 ISSUED:          0 USEFUL:          0 USELESS:          0
cpu0_ITLB AVERAGE MISS LATENCY: 241 cycles
cpu0_L1D TOTAL        ACCESS:   46697473 HIT:   28423212 MISS:   18274261
cpu0_L1D LOAD         ACCESS:   11293895 HIT:   10939334 MISS:     354561
cpu0_L1D RFO          ACCESS:          0 HIT:          0 MISS:          0
cpu0_L1D PREFETCH     ACCESS:   26239772 HIT:   12024134 MISS:   14215638
cpu0_L1D WRITE        ACCESS:    9163297 HIT:    5459443 MISS:    3703854
cpu0_L1D TRANSLATION  ACCESS:        509 HIT:        301 MISS:        208
cpu0_L1D PREFETCH REQUESTED:   36120047 ISSUED:   26239772 USEFUL:      48867 USELESS:        195
cpu0_L1D AVERAGE MISS LATENCY: 2.207 cycles
cpu0_L1I TOTAL        ACCESS:      22510 HIT:      21698 MISS:        812
cpu0_L1I LOAD         ACCESS:       9933 HIT:       9448 MISS:        485
cpu0_L1I RFO          ACCESS:          0 HIT:          0 MISS:          0
cpu0_L1I PREFETCH     ACCESS:      12577 HIT:      12250 MISS:        327
cpu0_L1I WRITE        ACCESS:          0 HIT:          0 MISS:          0
cpu0_L1I TRANSLATION  ACCESS:          0 HIT:          0 MISS:          0
cpu0_L1I PREFETCH REQUESTED:      16226 ISSUED:      12577 USEFUL:        134 USELESS:          9
cpu0_L1I AVERAGE MISS LATENCY: 38.25 cycles
cpu0_L2C TOTAL        ACCESS:   20153078 HIT:   19674855 MISS:     478223
cpu0_L2C LOAD         ACCESS:     142902 HIT:      46044 MISS:      96858
cpu0_L2C RFO          ACCESS:     215466 HIT:      78854 MISS:     136612
cpu0_L2C PREFETCH     ACCESS:   19582896 HIT:   19338262 MISS:     244634
cpu0_L2C WRITE        ACCESS:     211606 HIT:     211606 MISS:          0
cpu0_L2C TRANSLATION  ACCESS:        208 HIT:         89 MISS:        119
cpu0_L2C PREFETCH REQUESTED:   12408767 ISSUED:    7317031 USEFUL:      60272 USELESS:       1142
cpu0_L2C AVERAGE MISS LATENCY: 129.8 cycles
cpu0_STLB TOTAL        ACCESS:       6670 HIT:       6162 MISS:        508
cpu0_STLB LOAD         ACCESS:       6670 HIT:       6162 MISS:        508
cpu0_STLB RFO          ACCESS:          0 HIT:          0 MISS:          0
cpu0_STLB PREFETCH     ACCESS:          0 HIT:          0 MISS:          0
cpu0_STLB WRITE        ACCESS:          0 HIT:          0 MISS:          0
cpu0_STLB TRANSLATION  ACCESS:          0 HIT:          0 MISS:          0
cpu0_STLB PREFETCH REQUESTED:          0 ISSUED:          0 USEFUL:          0 USELESS:          0
cpu0_STLB AVERAGE MISS LATENCY: 134.6 cycles

DRAM Statistics

Channel 0 RQ ROW_BUFFER_HIT:      57920
  ROW_BUFFER_MISS:      98558
 AVG DBUS CONGESTED CYCLE: 3.905
WQ ROW_BUFFER_HIT: Channel 0 
  ROW_BUFFER_MISS:      26125
  FULL:      79780

Channel 1 RQ ROW_BUFFER_HIT:      58157
  ROW_BUFFER_MISS:      98234
 AVG DBUS CONGESTED CYCLE: 3.904
WQ ROW_BUFFER_HIT: Channel 1 
  ROW_BUFFER_MISS:      26098
  FULL:      79637
BERTI TO_L1: 4198958 TO_L2: 39166663 TO_L2_BC_MSHR: 2219967
BERTI AVG_LAT: 126.544 NUM_TRACK_LATENCY: 284371 NUM_CANT_TRACK_LATENCY: 0
BERTI CROSS_PAGE 5199668 NO_CROSS_PAGE: 38165953
BERTI FOUND_BERTI: 11902397 NO_FOUND_BERTI: 4717951
BERTI AVERAGE_ISSUED: 6.26946
CPU 0 L1I Entangling prefetcher final stats
IP accesses: a1 2840 250 / 9933
IP misses: 4525 114940 40 / 485
IP hits: 0 0 0 / 0
IP late: 39f6 e7d80 13 / 244
IP wrong: 31a5 c6940 9 / 9
miss rate: 0.0488272
coverage: 0
coverage_late: 0.503093
accuracy: 0
accuracy_late: 0.964427
discarded: 0
evicts entangled j table: 0
evicts entangled k table: 14
max bb size: 14
formats: 11 0 20 2 4 8 0 
hist_lookups: 16 7 4 5 9 8 12 5 7 9 10 2 0 0 0 0 0 415 
hist_lookups_evict: 0 %
hist_lookups_shortlat: 81.5325 %
bb_found_hist: 0 1935 1136 320 179 72 0 29 24 41 0 0 0 0 31 0 0 0 0 0 0 0 0 0 0 0 0 0 0 0 0 0 0 0 0 0 0 0 0 0 0 0 0 0 0 0 0 0 0 0 0 0 0 0 0 0 0 0 0 0 0 0 0 0 
bb_found_summary: 7441 3767 1.97532
entangled_found_hist: 0 1408 406 558 0 0 0 0 
entangled_found_summary: 3894 2372 1.64166
bb_ent_found_hist: 0 1204 653 275 197 105 0 39 0 31 0 0 0 0 0 0 0 0 0 0 0 0 0 0 0 0 0 0 0 0 0 0 0 0 0 0 0 0 0 0 0 0 0 0 0 0 0 0 0 0 0 0 0 0 0 0 0 0 0 0 0 0 0 0 
bb_ent_found_summary: 5200 2504 2.07668
