WARNING: physical memory size is smaller than virtual memory size.

*** ChampSim Multicore Out-of-Order Simulator ***
Warmup Instructions: 30000000
Simulation Instructions: 100000000
Number of CPUs: 1
Page size: 4096

BTB:
Basic BTB sets: 1024 ways: 8
Indirect:
history lengths: 0 0 10 16 27 44 60 96 109 219 449 487 714 1313 2146 3881 
ITTAGE tables: 64768 bytes;Region table: 240 bytes;IUM: 384 bytes;Total Storage= 65392 bytes;
RAS:
RAS size: 64
Berti Prefetcher
CPU 0 Entangling prefetcher
Off-chip DRAM Size: 8 GiB Channels: 2 Width: 64-bit Data Race: 6400 MT/s
Heartbeat CPU 0 instructions: 10000007 cycles: 2111962 heartbeat IPC: 4.735 cumulative IPC: 4.735 (Simulation time: 00 hr 00 min 43 sec)
Heartbeat CPU 0 instructions: 20000000 cycles: 3840057 heartbeat IPC: 5.787 cumulative IPC: 5.208 (Simulation time: 00 hr 01 min 25 sec)
Heartbeat CPU 0 instructions: 30000003 cycles: 5888678 heartbeat IPC: 4.881 cumulative IPC: 5.095 (Simulation time: 00 hr 02 min 06 sec)
Warmup finished CPU 0 instructions: 30000003 cycles: 5888679 cumulative IPC: 5.095 (Simulation time: 00 hr 02 min 06 sec)
Warmup complete CPU 0 instructions: 30000003 cycles: 5888679 cumulative IPC: 5.095 (Simulation time: 00 hr 02 min 06 sec)
Heartbeat CPU 0 instructions: 40000011 cycles: 7836367 heartbeat IPC: 5.134 cumulative IPC: 5.134 (Simulation time: 00 hr 02 min 53 sec)
Heartbeat CPU 0 instructions: 50000000 cycles: 9839263 heartbeat IPC: 4.993 cumulative IPC: 5.063 (Simulation time: 00 hr 03 min 40 sec)
Heartbeat CPU 0 instructions: 60000008 cycles: 12199847 heartbeat IPC: 4.236 cumulative IPC: 4.753 (Simulation time: 00 hr 04 min 29 sec)
Heartbeat CPU 0 instructions: 70000001 cycles: 14015456 heartbeat IPC: 5.508 cumulative IPC: 4.922 (Simulation time: 00 hr 05 min 16 sec)
Heartbeat CPU 0 instructions: 80000007 cycles: 16508792 heartbeat IPC: 4.011 cumulative IPC: 4.708 (Simulation time: 00 hr 06 min 04 sec)
Heartbeat CPU 0 instructions: 90000010 cycles: 18264256 heartbeat IPC: 5.697 cumulative IPC: 4.848 (Simulation time: 00 hr 06 min 51 sec)
Heartbeat CPU 0 instructions: 100000003 cycles: 20411260 heartbeat IPC: 4.658 cumulative IPC: 4.82 (Simulation time: 00 hr 07 min 38 sec)
*** Reached end of trace: (0, "../traces/secret_traces/compute_int/compute_int_241.champsimtrace.xz")
Heartbeat CPU 0 instructions: 110000010 cycles: 23059634 heartbeat IPC: 3.776 cumulative IPC: 4.659 (Simulation time: 00 hr 08 min 30 sec)
Heartbeat CPU 0 instructions: 120000002 cycles: 25351909 heartbeat IPC: 4.362 cumulative IPC: 4.624 (Simulation time: 00 hr 09 min 24 sec)
Heartbeat CPU 0 instructions: 130000005 cycles: 27578746 heartbeat IPC: 4.491 cumulative IPC: 4.61 (Simulation time: 00 hr 10 min 14 sec)
Simulation finished CPU 0 instructions: 100000002 cycles: 21690068 cumulative IPC: 4.61 (Simulation time: 00 hr 10 min 14 sec)
Simulation complete CPU 0 instructions: 100000002 cycles: 21690068 cumulative IPC: 4.61 (Simulation time: 00 hr 10 min 14 sec)

ChampSim completed all CPUs

=== Simulation ===
CPU 0 runs ../traces/secret_traces/compute_int/compute_int_241.champsimtrace.xz
Region of Interest Statistics

CPU 0 cumulative IPC: 4.61 instructions: 100000002 cycles: 21690068
CPU 0 Branch Prediction Accuracy: 99.13% MPKI: 0.9057 Average ROB Occupancy at Mispredict: 45.82
Branch type MPKI
BRANCH_DIRECT_JUMP: 0.0127
BRANCH_INDIRECT: 0.221
BRANCH_CONDITIONAL: 0.635
BRANCH_DIRECT_CALL: 0.0169
BRANCH_INDIRECT_CALL: 0.0107
BRANCH_RETURN: 0.00943

LLC TOTAL        ACCESS:     253708 HIT:     216215 MISS:      37493
LLC LOAD         ACCESS:      14342 HIT:      10022 MISS:       4320
LLC RFO          ACCESS:      59920 HIT:      52794 MISS:       7126
LLC PREFETCH     ACCESS:     100518 HIT:      75980 MISS:      24538
LLC WRITE        ACCESS:      77489 HIT:      77022 MISS:        467
LLC TRANSLATION  ACCESS:       1439 HIT:        397 MISS:       1042
LLC PREFETCH REQUESTED:          0 ISSUED:          0 USEFUL:          0 USELESS:          0
LLC AVERAGE MISS LATENCY: 186.5 cycles
cpu0_DTLB TOTAL        ACCESS:   19866257 HIT:   19771823 MISS:      94434
cpu0_DTLB LOAD         ACCESS:   19866257 HIT:   19771823 MISS:      94434
cpu0_DTLB RFO          ACCESS:          0 HIT:          0 MISS:          0
cpu0_DTLB PREFETCH     ACCESS:          0 HIT:          0 MISS:          0
cpu0_DTLB WRITE        ACCESS:          0 HIT:          0 MISS:          0
cpu0_DTLB TRANSLATION  ACCESS:          0 HIT:          0 MISS:          0
cpu0_DTLB PREFETCH REQUESTED:          0 ISSUED:          0 USEFUL:          0 USELESS:          0
cpu0_DTLB AVERAGE MISS LATENCY: 5.332 cycles
cpu0_ITLB TOTAL        ACCESS:    1896702 HIT:    1894704 MISS:       1998
cpu0_ITLB LOAD         ACCESS:    1896702 HIT:    1894704 MISS:       1998
cpu0_ITLB RFO          ACCESS:          0 HIT:          0 MISS:          0
cpu0_ITLB PREFETCH     ACCESS:          0 HIT:          0 MISS:          0
cpu0_ITLB WRITE        ACCESS:          0 HIT:          0 MISS:          0
cpu0_ITLB TRANSLATION  ACCESS:          0 HIT:          0 MISS:          0
cpu0_ITLB PREFETCH REQUESTED:          0 ISSUED:          0 USEFUL:          0 USELESS:          0
cpu0_ITLB AVERAGE MISS LATENCY: 38.01 cycles
cpu0_L1D TOTAL        ACCESS:   40029744 HIT:   38031534 MISS:    1998210
cpu0_L1D LOAD         ACCESS:   24275022 HIT:   23790336 MISS:     484686
cpu0_L1D RFO          ACCESS:          0 HIT:          0 MISS:          0
cpu0_L1D PREFETCH     ACCESS:    8597761 HIT:    7556788 MISS:    1040973
cpu0_L1D WRITE        ACCESS:    7154735 HIT:    6684023 MISS:     470712
cpu0_L1D TRANSLATION  ACCESS:       2226 HIT:        387 MISS:       1839
cpu0_L1D PREFETCH REQUESTED:   26555192 ISSUED:    8597759 USEFUL:     104401 USELESS:      32459
cpu0_L1D AVERAGE MISS LATENCY: 4.72 cycles
cpu0_L1I TOTAL        ACCESS:    2928745 HIT:    2801615 MISS:     127130
cpu0_L1I LOAD         ACCESS:    1178747 HIT:    1141228 MISS:      37519
cpu0_L1I RFO          ACCESS:          0 HIT:          0 MISS:          0
cpu0_L1I PREFETCH     ACCESS:    1749998 HIT:    1660387 MISS:      89611
cpu0_L1I WRITE        ACCESS:          0 HIT:          0 MISS:          0
cpu0_L1I TRANSLATION  ACCESS:          0 HIT:          0 MISS:          0
cpu0_L1I PREFETCH REQUESTED:    4911637 ISSUED:    1749998 USEFUL:      54109 USELESS:      29730
cpu0_L1I AVERAGE MISS LATENCY: 20.85 cycles
cpu0_L2C TOTAL        ACCESS:    2773033 HIT:    2505609 MISS:     267424
cpu0_L2C LOAD         ACCESS:     210302 HIT:     194645 MISS:      15657
cpu0_L2C RFO          ACCESS:     138157 HIT:      78216 MISS:      59941
cpu0_L2C PREFETCH     ACCESS:    2242061 HIT:    2051678 MISS:     190383
cpu0_L2C WRITE        ACCESS:     180693 HIT:     180689 MISS:          4
cpu0_L2C TRANSLATION  ACCESS:       1820 HIT:        381 MISS:       1439
cpu0_L2C PREFETCH REQUESTED:    1267132 ISSUED:    1185231 USEFUL:      28733 USELESS:      14920
cpu0_L2C AVERAGE MISS LATENCY: 39.25 cycles
cpu0_STLB TOTAL        ACCESS:      57011 HIT:      54913 MISS:       2098
cpu0_STLB LOAD         ACCESS:      57011 HIT:      54913 MISS:       2098
cpu0_STLB RFO          ACCESS:          0 HIT:          0 MISS:          0
cpu0_STLB PREFETCH     ACCESS:          0 HIT:          0 MISS:          0
cpu0_STLB WRITE        ACCESS:          0 HIT:          0 MISS:          0
cpu0_STLB TRANSLATION  ACCESS:          0 HIT:          0 MISS:          0
cpu0_STLB PREFETCH REQUESTED:          0 ISSUED:          0 USEFUL:          0 USELESS:          0
cpu0_STLB AVERAGE MISS LATENCY: 159.2 cycles

DRAM Statistics

Channel 0 RQ ROW_BUFFER_HIT:       5589
  ROW_BUFFER_MISS:      13428
 AVG DBUS CONGESTED CYCLE: 3.849
WQ ROW_BUFFER_HIT: Channel 0 
  ROW_BUFFER_MISS:       1005
  FULL:       5607

Channel 1 RQ ROW_BUFFER_HIT:       5310
  ROW_BUFFER_MISS:      12662
 AVG DBUS CONGESTED CYCLE: 3.829
WQ ROW_BUFFER_HIT: Channel 1 
  ROW_BUFFER_MISS:        994
  FULL:       5104
BERTI TO_L1: 25387717 TO_L2: 10276178 TO_L2_BC_MSHR: 363078
BERTI AVG_LAT: 28.708 NUM_TRACK_LATENCY: 431055 NUM_CANT_TRACK_LATENCY: 0
BERTI CROSS_PAGE 8385849 NO_CROSS_PAGE: 27278046
BERTI FOUND_BERTI: 11563756 NO_FOUND_BERTI: 20204122
BERTI AVERAGE_ISSUED: 3.19544
CPU 0 L1I Entangling prefetcher final stats
IP accesses: 616 18580 19319 / 1181155
IP misses: 1923 648c0 231 / 39927
IP hits: 0 0 0 / 0
IP late: 50c 14300 114 / 17243
IP wrong: 238c 8e300 396 / 29556
miss rate: 0.0338034
coverage: 0
coverage_late: 0.431864
accuracy: 0
accuracy_late: 0.368449
discarded: 0
evicts entangled j table: 0
evicts entangled k table: 2183
max bb size: 77
formats: 300 0 1543 1673 534 1076 0 
hist_lookups: 2317 2614 2242 1830 1418 1041 738 583 417 306 208 141 99 49 20 0 0 2795 
hist_lookups_evict: 0 %
hist_lookups_shortlat: 16.6191 %
bb_found_hist: 0 163915 111145 52597 31801 22535 16877 10138 13878 2219 14856 4409 1969 2140 3354 312 0 9 100 192 187 50 0 105 8 24 71 62 0 143 285 0 13 0 0 0 4 0 0 0 0 0 0 0 0 0 0 0 0 0 0 0 0 0 0 0 0 0 0 0 0 0 0 0 
bb_found_summary: 1417616 453398 3.12665
entangled_found_hist: 0 84628 76856 74931 83996 10068 2202 0 
entangled_found_summary: 862669 332681 2.59309
bb_ent_found_hist: 0 201452 109150 73749 38955 98029 41741 28252 21412 10998 18337 2449 15437 2174 8858 2607 0 73 146 145 2065 220 0 652 8 32 94 224 0 237 1617 0 46 0 0 0 7 0 0 0 0 0 0 0 0 0 0 0 0 0 0 0 0 0 0 0 0 0 0 0 0 0 0 0 
bb_ent_found_summary: 2726515 679166 4.01451
