WARNING: physical memory size is smaller than virtual memory size.

*** ChampSim Multicore Out-of-Order Simulator ***
Warmup Instructions: 30000000
Simulation Instructions: 100000000
Number of CPUs: 1
Page size: 4096

BTB:
Basic BTB sets: 1024 ways: 8
Indirect:
history lengths: 0 0 10 16 27 44 60 96 109 219 449 487 714 1313 2146 3881 
ITTAGE tables: 64768 bytes;Region table: 240 bytes;IUM: 384 bytes;Total Storage= 65392 bytes;
RAS:
RAS size: 64
Berti Prefetcher
CPU 0 Entangling prefetcher
Off-chip DRAM Size: 8 GiB Channels: 2 Width: 64-bit Data Race: 6400 MT/s
Heartbeat CPU 0 instructions: 10000011 cycles: 1670790 heartbeat IPC: 5.985 cumulative IPC: 5.985 (Simulation time: 00 hr 00 min 35 sec)
Heartbeat CPU 0 instructions: 20000001 cycles: 3337629 heartbeat IPC: 5.999 cumulative IPC: 5.992 (Simulation time: 00 hr 01 min 10 sec)
Heartbeat CPU 0 instructions: 30000004 cycles: 5032446 heartbeat IPC: 5.9 cumulative IPC: 5.961 (Simulation time: 00 hr 01 min 45 sec)
Warmup finished CPU 0 instructions: 30000004 cycles: 5032447 cumulative IPC: 5.961 (Simulation time: 00 hr 01 min 45 sec)
Warmup complete CPU 0 instructions: 30000004 cycles: 5032447 cumulative IPC: 5.961 (Simulation time: 00 hr 01 min 45 sec)
*** Reached end of trace: (0, "../traces/secret_traces/compute_int/compute_int_69.champsimtrace.xz")
Heartbeat CPU 0 instructions: 40000000 cycles: 9466874 heartbeat IPC: 2.255 cumulative IPC: 2.255 (Simulation time: 00 hr 02 min 42 sec)
Heartbeat CPU 0 instructions: 50000001 cycles: 12770425 heartbeat IPC: 3.027 cumulative IPC: 2.585 (Simulation time: 00 hr 03 min 32 sec)
Heartbeat CPU 0 instructions: 60000001 cycles: 17146227 heartbeat IPC: 2.285 cumulative IPC: 2.477 (Simulation time: 00 hr 04 min 30 sec)
*** Reached end of trace: (0, "../traces/secret_traces/compute_int/compute_int_69.champsimtrace.xz")
Heartbeat CPU 0 instructions: 70000010 cycles: 21688330 heartbeat IPC: 2.202 cumulative IPC: 2.402 (Simulation time: 00 hr 05 min 36 sec)
Heartbeat CPU 0 instructions: 80000010 cycles: 25205111 heartbeat IPC: 2.844 cumulative IPC: 2.479 (Simulation time: 00 hr 06 min 29 sec)
Heartbeat CPU 0 instructions: 90000000 cycles: 29269486 heartbeat IPC: 2.46 cumulative IPC: 2.476 (Simulation time: 00 hr 07 min 22 sec)
*** Reached end of trace: (0, "../traces/secret_traces/compute_int/compute_int_69.champsimtrace.xz")
Heartbeat CPU 0 instructions: 100000009 cycles: 33666699 heartbeat IPC: 2.274 cumulative IPC: 2.445 (Simulation time: 00 hr 08 min 23 sec)
Heartbeat CPU 0 instructions: 110000003 cycles: 37565242 heartbeat IPC: 2.565 cumulative IPC: 2.459 (Simulation time: 00 hr 09 min 18 sec)
Heartbeat CPU 0 instructions: 120000000 cycles: 41018348 heartbeat IPC: 2.896 cumulative IPC: 2.501 (Simulation time: 00 hr 10 min 24 sec)
*** Reached end of trace: (0, "../traces/secret_traces/compute_int/compute_int_69.champsimtrace.xz")
Heartbeat CPU 0 instructions: 130000005 cycles: 45714557 heartbeat IPC: 2.129 cumulative IPC: 2.458 (Simulation time: 00 hr 11 min 36 sec)
Simulation finished CPU 0 instructions: 100000001 cycles: 40682111 cumulative IPC: 2.458 (Simulation time: 00 hr 11 min 36 sec)
Simulation complete CPU 0 instructions: 100000001 cycles: 40682111 cumulative IPC: 2.458 (Simulation time: 00 hr 11 min 36 sec)

ChampSim completed all CPUs

=== Simulation ===
CPU 0 runs ../traces/secret_traces/compute_int/compute_int_69.champsimtrace.xz
Region of Interest Statistics

CPU 0 cumulative IPC: 2.458 instructions: 100000001 cycles: 40682111
CPU 0 Branch Prediction Accuracy: 92.91% MPKI: 14.87 Average ROB Occupancy at Mispredict: 26.27
Branch type MPKI
BRANCH_DIRECT_JUMP: 0
BRANCH_INDIRECT: 8.15
BRANCH_CONDITIONAL: 6.72
BRANCH_DIRECT_CALL: 1e-05
BRANCH_INDIRECT_CALL: 0
BRANCH_RETURN: 8e-05

LLC TOTAL        ACCESS:     545098 HIT:     220430 MISS:     324668
LLC LOAD         ACCESS:       8792 HIT:       1210 MISS:       7582
LLC RFO          ACCESS:     152542 HIT:        174 MISS:     152368
LLC PREFETCH     ACCESS:     165870 HIT:       1261 MISS:     164609
LLC WRITE        ACCESS:     217824 HIT:     217773 MISS:         51
LLC TRANSLATION  ACCESS:         70 HIT:         12 MISS:         58
LLC PREFETCH REQUESTED:          0 ISSUED:          0 USEFUL:          0 USELESS:          0
LLC AVERAGE MISS LATENCY: 144.7 cycles
cpu0_DTLB TOTAL        ACCESS:   23597892 HIT:   23584674 MISS:      13218
cpu0_DTLB LOAD         ACCESS:   23597892 HIT:   23584674 MISS:      13218
cpu0_DTLB RFO          ACCESS:          0 HIT:          0 MISS:          0
cpu0_DTLB PREFETCH     ACCESS:          0 HIT:          0 MISS:          0
cpu0_DTLB WRITE        ACCESS:          0 HIT:          0 MISS:          0
cpu0_DTLB TRANSLATION  ACCESS:          0 HIT:          0 MISS:          0
cpu0_DTLB PREFETCH REQUESTED:          0 ISSUED:          0 USEFUL:          0 USELESS:          0
cpu0_DTLB AVERAGE MISS LATENCY: 4.613 cycles
cpu0_ITLB TOTAL        ACCESS:      15613 HIT:      15613 MISS:          0
cpu0_ITLB LOAD         ACCESS:      15613 HIT:      15613 MISS:          0
cpu0_ITLB RFO          ACCESS:          0 HIT:          0 MISS:          0
cpu0_ITLB PREFETCH     ACCESS:          0 HIT:          0 MISS:          0
cpu0_ITLB WRITE        ACCESS:          0 HIT:          0 MISS:          0
cpu0_ITLB TRANSLATION  ACCESS:          0 HIT:          0 MISS:          0
cpu0_ITLB PREFETCH REQUESTED:          0 ISSUED:          0 USEFUL:          0 USELESS:          0
cpu0_ITLB AVERAGE MISS LATENCY: -nan cycles
cpu0_L1D TOTAL        ACCESS:   46917723 HIT:   28024214 MISS:   18893509
cpu0_L1D LOAD         ACCESS:   11273134 HIT:   10938117 MISS:     335017
cpu0_L1D RFO          ACCESS:          0 HIT:          0 MISS:          0
cpu0_L1D PREFETCH     ACCESS:   26303988 HIT:   11867869 MISS:   14436119
cpu0_L1D WRITE        ACCESS:    9340256 HIT:    5218052 MISS:    4122204
cpu0_L1D TRANSLATION  ACCESS:        345 HIT:        176 MISS:        169
cpu0_L1D PREFETCH REQUESTED:   29939351 ISSUED:   26304014 USEFUL:      49918 USELESS:        168
cpu0_L1D AVERAGE MISS LATENCY: 0.9669 cycles
cpu0_L1I TOTAL        ACCESS:      22847 HIT:      22209 MISS:        638
cpu0_L1I LOAD         ACCESS:      10063 HIT:       9676 MISS:        387
cpu0_L1I RFO          ACCESS:          0 HIT:          0 MISS:          0
cpu0_L1I PREFETCH     ACCESS:      12784 HIT:      12533 MISS:        251
cpu0_L1I WRITE        ACCESS:          0 HIT:          0 MISS:          0
cpu0_L1I TRANSLATION  ACCESS:          0 HIT:          0 MISS:          0
cpu0_L1I PREFETCH REQUESTED:      16160 ISSUED:      12784 USEFUL:        124 USELESS:         10
cpu0_L1I AVERAGE MISS LATENCY: 35.14 cycles
cpu0_L2C TOTAL        ACCESS:   20665046 HIT:   19824244 MISS:     840802
cpu0_L2C LOAD         ACCESS:      53435 HIT:      39678 MISS:      13757
cpu0_L2C RFO          ACCESS:     223779 HIT:      68895 MISS:     154884
cpu0_L2C PREFETCH     ACCESS:   20169257 HIT:   19497166 MISS:     672091
cpu0_L2C WRITE        ACCESS:     218406 HIT:     218406 MISS:          0
cpu0_L2C TRANSLATION  ACCESS:        169 HIT:         99 MISS:         70
cpu0_L2C PREFETCH REQUESTED:   12575507 ISSUED:    7647216 USEFUL:     118560 USELESS:       1265
cpu0_L2C AVERAGE MISS LATENCY: 63.25 cycles
cpu0_STLB TOTAL        ACCESS:       5836 HIT:       5493 MISS:        343
cpu0_STLB LOAD         ACCESS:       5836 HIT:       5493 MISS:        343
cpu0_STLB RFO          ACCESS:          0 HIT:          0 MISS:          0
cpu0_STLB PREFETCH     ACCESS:          0 HIT:          0 MISS:          0
cpu0_STLB WRITE        ACCESS:          0 HIT:          0 MISS:          0
cpu0_STLB TRANSLATION  ACCESS:          0 HIT:          0 MISS:          0
cpu0_STLB PREFETCH REQUESTED:          0 ISSUED:          0 USEFUL:          0 USELESS:          0
cpu0_STLB AVERAGE MISS LATENCY: 119.3 cycles

DRAM Statistics

Channel 0 RQ ROW_BUFFER_HIT:      51320
  ROW_BUFFER_MISS:     111032
 AVG DBUS CONGESTED CYCLE: 3.826
WQ ROW_BUFFER_HIT: Channel 0 
  ROW_BUFFER_MISS:      33936
  FULL:      75301

Channel 1 RQ ROW_BUFFER_HIT:      51324
  ROW_BUFFER_MISS:     110940
 AVG DBUS CONGESTED CYCLE: 3.824
WQ ROW_BUFFER_HIT: Channel 1 
  ROW_BUFFER_MISS:      33896
  FULL:      75351
BERTI TO_L1: 4298989 TO_L2: 33572007 TO_L2_BC_MSHR: 461805
BERTI AVG_LAT: 56.1041 NUM_TRACK_LATENCY: 173611 NUM_CANT_TRACK_LATENCY: 0
BERTI CROSS_PAGE 4659226 NO_CROSS_PAGE: 33211770
BERTI FOUND_BERTI: 10469738 NO_FOUND_BERTI: 4558647
BERTI AVERAGE_ISSUED: 6.46141
CPU 0 L1I Entangling prefetcher final stats
IP accesses: 61d 18740 94 / 10063
IP misses: 4525 114940 36 / 387
IP hits: 0 0 0 / 0
IP late: 39f6 e7d80 14 / 185
IP wrong: 31a5 c6940 10 / 10
miss rate: 0.0384578
coverage: 0
coverage_late: 0.478037
accuracy: 0
accuracy_late: 0.948718
discarded: 0
evicts entangled j table: 0
evicts entangled k table: 4
max bb size: 15
formats: 4 0 16 3 0 4 0 
hist_lookups: 4 1 1 4 4 2 3 4 4 7 1 3 2 0 0 0 6 434 
hist_lookups_evict: 1.25 %
hist_lookups_shortlat: 90.4167 %
bb_found_hist: 0 2170 995 381 135 99 30 47 41 0 0 0 0 0 3 29 0 0 0 0 0 0 0 0 0 0 0 0 0 0 0 0 0 0 0 0 0 0 0 0 0 0 0 0 0 0 0 0 0 0 0 0 0 0 0 0 0 0 0 0 0 0 0 0 
bb_found_summary: 7652 3930 1.94708
entangled_found_hist: 0 1266 430 519 14 0 0 0 
entangled_found_summary: 3739 2229 1.67744
bb_ent_found_hist: 0 1264 562 341 155 103 0 0 58 0 0 0 0 0 0 0 0 0 0 0 0 0 0 0 0 0 0 0 0 0 0 0 0 0 0 0 0 0 0 0 0 0 0 0 0 0 0 0 0 0 0 0 0 0 0 0 0 0 0 0 0 0 0 0 
bb_ent_found_summary: 5010 2483 2.01773
