WARNING: physical memory size is smaller than virtual memory size.

*** ChampSim Multicore Out-of-Order Simulator ***
Warmup Instructions: 30000000
Simulation Instructions: 100000000
Number of CPUs: 1
Page size: 4096

BTB:
Basic BTB sets: 1024 ways: 8
Indirect:
history lengths: 0 0 10 16 27 44 60 96 109 219 449 487 714 1313 2146 3881 
ITTAGE tables: 64768 bytes;Region table: 240 bytes;IUM: 384 bytes;Total Storage= 65392 bytes;
RAS:
RAS size: 64
Berti Prefetcher
CPU 0 Entangling prefetcher
Off-chip DRAM Size: 8 GiB Channels: 2 Width: 64-bit Data Race: 6400 MT/s
Heartbeat CPU 0 instructions: 10000006 cycles: 2051854 heartbeat IPC: 4.874 cumulative IPC: 4.874 (Simulation time: 00 hr 00 min 43 sec)
Heartbeat CPU 0 instructions: 20000011 cycles: 4090350 heartbeat IPC: 4.906 cumulative IPC: 4.89 (Simulation time: 00 hr 01 min 24 sec)
Heartbeat CPU 0 instructions: 30000001 cycles: 6151995 heartbeat IPC: 4.85 cumulative IPC: 4.876 (Simulation time: 00 hr 02 min 06 sec)
Warmup finished CPU 0 instructions: 30000001 cycles: 6151996 cumulative IPC: 4.876 (Simulation time: 00 hr 02 min 06 sec)
Warmup complete CPU 0 instructions: 30000001 cycles: 6151996 cumulative IPC: 4.876 (Simulation time: 00 hr 02 min 06 sec)
Heartbeat CPU 0 instructions: 40000000 cycles: 8403349 heartbeat IPC: 4.442 cumulative IPC: 4.442 (Simulation time: 00 hr 03 min 02 sec)
Heartbeat CPU 0 instructions: 50000010 cycles: 10764176 heartbeat IPC: 4.236 cumulative IPC: 4.336 (Simulation time: 00 hr 03 min 59 sec)
Heartbeat CPU 0 instructions: 60000007 cycles: 13062811 heartbeat IPC: 4.35 cumulative IPC: 4.341 (Simulation time: 00 hr 04 min 51 sec)
Heartbeat CPU 0 instructions: 70000009 cycles: 15342526 heartbeat IPC: 4.387 cumulative IPC: 4.352 (Simulation time: 00 hr 05 min 43 sec)
Heartbeat CPU 0 instructions: 80000002 cycles: 17609701 heartbeat IPC: 4.411 cumulative IPC: 4.364 (Simulation time: 00 hr 06 min 38 sec)
Heartbeat CPU 0 instructions: 90000001 cycles: 19865531 heartbeat IPC: 4.433 cumulative IPC: 4.375 (Simulation time: 00 hr 07 min 35 sec)
Heartbeat CPU 0 instructions: 100000006 cycles: 22237496 heartbeat IPC: 4.216 cumulative IPC: 4.352 (Simulation time: 00 hr 08 min 29 sec)
*** Reached end of trace: (0, "../traces/secret_traces/compute_int/compute_int_65.champsimtrace.xz")
Heartbeat CPU 0 instructions: 110000000 cycles: 24337676 heartbeat IPC: 4.761 cumulative IPC: 4.399 (Simulation time: 00 hr 09 min 19 sec)
Heartbeat CPU 0 instructions: 120000011 cycles: 26375025 heartbeat IPC: 4.908 cumulative IPC: 4.45 (Simulation time: 00 hr 10 min 08 sec)
Heartbeat CPU 0 instructions: 130000002 cycles: 28636295 heartbeat IPC: 4.422 cumulative IPC: 4.448 (Simulation time: 00 hr 10 min 59 sec)
Simulation finished CPU 0 instructions: 100000001 cycles: 22484300 cumulative IPC: 4.448 (Simulation time: 00 hr 10 min 59 sec)
Simulation complete CPU 0 instructions: 100000001 cycles: 22484300 cumulative IPC: 4.448 (Simulation time: 00 hr 10 min 59 sec)

ChampSim completed all CPUs

=== Simulation ===
CPU 0 runs ../traces/secret_traces/compute_int/compute_int_65.champsimtrace.xz
Region of Interest Statistics

CPU 0 cumulative IPC: 4.448 instructions: 100000001 cycles: 22484300
CPU 0 Branch Prediction Accuracy: 99.98% MPKI: 0.03653 Average ROB Occupancy at Mispredict: 122.6
Branch type MPKI
BRANCH_DIRECT_JUMP: 8e-05
BRANCH_INDIRECT: 0.00781
BRANCH_CONDITIONAL: 0.0227
BRANCH_DIRECT_CALL: 0.00015
BRANCH_INDIRECT_CALL: 0.0005
BRANCH_RETURN: 0.0053

LLC TOTAL        ACCESS:     330668 HIT:     195078 MISS:     135590
LLC LOAD         ACCESS:      13676 HIT:       2399 MISS:      11277
LLC RFO          ACCESS:      83389 HIT:      14873 MISS:      68516
LLC PREFETCH     ACCESS:      74109 HIT:      18489 MISS:      55620
LLC WRITE        ACCESS:     159299 HIT:     159291 MISS:          8
LLC TRANSLATION  ACCESS:        195 HIT:         26 MISS:        169
LLC PREFETCH REQUESTED:          0 ISSUED:          0 USEFUL:          0 USELESS:          0
LLC AVERAGE MISS LATENCY: 184.7 cycles
cpu0_DTLB TOTAL        ACCESS:   20156778 HIT:   20094659 MISS:      62119
cpu0_DTLB LOAD         ACCESS:   20156778 HIT:   20094659 MISS:      62119
cpu0_DTLB RFO          ACCESS:          0 HIT:          0 MISS:          0
cpu0_DTLB PREFETCH     ACCESS:          0 HIT:          0 MISS:          0
cpu0_DTLB WRITE        ACCESS:          0 HIT:          0 MISS:          0
cpu0_DTLB TRANSLATION  ACCESS:          0 HIT:          0 MISS:          0
cpu0_DTLB PREFETCH REQUESTED:          0 ISSUED:          0 USEFUL:          0 USELESS:          0
cpu0_DTLB AVERAGE MISS LATENCY: 7.312 cycles
cpu0_ITLB TOTAL        ACCESS:    7795263 HIT:    7795099 MISS:        164
cpu0_ITLB LOAD         ACCESS:    7795263 HIT:    7795099 MISS:        164
cpu0_ITLB RFO          ACCESS:          0 HIT:          0 MISS:          0
cpu0_ITLB PREFETCH     ACCESS:          0 HIT:          0 MISS:          0
cpu0_ITLB WRITE        ACCESS:          0 HIT:          0 MISS:          0
cpu0_ITLB TRANSLATION  ACCESS:          0 HIT:          0 MISS:          0
cpu0_ITLB PREFETCH REQUESTED:          0 ISSUED:          0 USEFUL:          0 USELESS:          0
cpu0_ITLB AVERAGE MISS LATENCY: 7.073 cycles
cpu0_L1D TOTAL        ACCESS:   35422731 HIT:   33310959 MISS:    2111772
cpu0_L1D LOAD         ACCESS:   28152956 HIT:   27525224 MISS:     627732
cpu0_L1D RFO          ACCESS:          0 HIT:          0 MISS:          0
cpu0_L1D PREFETCH     ACCESS:     987262 HIT:     672723 MISS:     314539
cpu0_L1D WRITE        ACCESS:    6280498 HIT:    5112285 MISS:    1168213
cpu0_L1D TRANSLATION  ACCESS:       2015 HIT:        727 MISS:       1288
cpu0_L1D PREFETCH REQUESTED:    1640411 ISSUED:     987262 USEFUL:      38534 USELESS:      14161
cpu0_L1D AVERAGE MISS LATENCY: 8.193 cycles
cpu0_L1I TOTAL        ACCESS:   11799112 HIT:   11688130 MISS:     110982
cpu0_L1I LOAD         ACCESS:    5145299 HIT:    5093819 MISS:      51480
cpu0_L1I RFO          ACCESS:          0 HIT:          0 MISS:          0
cpu0_L1I PREFETCH     ACCESS:    6653813 HIT:    6594311 MISS:      59502
cpu0_L1I WRITE        ACCESS:          0 HIT:          0 MISS:          0
cpu0_L1I TRANSLATION  ACCESS:          0 HIT:          0 MISS:          0
cpu0_L1I PREFETCH REQUESTED:   25577062 ISSUED:    6653826 USEFUL:      44635 USELESS:       9013
cpu0_L1I AVERAGE MISS LATENCY: 18.24 cycles
cpu0_L2C TOTAL        ACCESS:    1697272 HIT:    1489974 MISS:     207298
cpu0_L2C LOAD         ACCESS:     330488 HIT:     316460 MISS:      14028
cpu0_L2C RFO          ACCESS:     136710 HIT:      46622 MISS:      90088
cpu0_L2C PREFETCH     ACCESS:    1014682 HIT:     911697 MISS:     102985
cpu0_L2C WRITE        ACCESS:     214112 HIT:     214112 MISS:          0
cpu0_L2C TRANSLATION  ACCESS:       1280 HIT:       1083 MISS:        197
cpu0_L2C PREFETCH REQUESTED:     695023 ISSUED:     651042 USEFUL:      40080 USELESS:       4317
cpu0_L2C AVERAGE MISS LATENCY: 135.1 cycles
cpu0_STLB TOTAL        ACCESS:      39856 HIT:      37844 MISS:       2012
cpu0_STLB LOAD         ACCESS:      39856 HIT:      37844 MISS:       2012
cpu0_STLB RFO          ACCESS:          0 HIT:          0 MISS:          0
cpu0_STLB PREFETCH     ACCESS:          0 HIT:          0 MISS:          0
cpu0_STLB WRITE        ACCESS:          0 HIT:          0 MISS:          0
cpu0_STLB TRANSLATION  ACCESS:          0 HIT:          0 MISS:          0
cpu0_STLB PREFETCH REQUESTED:          0 ISSUED:          0 USEFUL:          0 USELESS:          0
cpu0_STLB AVERAGE MISS LATENCY: 128.8 cycles

DRAM Statistics

Channel 0 RQ ROW_BUFFER_HIT:      12593
  ROW_BUFFER_MISS:      55266
 AVG DBUS CONGESTED CYCLE: 3.924
WQ ROW_BUFFER_HIT: Channel 0 
  ROW_BUFFER_MISS:      17226
  FULL:      46354

Channel 1 RQ ROW_BUFFER_HIT:      12334
  ROW_BUFFER_MISS:      55389
 AVG DBUS CONGESTED CYCLE: 3.92
WQ ROW_BUFFER_HIT: Channel 1 
  ROW_BUFFER_MISS:      17705
  FULL:      45898
BERTI TO_L1: 535848 TO_L2: 1942478 TO_L2_BC_MSHR: 19070
BERTI AVG_LAT: 55.0347 NUM_TRACK_LATENCY: 495437 NUM_CANT_TRACK_LATENCY: 2
BERTI CROSS_PAGE 1676152 NO_CROSS_PAGE: 802174
BERTI FOUND_BERTI: 2500805 NO_FOUND_BERTI: 35209580
BERTI AVERAGE_ISSUED: 2.99507
CPU 0 L1I Entangling prefetcher final stats
IP accesses: c202 308080 84869 / 5153714
IP misses: b8ec 2e3b00 438 / 59895
IP hits: 0 0 0 / 0
IP late: c4c1 313040 271 / 27464
IP wrong: c1d2 307480 173 / 8566
miss rate: 0.0116218
coverage: 0
coverage_late: 0.458536
accuracy: 0
accuracy_late: 0.762254
discarded: 0
evicts entangled j table: 0
evicts entangled k table: 2493
max bb size: 47
formats: 266 511 1496 541 338 539 0 
hist_lookups: 1598 2028 1994 1541 1124 996 980 858 685 573 440 312 249 105 47 0 3 4445 
hist_lookups_evict: 0.0166871 %
hist_lookups_shortlat: 24.7247 %
bb_found_hist: 0 538568 295055 212818 312953 115648 58049 27943 23485 17653 11373 40359 73873 16858 36 11502 16394 112 5628 0 0 0 0 0 0 22391 56 5600 0 0 0 0 0 0 0 0 0 0 0 0 0 0 0 0 6 0 0 55 0 0 0 0 0 0 0 0 0 0 0 0 0 0 0 0 
bb_found_summary: 7404971 1806415 4.09927
entangled_found_hist: 0 294850 412576 422469 136173 72103 3311 0 
entangled_found_summary: 3312482 1341482 2.46928
bb_ent_found_hist: 0 712177 481762 367829 292573 149034 102864 89181 45384 136386 5 146271 184011 16886 0 27520 52324 0 29009 0 0 0 0 0 0 51299 162 11118 0 0 0 0 0 0 0 0 0 0 0 0 0 0 0 0 0 0 0 100 0 0 0 0 0 0 0 0 0 0 0 0 0 0 0 0 
bb_ent_found_summary: 14927047 2895895 5.15456
