WARNING: physical memory size is smaller than virtual memory size.

*** ChampSim Multicore Out-of-Order Simulator ***
Warmup Instructions: 30000000
Simulation Instructions: 100000000
Number of CPUs: 1
Page size: 4096

BTB:
Basic BTB sets: 1024 ways: 8
Indirect:
history lengths: 0 0 10 16 27 44 60 96 109 219 449 487 714 1313 2146 3881 
ITTAGE tables: 64768 bytes;Region table: 240 bytes;IUM: 384 bytes;Total Storage= 65392 bytes;
RAS:
RAS size: 64
Berti Prefetcher
CPU 0 Entangling prefetcher
Off-chip DRAM Size: 8 GiB Channels: 2 Width: 64-bit Data Race: 6400 MT/s
Heartbeat CPU 0 instructions: 10000003 cycles: 1737581 heartbeat IPC: 5.755 cumulative IPC: 5.755 (Simulation time: 00 hr 00 min 37 sec)
Heartbeat CPU 0 instructions: 20000003 cycles: 3512866 heartbeat IPC: 5.633 cumulative IPC: 5.693 (Simulation time: 00 hr 01 min 14 sec)
Heartbeat CPU 0 instructions: 30000008 cycles: 5255663 heartbeat IPC: 5.738 cumulative IPC: 5.708 (Simulation time: 00 hr 01 min 51 sec)
Warmup finished CPU 0 instructions: 30000008 cycles: 5255664 cumulative IPC: 5.708 (Simulation time: 00 hr 01 min 51 sec)
Warmup complete CPU 0 instructions: 30000008 cycles: 5255664 cumulative IPC: 5.708 (Simulation time: 00 hr 01 min 51 sec)
Heartbeat CPU 0 instructions: 40000004 cycles: 8420336 heartbeat IPC: 3.16 cumulative IPC: 3.16 (Simulation time: 00 hr 02 min 42 sec)
Heartbeat CPU 0 instructions: 50000005 cycles: 11540260 heartbeat IPC: 3.205 cumulative IPC: 3.182 (Simulation time: 00 hr 03 min 31 sec)
Heartbeat CPU 0 instructions: 60000005 cycles: 15118547 heartbeat IPC: 2.795 cumulative IPC: 3.042 (Simulation time: 00 hr 04 min 23 sec)
Heartbeat CPU 0 instructions: 70000000 cycles: 18523658 heartbeat IPC: 2.937 cumulative IPC: 3.015 (Simulation time: 00 hr 05 min 13 sec)
Heartbeat CPU 0 instructions: 80000001 cycles: 21300643 heartbeat IPC: 3.601 cumulative IPC: 3.116 (Simulation time: 00 hr 05 min 58 sec)
Heartbeat CPU 0 instructions: 90000001 cycles: 24604838 heartbeat IPC: 3.026 cumulative IPC: 3.101 (Simulation time: 00 hr 06 min 46 sec)
Heartbeat CPU 0 instructions: 100000000 cycles: 29546386 heartbeat IPC: 2.024 cumulative IPC: 2.882 (Simulation time: 00 hr 07 min 43 sec)
Heartbeat CPU 0 instructions: 110000002 cycles: 35025322 heartbeat IPC: 1.825 cumulative IPC: 2.687 (Simulation time: 00 hr 08 min 44 sec)
Heartbeat CPU 0 instructions: 120000002 cycles: 40333271 heartbeat IPC: 1.884 cumulative IPC: 2.566 (Simulation time: 00 hr 09 min 40 sec)
Heartbeat CPU 0 instructions: 130000000 cycles: 45739315 heartbeat IPC: 1.85 cumulative IPC: 2.47 (Simulation time: 00 hr 10 min 36 sec)
Simulation finished CPU 0 instructions: 100000008 cycles: 40483657 cumulative IPC: 2.47 (Simulation time: 00 hr 10 min 36 sec)
Simulation complete CPU 0 instructions: 100000008 cycles: 40483657 cumulative IPC: 2.47 (Simulation time: 00 hr 10 min 36 sec)

ChampSim completed all CPUs

=== Simulation ===
CPU 0 runs ../traces/secret_traces/compute_int/compute_int_133.champsimtrace.xz
Region of Interest Statistics

CPU 0 cumulative IPC: 2.47 instructions: 100000008 cycles: 40483657
CPU 0 Branch Prediction Accuracy: 94.09% MPKI: 11.45 Average ROB Occupancy at Mispredict: 14.22
Branch type MPKI
BRANCH_DIRECT_JUMP: 0.00028
BRANCH_INDIRECT: 0.773
BRANCH_CONDITIONAL: 10.7
BRANCH_DIRECT_CALL: 0.00033
BRANCH_INDIRECT_CALL: 0.00017
BRANCH_RETURN: 0.00034

LLC TOTAL        ACCESS:      21569 HIT:       6308 MISS:      15261
LLC LOAD         ACCESS:      10168 HIT:         51 MISS:      10117
LLC RFO          ACCESS:       1565 HIT:          7 MISS:       1558
LLC PREFETCH     ACCESS:       3694 HIT:        192 MISS:       3502
LLC WRITE        ACCESS:       6122 HIT:       6050 MISS:         72
LLC TRANSLATION  ACCESS:         20 HIT:          8 MISS:         12
LLC PREFETCH REQUESTED:          0 ISSUED:          0 USEFUL:          0 USELESS:          0
LLC AVERAGE MISS LATENCY: 301.8 cycles
cpu0_DTLB TOTAL        ACCESS:   19319700 HIT:   19314258 MISS:       5442
cpu0_DTLB LOAD         ACCESS:   19319700 HIT:   19314258 MISS:       5442
cpu0_DTLB RFO          ACCESS:          0 HIT:          0 MISS:          0
cpu0_DTLB PREFETCH     ACCESS:          0 HIT:          0 MISS:          0
cpu0_DTLB WRITE        ACCESS:          0 HIT:          0 MISS:          0
cpu0_DTLB TRANSLATION  ACCESS:          0 HIT:          0 MISS:          0
cpu0_DTLB PREFETCH REQUESTED:          0 ISSUED:          0 USEFUL:          0 USELESS:          0
cpu0_DTLB AVERAGE MISS LATENCY: 7.938 cycles
cpu0_ITLB TOTAL        ACCESS:      19444 HIT:      19409 MISS:         35
cpu0_ITLB LOAD         ACCESS:      19444 HIT:      19409 MISS:         35
cpu0_ITLB RFO          ACCESS:          0 HIT:          0 MISS:          0
cpu0_ITLB PREFETCH     ACCESS:          0 HIT:          0 MISS:          0
cpu0_ITLB WRITE        ACCESS:          0 HIT:          0 MISS:          0
cpu0_ITLB TRANSLATION  ACCESS:          0 HIT:          0 MISS:          0
cpu0_ITLB PREFETCH REQUESTED:          0 ISSUED:          0 USEFUL:          0 USELESS:          0
cpu0_ITLB AVERAGE MISS LATENCY: 7.886 cycles
cpu0_L1D TOTAL        ACCESS:   28765871 HIT:   26471415 MISS:    2294456
cpu0_L1D LOAD         ACCESS:   19317504 HIT:   17969655 MISS:    1347849
cpu0_L1D RFO          ACCESS:          0 HIT:          0 MISS:          0
cpu0_L1D PREFETCH     ACCESS:    3924725 HIT:    3150285 MISS:     774440
cpu0_L1D WRITE        ACCESS:    5523401 HIT:    5351271 MISS:     172130
cpu0_L1D TRANSLATION  ACCESS:        241 HIT:        204 MISS:         37
cpu0_L1D PREFETCH REQUESTED:    7547598 ISSUED:    3924693 USEFUL:      61127 USELESS:      16632
cpu0_L1D AVERAGE MISS LATENCY: 7.025 cycles
cpu0_L1I TOTAL        ACCESS:      29068 HIT:      24115 MISS:       4953
cpu0_L1I LOAD         ACCESS:      10860 HIT:       9017 MISS:       1843
cpu0_L1I RFO          ACCESS:          0 HIT:          0 MISS:          0
cpu0_L1I PREFETCH     ACCESS:      18208 HIT:      15098 MISS:       3110
cpu0_L1I WRITE        ACCESS:          0 HIT:          0 MISS:          0
cpu0_L1I TRANSLATION  ACCESS:          0 HIT:          0 MISS:          0
cpu0_L1I PREFETCH REQUESTED:      31798 ISSUED:      18208 USEFUL:       1827 USELESS:       1043
cpu0_L1I AVERAGE MISS LATENCY: 19.36 cycles
cpu0_L2C TOTAL        ACCESS:    3587925 HIT:    3559217 MISS:      28708
cpu0_L2C LOAD         ACCESS:    1010547 HIT:     997777 MISS:      12770
cpu0_L2C RFO          ACCESS:      58892 HIT:      57327 MISS:       1565
cpu0_L2C PREFETCH     ACCESS:    2299128 HIT:    2284775 MISS:      14353
cpu0_L2C WRITE        ACCESS:     219322 HIT:     219322 MISS:          0
cpu0_L2C TRANSLATION  ACCESS:         36 HIT:         16 MISS:         20
cpu0_L2C PREFETCH REQUESTED:    1727613 ISSUED:    1582093 USEFUL:       2872 USELESS:        652
cpu0_L2C AVERAGE MISS LATENCY: 164.9 cycles
cpu0_STLB TOTAL        ACCESS:       1416 HIT:       1176 MISS:        240
cpu0_STLB LOAD         ACCESS:       1416 HIT:       1176 MISS:        240
cpu0_STLB RFO          ACCESS:          0 HIT:          0 MISS:          0
cpu0_STLB PREFETCH     ACCESS:          0 HIT:          0 MISS:          0
cpu0_STLB WRITE        ACCESS:          0 HIT:          0 MISS:          0
cpu0_STLB TRANSLATION  ACCESS:          0 HIT:          0 MISS:          0
cpu0_STLB PREFETCH REQUESTED:          0 ISSUED:          0 USEFUL:          0 USELESS:          0
cpu0_STLB AVERAGE MISS LATENCY: 263.8 cycles

DRAM Statistics

Channel 0 RQ ROW_BUFFER_HIT:       3716
  ROW_BUFFER_MISS:       3885
 AVG DBUS CONGESTED CYCLE: 3.97
WQ ROW_BUFFER_HIT: Channel 0 
  ROW_BUFFER_MISS:        429
  FULL:       4134

Channel 1 RQ ROW_BUFFER_HIT:       3713
  ROW_BUFFER_MISS:       3875
 AVG DBUS CONGESTED CYCLE: 3.959
WQ ROW_BUFFER_HIT: Channel 1 
  ROW_BUFFER_MISS:        421
  FULL:       4041
BERTI TO_L1: 6409540 TO_L2: 4530340 TO_L2_BC_MSHR: 307572
BERTI AVG_LAT: 13.8523 NUM_TRACK_LATENCY: 1685294 NUM_CANT_TRACK_LATENCY: 0
BERTI CROSS_PAGE 2553566 NO_CROSS_PAGE: 8386314
BERTI FOUND_BERTI: 13687496 NO_FOUND_BERTI: 11482718
BERTI AVERAGE_ISSUED: 3.54233
CPU 0 L1I Entangling prefetcher final stats
IP accesses: 9a2 26880 162 / 10883
IP misses: 38f1 e3c40 20 / 1866
IP hits: 0 0 0 / 0
IP late: 5364 14d900 9 / 913
IP wrong: 724 1c900 9 / 1033
miss rate: 0.171461
coverage: 0
coverage_late: 0.489282
accuracy: 0
accuracy_late: 0.469168
discarded: 0
evicts entangled j table: 0
evicts entangled k table: 310
max bb size: 16
formats: 64 0 225 83 34 102 0 
hist_lookups: 104 134 171 197 184 162 114 76 90 66 37 23 12 11 3 0 0 1690 
hist_lookups_evict: 0 %
hist_lookups_shortlat: 54.9773 %
bb_found_hist: 0 2112 1313 491 217 175 28 50 3 0 4 12 2 4 0 0 12 0 0 0 0 0 0 0 0 0 0 0 0 0 0 0 0 0 0 0 0 0 0 0 0 0 0 0 0 0 0 0 0 0 0 0 0 0 0 0 0 0 0 0 0 0 0 0 
bb_found_summary: 8936 4423 2.02035
entangled_found_hist: 0 891 743 1787 347 109 98 0 
entangled_found_summary: 10259 3975 2.58089
bb_ent_found_hist: 0 3469 2038 805 499 283 74 207 10 0 4 16 2 4 0 0 9 0 0 0 0 0 0 0 0 0 0 0 0 0 0 0 0 0 0 0 0 0 0 0 0 0 0 0 0 0 0 0 0 0 0 0 0 0 0 0 0 0 0 0 0 0 0 0 
bb_ent_found_summary: 15780 7420 2.12669
