WARNING: physical memory size is smaller than virtual memory size.

*** ChampSim Multicore Out-of-Order Simulator ***
Warmup Instructions: 30000000
Simulation Instructions: 100000000
Number of CPUs: 1
Page size: 4096

BTB:
Basic BTB sets: 1024 ways: 8
Indirect:
history lengths: 0 0 10 16 27 44 60 96 109 219 449 487 714 1313 2146 3881 
ITTAGE tables: 64768 bytes;Region table: 240 bytes;IUM: 384 bytes;Total Storage= 65392 bytes;
RAS:
RAS size: 64
Berti Prefetcher
CPU 0 Entangling prefetcher
Off-chip DRAM Size: 8 GiB Channels: 2 Width: 64-bit Data Race: 6400 MT/s
Heartbeat CPU 0 instructions: 10000004 cycles: 1669202 heartbeat IPC: 5.991 cumulative IPC: 5.991 (Simulation time: 00 hr 00 min 31 sec)
Heartbeat CPU 0 instructions: 20000002 cycles: 3477042 heartbeat IPC: 5.531 cumulative IPC: 5.752 (Simulation time: 00 hr 01 min 05 sec)
Heartbeat CPU 0 instructions: 30000003 cycles: 5145507 heartbeat IPC: 5.994 cumulative IPC: 5.83 (Simulation time: 00 hr 01 min 39 sec)
Warmup finished CPU 0 instructions: 30000003 cycles: 5145508 cumulative IPC: 5.83 (Simulation time: 00 hr 01 min 39 sec)
Warmup complete CPU 0 instructions: 30000003 cycles: 5145508 cumulative IPC: 5.83 (Simulation time: 00 hr 01 min 39 sec)
Heartbeat CPU 0 instructions: 40000000 cycles: 6871056 heartbeat IPC: 5.795 cumulative IPC: 5.795 (Simulation time: 00 hr 02 min 16 sec)
Heartbeat CPU 0 instructions: 50000007 cycles: 8579441 heartbeat IPC: 5.853 cumulative IPC: 5.824 (Simulation time: 00 hr 02 min 52 sec)
Heartbeat CPU 0 instructions: 60000009 cycles: 10283186 heartbeat IPC: 5.869 cumulative IPC: 5.839 (Simulation time: 00 hr 03 min 28 sec)
Heartbeat CPU 0 instructions: 70000005 cycles: 11977458 heartbeat IPC: 5.902 cumulative IPC: 5.855 (Simulation time: 00 hr 04 min 04 sec)
Heartbeat CPU 0 instructions: 80000002 cycles: 13672292 heartbeat IPC: 5.9 cumulative IPC: 5.864 (Simulation time: 00 hr 04 min 40 sec)
Heartbeat CPU 0 instructions: 90000001 cycles: 15369802 heartbeat IPC: 5.891 cumulative IPC: 5.868 (Simulation time: 00 hr 05 min 25 sec)
Heartbeat CPU 0 instructions: 100000001 cycles: 17059930 heartbeat IPC: 5.917 cumulative IPC: 5.875 (Simulation time: 00 hr 06 min 09 sec)
*** Reached end of trace: (0, "../traces/secret_traces/compute_int/compute_int_216.champsimtrace.xz")
Heartbeat CPU 0 instructions: 110000005 cycles: 18787986 heartbeat IPC: 5.787 cumulative IPC: 5.864 (Simulation time: 00 hr 06 min 50 sec)
Heartbeat CPU 0 instructions: 120000003 cycles: 21972771 heartbeat IPC: 3.14 cumulative IPC: 5.348 (Simulation time: 00 hr 07 min 46 sec)
Heartbeat CPU 0 instructions: 130000005 cycles: 23704043 heartbeat IPC: 5.776 cumulative IPC: 5.388 (Simulation time: 00 hr 08 min 22 sec)
Simulation finished CPU 0 instructions: 100000002 cycles: 18558536 cumulative IPC: 5.388 (Simulation time: 00 hr 08 min 22 sec)
Simulation complete CPU 0 instructions: 100000002 cycles: 18558536 cumulative IPC: 5.388 (Simulation time: 00 hr 08 min 22 sec)

ChampSim completed all CPUs

=== Simulation ===
CPU 0 runs ../traces/secret_traces/compute_int/compute_int_216.champsimtrace.xz
Region of Interest Statistics

CPU 0 cumulative IPC: 5.388 instructions: 100000002 cycles: 18558536
CPU 0 Branch Prediction Accuracy: 99.83% MPKI: 0.08247 Average ROB Occupancy at Mispredict: 81.77
Branch type MPKI
BRANCH_DIRECT_JUMP: 0.00038
BRANCH_INDIRECT: 0.0114
BRANCH_CONDITIONAL: 0.0691
BRANCH_DIRECT_CALL: 0.00018
BRANCH_INDIRECT_CALL: 0.00092
BRANCH_RETURN: 0.00047

LLC TOTAL        ACCESS:     191787 HIT:      68606 MISS:     123181
LLC LOAD         ACCESS:      23925 HIT:       8569 MISS:      15356
LLC RFO          ACCESS:      53661 HIT:         64 MISS:      53597
LLC PREFETCH     ACCESS:      58952 HIT:       5433 MISS:      53519
LLC WRITE        ACCESS:      54677 HIT:      54412 MISS:        265
LLC TRANSLATION  ACCESS:        572 HIT:        128 MISS:        444
LLC PREFETCH REQUESTED:          0 ISSUED:          0 USEFUL:          0 USELESS:          0
LLC AVERAGE MISS LATENCY: 277.3 cycles
cpu0_DTLB TOTAL        ACCESS:   12687507 HIT:   12488679 MISS:     198828
cpu0_DTLB LOAD         ACCESS:   12687507 HIT:   12488679 MISS:     198828
cpu0_DTLB RFO          ACCESS:          0 HIT:          0 MISS:          0
cpu0_DTLB PREFETCH     ACCESS:          0 HIT:          0 MISS:          0
cpu0_DTLB WRITE        ACCESS:          0 HIT:          0 MISS:          0
cpu0_DTLB TRANSLATION  ACCESS:          0 HIT:          0 MISS:          0
cpu0_DTLB PREFETCH REQUESTED:          0 ISSUED:          0 USEFUL:          0 USELESS:          0
cpu0_DTLB AVERAGE MISS LATENCY: 3.005 cycles
cpu0_ITLB TOTAL        ACCESS:    3585193 HIT:    3585083 MISS:        110
cpu0_ITLB LOAD         ACCESS:    3585193 HIT:    3585083 MISS:        110
cpu0_ITLB RFO          ACCESS:          0 HIT:          0 MISS:          0
cpu0_ITLB PREFETCH     ACCESS:          0 HIT:          0 MISS:          0
cpu0_ITLB WRITE        ACCESS:          0 HIT:          0 MISS:          0
cpu0_ITLB TRANSLATION  ACCESS:          0 HIT:          0 MISS:          0
cpu0_ITLB PREFETCH REQUESTED:          0 ISSUED:          0 USEFUL:          0 USELESS:          0
cpu0_ITLB AVERAGE MISS LATENCY: 210 cycles
cpu0_L1D TOTAL        ACCESS:   23021009 HIT:   21979420 MISS:    1041589
cpu0_L1D LOAD         ACCESS:   14237727 HIT:   13976730 MISS:     260997
cpu0_L1D RFO          ACCESS:          0 HIT:          0 MISS:          0
cpu0_L1D PREFETCH     ACCESS:    3091415 HIT:    2690238 MISS:     401177
cpu0_L1D WRITE        ACCESS:    5690380 HIT:    5311920 MISS:     378460
cpu0_L1D TRANSLATION  ACCESS:       1487 HIT:        532 MISS:        955
cpu0_L1D PREFETCH REQUESTED:   16438424 ISSUED:    3091415 USEFUL:      15579 USELESS:      12367
cpu0_L1D AVERAGE MISS LATENCY: 24.67 cycles
cpu0_L1I TOTAL        ACCESS:    5409437 HIT:    4972650 MISS:     436787
cpu0_L1I LOAD         ACCESS:    2606957 HIT:    2452753 MISS:     154204
cpu0_L1I RFO          ACCESS:          0 HIT:          0 MISS:          0
cpu0_L1I PREFETCH     ACCESS:    2802480 HIT:    2519897 MISS:     282583
cpu0_L1I WRITE        ACCESS:          0 HIT:          0 MISS:          0
cpu0_L1I TRANSLATION  ACCESS:          0 HIT:          0 MISS:          0
cpu0_L1I PREFETCH REQUESTED:    7963538 ISSUED:    2802480 USEFUL:     201487 USELESS:      64343
cpu0_L1I AVERAGE MISS LATENCY: 11.29 cycles
cpu0_L2C TOTAL        ACCESS:    1759416 HIT:    1521435 MISS:     237981
cpu0_L2C LOAD         ACCESS:     218869 HIT:     184901 MISS:      33968
cpu0_L2C RFO          ACCESS:      77997 HIT:      24325 MISS:      53672
cpu0_L2C PREFETCH     ACCESS:    1378401 HIT:    1228641 MISS:     149760
cpu0_L2C WRITE        ACCESS:      83216 HIT:      83207 MISS:          9
cpu0_L2C TRANSLATION  ACCESS:        933 HIT:        361 MISS:        572
cpu0_L2C PREFETCH REQUESTED:     822385 ISSUED:     776462 USEFUL:      38018 USELESS:       4048
cpu0_L2C AVERAGE MISS LATENCY: 151.2 cycles
cpu0_STLB TOTAL        ACCESS:      88567 HIT:      87133 MISS:       1434
cpu0_STLB LOAD         ACCESS:      88567 HIT:      87133 MISS:       1434
cpu0_STLB RFO          ACCESS:          0 HIT:          0 MISS:          0
cpu0_STLB PREFETCH     ACCESS:          0 HIT:          0 MISS:          0
cpu0_STLB WRITE        ACCESS:          0 HIT:          0 MISS:          0
cpu0_STLB TRANSLATION  ACCESS:          0 HIT:          0 MISS:          0
cpu0_STLB PREFETCH REQUESTED:          0 ISSUED:          0 USEFUL:          0 USELESS:          0
cpu0_STLB AVERAGE MISS LATENCY: 196.8 cycles

DRAM Statistics

Channel 0 RQ ROW_BUFFER_HIT:      29217
  ROW_BUFFER_MISS:      32365
 AVG DBUS CONGESTED CYCLE: 3.932
WQ ROW_BUFFER_HIT: Channel 0 
  ROW_BUFFER_MISS:       3396
  FULL:      23900

Channel 1 RQ ROW_BUFFER_HIT:      28646
  ROW_BUFFER_MISS:      32492
 AVG DBUS CONGESTED CYCLE: 3.926
WQ ROW_BUFFER_HIT: Channel 1 
  ROW_BUFFER_MISS:       3485
  FULL:      23776
BERTI TO_L1: 9146299 TO_L2: 12614378 TO_L2_BC_MSHR: 2607217
BERTI AVG_LAT: 53.8221 NUM_TRACK_LATENCY: 238702 NUM_CANT_TRACK_LATENCY: 17
BERTI CROSS_PAGE 12280513 NO_CROSS_PAGE: 9480164
BERTI FOUND_BERTI: 5364373 NO_FOUND_BERTI: 13905662
BERTI AVERAGE_ISSUED: 2.37531
CPU 0 L1I Entangling prefetcher final stats
IP accesses: 6e4 1b900 48734 / 2613491
IP misses: 5af 16bc0 1950 / 160738
IP hits: 0 0 0 / 0
IP late: c36 30d80 486 / 64823
IP wrong: abc 2af00 772 / 63750
miss rate: 0.0615032
coverage: 0
coverage_late: 0.403284
accuracy: 0
accuracy_late: 0.504173
discarded: 0
evicts entangled j table: 0
evicts entangled k table: 6007
max bb size: 39
formats: 33 0 1608 6501 1032 1760 0 
hist_lookups: 4695 7003 6040 4603 4636 4636 3633 3096 2487 1705 1005 738 710 386 250 0 3 19786 
hist_lookups_evict: 0.00458632 %
hist_lookups_shortlat: 30.2483 %
bb_found_hist: 0 226859 91275 54293 30897 20862 36879 4484 32506 5931 5256 6585 4339 504 4811 744 122 123 499 0 1 0 491 17788 132 0 0 1932 0 1 484 0 0 0 0 0 0 9 24022 484 0 0 0 0 0 0 0 0 0 0 0 0 0 0 0 0 0 0 0 0 0 0 0 0 
bb_found_summary: 3063301 572313 5.3525
entangled_found_hist: 0 95150 123765 109980 154940 4499 4351 0 
entangled_found_summary: 1340981 492685 2.72179
bb_ent_found_hist: 0 456131 130861 139770 74151 33167 45794 16139 31957 34348 15447 38048 3326 151 3592 0 570 8 2059 1 1 0 2406 12505 382 0 0 11331 0 1 1804 0 0 0 0 0 0 68 3863 484 0 0 0 0 0 0 0 0 0 0 0 0 0 0 0 0 0 0 0 0 0 0 0 0 
bb_ent_found_summary: 4141632 1058365 3.91324
