WARNING: physical memory size is smaller than virtual memory size.

*** ChampSim Multicore Out-of-Order Simulator ***
Warmup Instructions: 30000000
Simulation Instructions: 100000000
Number of CPUs: 1
Page size: 4096

BTB:
Basic BTB sets: 1024 ways: 8
Indirect:
history lengths: 0 0 10 16 27 44 60 96 109 219 449 487 714 1313 2146 3881 
ITTAGE tables: 64768 bytes;Region table: 240 bytes;IUM: 384 bytes;Total Storage= 65392 bytes;
RAS:
RAS size: 64
Berti Prefetcher
CPU 0 Entangling prefetcher
Off-chip DRAM Size: 8 GiB Channels: 2 Width: 64-bit Data Race: 6400 MT/s
Heartbeat CPU 0 instructions: 10000004 cycles: 1721569 heartbeat IPC: 5.809 cumulative IPC: 5.809 (Simulation time: 00 hr 00 min 34 sec)
Heartbeat CPU 0 instructions: 20000005 cycles: 3389212 heartbeat IPC: 5.996 cumulative IPC: 5.901 (Simulation time: 00 hr 01 min 12 sec)
Heartbeat CPU 0 instructions: 30000002 cycles: 5057322 heartbeat IPC: 5.995 cumulative IPC: 5.932 (Simulation time: 00 hr 01 min 51 sec)
Warmup finished CPU 0 instructions: 30000002 cycles: 5057323 cumulative IPC: 5.932 (Simulation time: 00 hr 01 min 51 sec)
Warmup complete CPU 0 instructions: 30000002 cycles: 5057323 cumulative IPC: 5.932 (Simulation time: 00 hr 01 min 51 sec)
*** Reached end of trace: (0, "../traces/secret_traces/compute_int/compute_int_108.champsimtrace.xz")
Heartbeat CPU 0 instructions: 40000004 cycles: 9501120 heartbeat IPC: 2.25 cumulative IPC: 2.25 (Simulation time: 00 hr 02 min 45 sec)
Heartbeat CPU 0 instructions: 50000003 cycles: 15238274 heartbeat IPC: 1.743 cumulative IPC: 1.964 (Simulation time: 00 hr 03 min 53 sec)
Heartbeat CPU 0 instructions: 60000005 cycles: 18789323 heartbeat IPC: 2.816 cumulative IPC: 2.185 (Simulation time: 00 hr 04 min 48 sec)
Heartbeat CPU 0 instructions: 70000005 cycles: 23434649 heartbeat IPC: 2.153 cumulative IPC: 2.177 (Simulation time: 00 hr 05 min 42 sec)
*** Reached end of trace: (0, "../traces/secret_traces/compute_int/compute_int_108.champsimtrace.xz")
Heartbeat CPU 0 instructions: 80000001 cycles: 28542138 heartbeat IPC: 1.958 cumulative IPC: 2.129 (Simulation time: 00 hr 06 min 42 sec)
Heartbeat CPU 0 instructions: 90000002 cycles: 32751163 heartbeat IPC: 2.376 cumulative IPC: 2.167 (Simulation time: 00 hr 07 min 38 sec)
Heartbeat CPU 0 instructions: 100000005 cycles: 37046915 heartbeat IPC: 2.328 cumulative IPC: 2.188 (Simulation time: 00 hr 08 min 30 sec)
*** Reached end of trace: (0, "../traces/secret_traces/compute_int/compute_int_108.champsimtrace.xz")
Heartbeat CPU 0 instructions: 110000001 cycles: 41422799 heartbeat IPC: 2.285 cumulative IPC: 2.2 (Simulation time: 00 hr 09 min 22 sec)
Heartbeat CPU 0 instructions: 120000000 cycles: 46960423 heartbeat IPC: 1.806 cumulative IPC: 2.148 (Simulation time: 00 hr 10 min 24 sec)
Heartbeat CPU 0 instructions: 130000000 cycles: 50500327 heartbeat IPC: 2.825 cumulative IPC: 2.201 (Simulation time: 00 hr 11 min 13 sec)
Simulation finished CPU 0 instructions: 100000000 cycles: 45443016 cumulative IPC: 2.201 (Simulation time: 00 hr 11 min 13 sec)
Simulation complete CPU 0 instructions: 100000000 cycles: 45443016 cumulative IPC: 2.201 (Simulation time: 00 hr 11 min 13 sec)

ChampSim completed all CPUs

=== Simulation ===
CPU 0 runs ../traces/secret_traces/compute_int/compute_int_108.champsimtrace.xz
Region of Interest Statistics

CPU 0 cumulative IPC: 2.201 instructions: 100000000 cycles: 45443016
CPU 0 Branch Prediction Accuracy: 91.77% MPKI: 12.69 Average ROB Occupancy at Mispredict: 17.51
Branch type MPKI
BRANCH_DIRECT_JUMP: 0.0176
BRANCH_INDIRECT: 0.118
BRANCH_CONDITIONAL: 12.5
BRANCH_DIRECT_CALL: 0.0484
BRANCH_INDIRECT_CALL: 0.00395
BRANCH_RETURN: 0.0272

LLC TOTAL        ACCESS:     633018 HIT:     210253 MISS:     422765
LLC LOAD         ACCESS:      39280 HIT:       4546 MISS:      34734
LLC RFO          ACCESS:      89361 HIT:      17669 MISS:      71692
LLC PREFETCH     ACCESS:     326040 HIT:      13116 MISS:     312924
LLC WRITE        ACCESS:     175879 HIT:     174626 MISS:       1253
LLC TRANSLATION  ACCESS:       2458 HIT:        296 MISS:       2162
LLC PREFETCH REQUESTED:          0 ISSUED:          0 USEFUL:          0 USELESS:          0
LLC AVERAGE MISS LATENCY: 152.1 cycles
cpu0_DTLB TOTAL        ACCESS:   21545301 HIT:   21507884 MISS:      37417
cpu0_DTLB LOAD         ACCESS:   21545301 HIT:   21507884 MISS:      37417
cpu0_DTLB RFO          ACCESS:          0 HIT:          0 MISS:          0
cpu0_DTLB PREFETCH     ACCESS:          0 HIT:          0 MISS:          0
cpu0_DTLB WRITE        ACCESS:          0 HIT:          0 MISS:          0
cpu0_DTLB TRANSLATION  ACCESS:          0 HIT:          0 MISS:          0
cpu0_DTLB PREFETCH REQUESTED:          0 ISSUED:          0 USEFUL:          0 USELESS:          0
cpu0_DTLB AVERAGE MISS LATENCY: 16 cycles
cpu0_ITLB TOTAL        ACCESS:     270669 HIT:     266685 MISS:       3984
cpu0_ITLB LOAD         ACCESS:     270669 HIT:     266685 MISS:       3984
cpu0_ITLB RFO          ACCESS:          0 HIT:          0 MISS:          0
cpu0_ITLB PREFETCH     ACCESS:          0 HIT:          0 MISS:          0
cpu0_ITLB WRITE        ACCESS:          0 HIT:          0 MISS:          0
cpu0_ITLB TRANSLATION  ACCESS:          0 HIT:          0 MISS:          0
cpu0_ITLB PREFETCH REQUESTED:          0 ISSUED:          0 USEFUL:          0 USELESS:          0
cpu0_ITLB AVERAGE MISS LATENCY: 59.37 cycles
cpu0_L1D TOTAL        ACCESS:   37677514 HIT:   32608730 MISS:    5068784
cpu0_L1D LOAD         ACCESS:   13314470 HIT:   13041690 MISS:     272780
cpu0_L1D RFO          ACCESS:          0 HIT:          0 MISS:          0
cpu0_L1D PREFETCH     ACCESS:   16465234 HIT:   12114948 MISS:    4350286
cpu0_L1D WRITE        ACCESS:    7889309 HIT:    7448285 MISS:     441024
cpu0_L1D TRANSLATION  ACCESS:       8501 HIT:       3807 MISS:       4694
cpu0_L1D PREFETCH REQUESTED:   23014854 ISSUED:   16465250 USEFUL:     198028 USELESS:       1990
cpu0_L1D AVERAGE MISS LATENCY: 7 cycles
cpu0_L1I TOTAL        ACCESS:     394673 HIT:     321401 MISS:      73272
cpu0_L1I LOAD         ACCESS:     137854 HIT:     118069 MISS:      19785
cpu0_L1I RFO          ACCESS:          0 HIT:          0 MISS:          0
cpu0_L1I PREFETCH     ACCESS:     256819 HIT:     203332 MISS:      53487
cpu0_L1I WRITE        ACCESS:          0 HIT:          0 MISS:          0
cpu0_L1I TRANSLATION  ACCESS:          0 HIT:          0 MISS:          0
cpu0_L1I PREFETCH REQUESTED:     416753 ISSUED:     256819 USEFUL:      31012 USELESS:      19154
cpu0_L1I AVERAGE MISS LATENCY: 66.81 cycles
cpu0_L2C TOTAL        ACCESS:    8742301 HIT:    7671274 MISS:    1071027
cpu0_L2C LOAD         ACCESS:     179665 HIT:     129156 MISS:      50509
cpu0_L2C RFO          ACCESS:     146731 HIT:      57266 MISS:      89465
cpu0_L2C PREFETCH     ACCESS:    8211152 HIT:    7282843 MISS:     928309
cpu0_L2C WRITE        ACCESS:     200088 HIT:     199802 MISS:        286
cpu0_L2C TRANSLATION  ACCESS:       4665 HIT:       2207 MISS:       2458
cpu0_L2C PREFETCH REQUESTED:    4293082 ISSUED:    4104552 USEFUL:     230999 USELESS:      26950
cpu0_L2C AVERAGE MISS LATENCY: 68.22 cycles
cpu0_STLB TOTAL        ACCESS:      14131 HIT:       5982 MISS:       8149
cpu0_STLB LOAD         ACCESS:      14131 HIT:       5982 MISS:       8149
cpu0_STLB RFO          ACCESS:          0 HIT:          0 MISS:          0
cpu0_STLB PREFETCH     ACCESS:          0 HIT:          0 MISS:          0
cpu0_STLB WRITE        ACCESS:          0 HIT:          0 MISS:          0
cpu0_STLB TRANSLATION  ACCESS:          0 HIT:          0 MISS:          0
cpu0_STLB PREFETCH REQUESTED:          0 ISSUED:          0 USEFUL:          0 USELESS:          0
cpu0_STLB AVERAGE MISS LATENCY: 108 cycles

DRAM Statistics

Channel 0 RQ ROW_BUFFER_HIT:     110843
  ROW_BUFFER_MISS:     100356
 AVG DBUS CONGESTED CYCLE: 3.881
WQ ROW_BUFFER_HIT: Channel 0 
  ROW_BUFFER_MISS:      18596
  FULL:      63655

Channel 1 RQ ROW_BUFFER_HIT:     110838
  ROW_BUFFER_MISS:      99474
 AVG DBUS CONGESTED CYCLE: 3.876
WQ ROW_BUFFER_HIT: Channel 1 
  ROW_BUFFER_MISS:      18756
  FULL:      62912
BERTI TO_L1: 12179854 TO_L2: 16104649 TO_L2_BC_MSHR: 2647423
BERTI AVG_LAT: 48.9992 NUM_TRACK_LATENCY: 468696 NUM_CANT_TRACK_LATENCY: 0
BERTI CROSS_PAGE 4333156 NO_CROSS_PAGE: 23951347
BERTI FOUND_BERTI: 16567554 NO_FOUND_BERTI: 1397772
BERTI AVERAGE_ISSUED: 6.87339
CPU 0 L1I Entangling prefetcher final stats
IP accesses: 5a6 16980 703 / 145920
IP misses: f1aa 3c6a80 244 / 27851
IP hits: 0 0 0 / 0
IP late: 587a 161e80 42 / 10336
IP wrong: ef71 3bdc40 66 / 19056
miss rate: 0.190865
coverage: 0
coverage_late: 0.371118
accuracy: 0
accuracy_late: 0.351661
discarded: 0
evicts entangled j table: 0
evicts entangled k table: 2917
max bb size: 67
formats: 905 0 2512 1256 540 951 0 
hist_lookups: 1658 2055 1844 1688 1497 1318 1039 727 628 503 365 271 145 66 53 0 3 4849 
hist_lookups_evict: 0.0160351 %
hist_lookups_shortlat: 25.9181 %
bb_found_hist: 0 31698 16142 7057 3455 1435 766 280 201 6 27 0 3 6 9 4 0 0 0 0 4 0 16 0 2 0 0 0 0 0 0 0 0 0 0 0 0 0 0 0 0 0 0 0 0 0 0 0 0 0 0 0 0 0 0 0 0 0 0 0 0 0 0 6 
bb_found_summary: 115794 61117 1.89463
entangled_found_hist: 0 20156 13040 23031 4273 523 153 0 
entangled_found_summary: 135954 61176 2.22235
bb_ent_found_hist: 0 45615 23843 12471 6055 3857 1543 1247 512 0 111 0 28 10 0 0 0 0 0 0 0 0 0 0 6 0 0 0 0 0 0 0 0 0 0 0 0 0 0 0 0 0 0 0 0 0 0 0 0 0 0 0 0 0 0 0 0 0 0 0 0 0 0 6 
bb_ent_found_summary: 198400 95304 2.08176
