WARNING: physical memory size is smaller than virtual memory size.

*** ChampSim Multicore Out-of-Order Simulator ***
Warmup Instructions: 30000000
Simulation Instructions: 100000000
Number of CPUs: 1
Page size: 4096

BTB:
Basic BTB sets: 1024 ways: 8
Indirect:
history lengths: 0 0 10 16 27 44 60 96 109 219 449 487 714 1313 2146 3881 
ITTAGE tables: 64768 bytes;Region table: 240 bytes;IUM: 384 bytes;Total Storage= 65392 bytes;
RAS:
RAS size: 64
Berti Prefetcher
CPU 0 Entangling prefetcher
Off-chip DRAM Size: 8 GiB Channels: 2 Width: 64-bit Data Race: 6400 MT/s
Heartbeat CPU 0 instructions: 10000001 cycles: 1668280 heartbeat IPC: 5.994 cumulative IPC: 5.994 (Simulation time: 00 hr 00 min 33 sec)
Heartbeat CPU 0 instructions: 20000001 cycles: 3336118 heartbeat IPC: 5.996 cumulative IPC: 5.995 (Simulation time: 00 hr 01 min 07 sec)
Heartbeat CPU 0 instructions: 30000003 cycles: 5008079 heartbeat IPC: 5.981 cumulative IPC: 5.99 (Simulation time: 00 hr 01 min 41 sec)
Warmup finished CPU 0 instructions: 30000003 cycles: 5008080 cumulative IPC: 5.99 (Simulation time: 00 hr 01 min 41 sec)
Warmup complete CPU 0 instructions: 30000003 cycles: 5008080 cumulative IPC: 5.99 (Simulation time: 00 hr 01 min 41 sec)
Heartbeat CPU 0 instructions: 40000002 cycles: 7017125 heartbeat IPC: 4.977 cumulative IPC: 4.977 (Simulation time: 00 hr 02 min 25 sec)
Heartbeat CPU 0 instructions: 50000000 cycles: 9468133 heartbeat IPC: 4.08 cumulative IPC: 4.484 (Simulation time: 00 hr 03 min 08 sec)
Heartbeat CPU 0 instructions: 60000000 cycles: 13144894 heartbeat IPC: 2.72 cumulative IPC: 3.687 (Simulation time: 00 hr 03 min 57 sec)
Heartbeat CPU 0 instructions: 70000005 cycles: 17213679 heartbeat IPC: 2.458 cumulative IPC: 3.277 (Simulation time: 00 hr 04 min 47 sec)
Heartbeat CPU 0 instructions: 80000000 cycles: 20592069 heartbeat IPC: 2.96 cumulative IPC: 3.208 (Simulation time: 00 hr 05 min 34 sec)
*** Reached end of trace: (0, "../traces/secret_traces/compute_int/compute_int_648.champsimtrace.xz")
Heartbeat CPU 0 instructions: 90000009 cycles: 24713130 heartbeat IPC: 2.427 cumulative IPC: 3.045 (Simulation time: 00 hr 06 min 27 sec)
Heartbeat CPU 0 instructions: 100000002 cycles: 28281480 heartbeat IPC: 2.802 cumulative IPC: 3.008 (Simulation time: 00 hr 07 min 17 sec)
Heartbeat CPU 0 instructions: 110000001 cycles: 31956107 heartbeat IPC: 2.721 cumulative IPC: 2.969 (Simulation time: 00 hr 08 min 14 sec)
Heartbeat CPU 0 instructions: 120000002 cycles: 33961166 heartbeat IPC: 4.987 cumulative IPC: 3.108 (Simulation time: 00 hr 08 min 59 sec)
Heartbeat CPU 0 instructions: 130000003 cycles: 36153649 heartbeat IPC: 4.561 cumulative IPC: 3.211 (Simulation time: 00 hr 09 min 41 sec)
Simulation finished CPU 0 instructions: 100000000 cycles: 31145570 cumulative IPC: 3.211 (Simulation time: 00 hr 09 min 41 sec)
Simulation complete CPU 0 instructions: 100000000 cycles: 31145570 cumulative IPC: 3.211 (Simulation time: 00 hr 09 min 41 sec)

ChampSim completed all CPUs

=== Simulation ===
CPU 0 runs ../traces/secret_traces/compute_int/compute_int_648.champsimtrace.xz
Region of Interest Statistics

CPU 0 cumulative IPC: 3.211 instructions: 100000000 cycles: 31145570
CPU 0 Branch Prediction Accuracy: 95.73% MPKI: 7.841 Average ROB Occupancy at Mispredict: 25.02
Branch type MPKI
BRANCH_DIRECT_JUMP: 2e-05
BRANCH_INDIRECT: 0.361
BRANCH_CONDITIONAL: 7.48
BRANCH_DIRECT_CALL: 6e-05
BRANCH_INDIRECT_CALL: 9e-05
BRANCH_RETURN: 0.00035

LLC TOTAL        ACCESS:     172792 HIT:      54235 MISS:     118557
LLC LOAD         ACCESS:      67526 HIT:       1154 MISS:      66372
LLC RFO          ACCESS:      39567 HIT:        178 MISS:      39389
LLC PREFETCH     ACCESS:      28340 HIT:      15741 MISS:      12599
LLC WRITE        ACCESS:      37279 HIT:      37152 MISS:        127
LLC TRANSLATION  ACCESS:         80 HIT:         10 MISS:         70
LLC PREFETCH REQUESTED:          0 ISSUED:          0 USEFUL:          0 USELESS:          0
LLC AVERAGE MISS LATENCY: 149.5 cycles
cpu0_DTLB TOTAL        ACCESS:   16507710 HIT:   16491428 MISS:      16282
cpu0_DTLB LOAD         ACCESS:   16507710 HIT:   16491428 MISS:      16282
cpu0_DTLB RFO          ACCESS:          0 HIT:          0 MISS:          0
cpu0_DTLB PREFETCH     ACCESS:          0 HIT:          0 MISS:          0
cpu0_DTLB WRITE        ACCESS:          0 HIT:          0 MISS:          0
cpu0_DTLB TRANSLATION  ACCESS:          0 HIT:          0 MISS:          0
cpu0_DTLB PREFETCH REQUESTED:          0 ISSUED:          0 USEFUL:          0 USELESS:          0
cpu0_DTLB AVERAGE MISS LATENCY: 7.569 cycles
cpu0_ITLB TOTAL        ACCESS:      25923 HIT:      25921 MISS:          2
cpu0_ITLB LOAD         ACCESS:      25923 HIT:      25921 MISS:          2
cpu0_ITLB RFO          ACCESS:          0 HIT:          0 MISS:          0
cpu0_ITLB PREFETCH     ACCESS:          0 HIT:          0 MISS:          0
cpu0_ITLB WRITE        ACCESS:          0 HIT:          0 MISS:          0
cpu0_ITLB TRANSLATION  ACCESS:          0 HIT:          0 MISS:          0
cpu0_ITLB PREFETCH REQUESTED:          0 ISSUED:          0 USEFUL:          0 USELESS:          0
cpu0_ITLB AVERAGE MISS LATENCY: 172 cycles
cpu0_L1D TOTAL        ACCESS:   26950976 HIT:   23689510 MISS:    3261466
cpu0_L1D LOAD         ACCESS:   16656413 HIT:   16090041 MISS:     566372
cpu0_L1D RFO          ACCESS:          0 HIT:          0 MISS:          0
cpu0_L1D PREFETCH     ACCESS:    5556468 HIT:    3141730 MISS:    2414738
cpu0_L1D WRITE        ACCESS:    4737182 HIT:    4457196 MISS:     279986
cpu0_L1D TRANSLATION  ACCESS:        913 HIT:        543 MISS:        370
cpu0_L1D PREFETCH REQUESTED:   12217678 ISSUED:    5556468 USEFUL:      62714 USELESS:        559
cpu0_L1D AVERAGE MISS LATENCY: 6.604 cycles
cpu0_L1I TOTAL        ACCESS:      38676 HIT:      33352 MISS:       5324
cpu0_L1I LOAD         ACCESS:      16078 HIT:      13412 MISS:       2666
cpu0_L1I RFO          ACCESS:          0 HIT:          0 MISS:          0
cpu0_L1I PREFETCH     ACCESS:      22598 HIT:      19940 MISS:       2658
cpu0_L1I WRITE        ACCESS:          0 HIT:          0 MISS:          0
cpu0_L1I TRANSLATION  ACCESS:          0 HIT:          0 MISS:          0
cpu0_L1I PREFETCH REQUESTED:      38077 ISSUED:      22598 USEFUL:       1763 USELESS:        224
cpu0_L1I AVERAGE MISS LATENCY: 42.08 cycles
cpu0_L2C TOTAL        ACCESS:    5398687 HIT:    5183557 MISS:     215130
cpu0_L2C LOAD         ACCESS:     367491 HIT:     289717 MISS:      77774
cpu0_L2C RFO          ACCESS:     107106 HIT:      67538 MISS:      39568
cpu0_L2C PREFETCH     ACCESS:    4719980 HIT:    4622273 MISS:      97707
cpu0_L2C WRITE        ACCESS:     203740 HIT:     203739 MISS:          1
cpu0_L2C TRANSLATION  ACCESS:        370 HIT:        290 MISS:         80
cpu0_L2C PREFETCH REQUESTED:    2602789 ISSUED:    2484682 USEFUL:      24886 USELESS:       1303
cpu0_L2C AVERAGE MISS LATENCY: 92.85 cycles
cpu0_STLB TOTAL        ACCESS:       4686 HIT:       3791 MISS:        895
cpu0_STLB LOAD         ACCESS:       4686 HIT:       3791 MISS:        895
cpu0_STLB RFO          ACCESS:          0 HIT:          0 MISS:          0
cpu0_STLB PREFETCH     ACCESS:          0 HIT:          0 MISS:          0
cpu0_STLB WRITE        ACCESS:          0 HIT:          0 MISS:          0
cpu0_STLB TRANSLATION  ACCESS:          0 HIT:          0 MISS:          0
cpu0_STLB PREFETCH REQUESTED:          0 ISSUED:          0 USEFUL:          0 USELESS:          0
cpu0_STLB AVERAGE MISS LATENCY: 187.3 cycles

DRAM Statistics

Channel 0 RQ ROW_BUFFER_HIT:      41829
  ROW_BUFFER_MISS:      17389
 AVG DBUS CONGESTED CYCLE: 3.914
WQ ROW_BUFFER_HIT: Channel 0 
  ROW_BUFFER_MISS:       3044
  FULL:      14726

Channel 1 RQ ROW_BUFFER_HIT:      42020
  ROW_BUFFER_MISS:      17192
 AVG DBUS CONGESTED CYCLE: 3.915
WQ ROW_BUFFER_HIT: Channel 1 
  ROW_BUFFER_MISS:       3211
  FULL:      14520
BERTI TO_L1: 3687468 TO_L2: 10098993 TO_L2_BC_MSHR: 786518
BERTI AVG_LAT: 39.7935 NUM_TRACK_LATENCY: 616058 NUM_CANT_TRACK_LATENCY: 0
BERTI CROSS_PAGE 2021900 NO_CROSS_PAGE: 11764561
BERTI FOUND_BERTI: 15938115 NO_FOUND_BERTI: 6658129
BERTI AVERAGE_ISSUED: 3.66993
CPU 0 L1I Entangling prefetcher final stats
IP accesses: 1eb 7ac0 768 / 16594
IP misses: 3a4e e9380 74 / 3182
IP hits: 0 0 0 / 0
IP late: 3c36 f0d80 8 / 1336
IP wrong: 43ed 10fb40 6 / 219
miss rate: 0.191757
coverage: 0
coverage_late: 0.419862
accuracy: 0
accuracy_late: 0.859164
discarded: 0
evicts entangled j table: 0
evicts entangled k table: 143
max bb size: 8
formats: 58 0 167 51 30 70 0 
hist_lookups: 38 56 75 83 101 103 66 68 53 46 30 23 17 11 3 0 9 1463 
hist_lookups_evict: 0.400891 %
hist_lookups_shortlat: 65.1671 %
bb_found_hist: 0 3304 2246 458 158 119 16 9 238 0 0 0 0 0 0 0 0 0 0 0 0 0 0 0 0 0 0 0 0 0 0 0 0 0 0 0 0 0 0 0 0 0 0 0 0 0 0 0 0 0 0 0 0 0 0 0 0 0 0 0 0 0 0 0 
bb_found_summary: 12460 6548 1.90288
entangled_found_hist: 0 2150 2071 1544 286 38 21 0 
entangled_found_summary: 12384 6110 2.02685
bb_ent_found_hist: 0 5636 1707 640 336 427 69 18 201 0 0 0 0 0 0 0 0 0 0 0 0 0 0 0 0 0 0 0 0 0 0 0 0 0 0 0 0 0 0 0 0 0 0 0 0 0 0 0 0 0 0 0 0 0 0 0 0 0 0 0 0 0 0 0 
bb_ent_found_summary: 16597 9034 1.83718
