WARNING: physical memory size is smaller than virtual memory size.

*** ChampSim Multicore Out-of-Order Simulator ***
Warmup Instructions: 30000000
Simulation Instructions: 100000000
Number of CPUs: 1
Page size: 4096

BTB:
Basic BTB sets: 1024 ways: 8
Indirect:
history lengths: 0 0 10 16 27 44 60 96 109 219 449 487 714 1313 2146 3881 
ITTAGE tables: 64768 bytes;Region table: 240 bytes;IUM: 384 bytes;Total Storage= 65392 bytes;
RAS:
RAS size: 64
Berti Prefetcher
CPU 0 Entangling prefetcher
Off-chip DRAM Size: 8 GiB Channels: 2 Width: 64-bit Data Race: 6400 MT/s
Heartbeat CPU 0 instructions: 10000000 cycles: 2271340 heartbeat IPC: 4.403 cumulative IPC: 4.403 (Simulation time: 00 hr 00 min 47 sec)
Heartbeat CPU 0 instructions: 20000005 cycles: 4159251 heartbeat IPC: 5.297 cumulative IPC: 4.809 (Simulation time: 00 hr 01 min 28 sec)
Heartbeat CPU 0 instructions: 30000001 cycles: 5826375 heartbeat IPC: 5.998 cumulative IPC: 5.149 (Simulation time: 00 hr 02 min 01 sec)
Warmup finished CPU 0 instructions: 30000001 cycles: 5826376 cumulative IPC: 5.149 (Simulation time: 00 hr 02 min 01 sec)
Warmup complete CPU 0 instructions: 30000001 cycles: 5826376 cumulative IPC: 5.149 (Simulation time: 00 hr 02 min 01 sec)
Heartbeat CPU 0 instructions: 40000000 cycles: 7851292 heartbeat IPC: 4.938 cumulative IPC: 4.938 (Simulation time: 00 hr 02 min 41 sec)
Heartbeat CPU 0 instructions: 50000003 cycles: 9883151 heartbeat IPC: 4.922 cumulative IPC: 4.93 (Simulation time: 00 hr 03 min 22 sec)
Heartbeat CPU 0 instructions: 60000001 cycles: 11911705 heartbeat IPC: 4.93 cumulative IPC: 4.93 (Simulation time: 00 hr 04 min 03 sec)
Heartbeat CPU 0 instructions: 70000001 cycles: 13944662 heartbeat IPC: 4.919 cumulative IPC: 4.927 (Simulation time: 00 hr 04 min 44 sec)
Heartbeat CPU 0 instructions: 80000004 cycles: 15972670 heartbeat IPC: 4.931 cumulative IPC: 4.928 (Simulation time: 00 hr 05 min 33 sec)
Heartbeat CPU 0 instructions: 90000003 cycles: 17994503 heartbeat IPC: 4.946 cumulative IPC: 4.931 (Simulation time: 00 hr 06 min 19 sec)
Heartbeat CPU 0 instructions: 100000003 cycles: 20013044 heartbeat IPC: 4.954 cumulative IPC: 4.934 (Simulation time: 00 hr 07 min 02 sec)
Heartbeat CPU 0 instructions: 110000004 cycles: 22225601 heartbeat IPC: 4.52 cumulative IPC: 4.878 (Simulation time: 00 hr 07 min 44 sec)
Heartbeat CPU 0 instructions: 120000006 cycles: 24652836 heartbeat IPC: 4.12 cumulative IPC: 4.781 (Simulation time: 00 hr 08 min 31 sec)
Heartbeat CPU 0 instructions: 130000000 cycles: 27141104 heartbeat IPC: 4.019 cumulative IPC: 4.692 (Simulation time: 00 hr 09 min 23 sec)
Simulation finished CPU 0 instructions: 100000008 cycles: 21314730 cumulative IPC: 4.692 (Simulation time: 00 hr 09 min 23 sec)
Simulation complete CPU 0 instructions: 100000008 cycles: 21314730 cumulative IPC: 4.692 (Simulation time: 00 hr 09 min 23 sec)

ChampSim completed all CPUs

=== Simulation ===
CPU 0 runs ../traces/secret_traces/compute_int/compute_int_161.champsimtrace.xz
Region of Interest Statistics

CPU 0 cumulative IPC: 4.692 instructions: 100000008 cycles: 21314730
CPU 0 Branch Prediction Accuracy: 98.77% MPKI: 1.779 Average ROB Occupancy at Mispredict: 73.52
Branch type MPKI
BRANCH_DIRECT_JUMP: 0.00071
BRANCH_INDIRECT: 0.0326
BRANCH_CONDITIONAL: 1.74
BRANCH_DIRECT_CALL: 0.00044
BRANCH_INDIRECT_CALL: 0.00022
BRANCH_RETURN: 0.00044

LLC TOTAL        ACCESS:      60275 HIT:      29791 MISS:      30484
LLC LOAD         ACCESS:        505 HIT:        142 MISS:        363
LLC RFO          ACCESS:      31284 HIT:       4089 MISS:      27195
LLC PREFETCH     ACCESS:       3488 HIT:        720 MISS:       2768
LLC WRITE        ACCESS:      24891 HIT:      24831 MISS:         60
LLC TRANSLATION  ACCESS:        107 HIT:          9 MISS:         98
LLC PREFETCH REQUESTED:          0 ISSUED:          0 USEFUL:          0 USELESS:          0
LLC AVERAGE MISS LATENCY: 266.1 cycles
cpu0_DTLB TOTAL        ACCESS:   19171168 HIT:   19154574 MISS:      16594
cpu0_DTLB LOAD         ACCESS:   19171168 HIT:   19154574 MISS:      16594
cpu0_DTLB RFO          ACCESS:          0 HIT:          0 MISS:          0
cpu0_DTLB PREFETCH     ACCESS:          0 HIT:          0 MISS:          0
cpu0_DTLB WRITE        ACCESS:          0 HIT:          0 MISS:          0
cpu0_DTLB TRANSLATION  ACCESS:          0 HIT:          0 MISS:          0
cpu0_DTLB PREFETCH REQUESTED:          0 ISSUED:          0 USEFUL:          0 USELESS:          0
cpu0_DTLB AVERAGE MISS LATENCY: 9.455 cycles
cpu0_ITLB TOTAL        ACCESS:    1281021 HIT:    1280912 MISS:        109
cpu0_ITLB LOAD         ACCESS:    1281021 HIT:    1280912 MISS:        109
cpu0_ITLB RFO          ACCESS:          0 HIT:          0 MISS:          0
cpu0_ITLB PREFETCH     ACCESS:          0 HIT:          0 MISS:          0
cpu0_ITLB WRITE        ACCESS:          0 HIT:          0 MISS:          0
cpu0_ITLB TRANSLATION  ACCESS:          0 HIT:          0 MISS:          0
cpu0_ITLB PREFETCH REQUESTED:          0 ISSUED:          0 USEFUL:          0 USELESS:          0
cpu0_ITLB AVERAGE MISS LATENCY: 113.3 cycles
cpu0_L1D TOTAL        ACCESS:   35579879 HIT:   34732805 MISS:     847074
cpu0_L1D LOAD         ACCESS:   17003091 HIT:   16871366 MISS:     131725
cpu0_L1D RFO          ACCESS:          0 HIT:          0 MISS:          0
cpu0_L1D PREFETCH     ACCESS:    2442294 HIT:    2061144 MISS:     381150
cpu0_L1D WRITE        ACCESS:   16134075 HIT:   15800045 MISS:     334030
cpu0_L1D TRANSLATION  ACCESS:        419 HIT:        250 MISS:        169
cpu0_L1D PREFETCH REQUESTED:    5617743 ISSUED:    2442333 USEFUL:      21279 USELESS:        739
cpu0_L1D AVERAGE MISS LATENCY: 10.63 cycles
cpu0_L1I TOTAL        ACCESS:    1946036 HIT:    1941440 MISS:       4596
cpu0_L1I LOAD         ACCESS:     889473 HIT:     887281 MISS:       2192
cpu0_L1I RFO          ACCESS:          0 HIT:          0 MISS:          0
cpu0_L1I PREFETCH     ACCESS:    1056563 HIT:    1054159 MISS:       2404
cpu0_L1I WRITE        ACCESS:          0 HIT:          0 MISS:          0
cpu0_L1I TRANSLATION  ACCESS:          0 HIT:          0 MISS:          0
cpu0_L1I PREFETCH REQUESTED:    1629368 ISSUED:    1056563 USEFUL:       1047 USELESS:       1031
cpu0_L1I AVERAGE MISS LATENCY: 42.24 cycles
cpu0_L2C TOTAL        ACCESS:    1069828 HIT:    1031606 MISS:      38222
cpu0_L2C LOAD         ACCESS:     101815 HIT:     101273 MISS:        542
cpu0_L2C RFO          ACCESS:      46776 HIT:      15492 MISS:      31284
cpu0_L2C PREFETCH     ACCESS:     860949 HIT:     854660 MISS:       6289
cpu0_L2C WRITE        ACCESS:      60130 HIT:      60130 MISS:          0
cpu0_L2C TRANSLATION  ACCESS:        158 HIT:         51 MISS:        107
cpu0_L2C PREFETCH REQUESTED:     484153 ISSUED:     478808 USEFUL:       3449 USELESS:       1018
cpu0_L2C AVERAGE MISS LATENCY: 231.4 cycles
cpu0_STLB TOTAL        ACCESS:      12636 HIT:      12224 MISS:        412
cpu0_STLB LOAD         ACCESS:      12636 HIT:      12224 MISS:        412
cpu0_STLB RFO          ACCESS:          0 HIT:          0 MISS:          0
cpu0_STLB PREFETCH     ACCESS:          0 HIT:          0 MISS:          0
cpu0_STLB WRITE        ACCESS:          0 HIT:          0 MISS:          0
cpu0_STLB TRANSLATION  ACCESS:          0 HIT:          0 MISS:          0
cpu0_STLB PREFETCH REQUESTED:          0 ISSUED:          0 USEFUL:          0 USELESS:          0
cpu0_STLB AVERAGE MISS LATENCY: 213.4 cycles

DRAM Statistics

Channel 0 RQ ROW_BUFFER_HIT:       5230
  ROW_BUFFER_MISS:       9981
 AVG DBUS CONGESTED CYCLE: 3.97
WQ ROW_BUFFER_HIT: Channel 0 
  ROW_BUFFER_MISS:        862
  FULL:       9526

Channel 1 RQ ROW_BUFFER_HIT:       5187
  ROW_BUFFER_MISS:      10001
 AVG DBUS CONGESTED CYCLE: 3.97
WQ ROW_BUFFER_HIT: Channel 1 
  ROW_BUFFER_MISS:        955
  FULL:       9497
BERTI TO_L1: 9141559 TO_L2: 2433904 TO_L2_BC_MSHR: 461930
BERTI AVG_LAT: 21.4222 NUM_TRACK_LATENCY: 651424 NUM_CANT_TRACK_LATENCY: 0
BERTI CROSS_PAGE 2364542 NO_CROSS_PAGE: 9210921
BERTI FOUND_BERTI: 2657351 NO_FOUND_BERTI: 19604791
BERTI AVERAGE_ISSUED: 5.86202
CPU 0 L1I Entangling prefetcher final stats
IP accesses: 364 d900 19663 / 889562
IP misses: ef72 3bdc80 18 / 2281
IP hits: 0 0 0 / 0
IP late: ef6f 3bdbc0 8 / 846
IP wrong: ef71 3bdc40 8 / 1015
miss rate: 0.00256419
coverage: 0
coverage_late: 0.37089
accuracy: 0
accuracy_late: 0.454595
discarded: 0
evicts entangled j table: 0
evicts entangled k table: 216
max bb size: 88
formats: 36 0 205 93 40 125 0 
hist_lookups: 147 137 149 177 155 154 108 86 65 42 29 16 8 5 0 0 0 2080 
hist_lookups_evict: 0 %
hist_lookups_shortlat: 61.9417 %
bb_found_hist: 0 24669 33402 23025 29694 2574 58 29 23 6 2457 2461 12 1 2461 2 4 0 1 0 9 0 9830 2024 2361 74 1 14 2434 0 0 0 12 2 0 3 6 0 0 30 5 59 4 5 2429 0 7038 0 41 2 0 34 2 2059 0 31 1 1 2051 21 2 1 1553 6 
bb_found_summary: 1536867 153024 10.0434
entangled_found_hist: 0 22692 13030 2113 372 101 14 0 
entangled_found_summary: 57168 38322 1.49179
bb_ent_found_hist: 0 10456 1870 5541 620 254 138 48 122 0 2 3 0 0 0 3 0 0 0 0 0 0 0 0 0 0 0 0 0 0 0 0 0 0 0 0 0 0 0 0 0 0 0 0 0 0 13 0 0 0 0 0 0 0 0 0 0 0 0 0 0 0 0 0 
bb_ent_found_summary: 37405 19070 1.96146
