WARNING: physical memory size is smaller than virtual memory size.

*** ChampSim Multicore Out-of-Order Simulator ***
Warmup Instructions: 30000000
Simulation Instructions: 100000000
Number of CPUs: 1
Page size: 4096

BTB:
Basic BTB sets: 1024 ways: 8
Indirect:
history lengths: 0 0 10 16 27 44 60 96 109 219 449 487 714 1313 2146 3881 
ITTAGE tables: 64768 bytes;Region table: 240 bytes;IUM: 384 bytes;Total Storage= 65392 bytes;
RAS:
RAS size: 64
Berti Prefetcher
CPU 0 Entangling prefetcher
Off-chip DRAM Size: 8 GiB Channels: 2 Width: 64-bit Data Race: 6400 MT/s
Heartbeat CPU 0 instructions: 10000004 cycles: 2082515 heartbeat IPC: 4.802 cumulative IPC: 4.802 (Simulation time: 00 hr 00 min 43 sec)
Heartbeat CPU 0 instructions: 20000003 cycles: 4221760 heartbeat IPC: 4.675 cumulative IPC: 4.737 (Simulation time: 00 hr 01 min 28 sec)
Heartbeat CPU 0 instructions: 30000008 cycles: 6439040 heartbeat IPC: 4.51 cumulative IPC: 4.659 (Simulation time: 00 hr 02 min 16 sec)
Warmup finished CPU 0 instructions: 30000008 cycles: 6439041 cumulative IPC: 4.659 (Simulation time: 00 hr 02 min 16 sec)
Warmup complete CPU 0 instructions: 30000008 cycles: 6439041 cumulative IPC: 4.659 (Simulation time: 00 hr 02 min 16 sec)
Heartbeat CPU 0 instructions: 40000000 cycles: 13220680 heartbeat IPC: 1.475 cumulative IPC: 1.475 (Simulation time: 00 hr 03 min 29 sec)
Heartbeat CPU 0 instructions: 50000000 cycles: 19840982 heartbeat IPC: 1.511 cumulative IPC: 1.492 (Simulation time: 00 hr 04 min 36 sec)
Heartbeat CPU 0 instructions: 60000008 cycles: 26427387 heartbeat IPC: 1.518 cumulative IPC: 1.501 (Simulation time: 00 hr 05 min 46 sec)
Heartbeat CPU 0 instructions: 70000001 cycles: 33365563 heartbeat IPC: 1.441 cumulative IPC: 1.486 (Simulation time: 00 hr 06 min 56 sec)
Heartbeat CPU 0 instructions: 80000004 cycles: 40280532 heartbeat IPC: 1.446 cumulative IPC: 1.477 (Simulation time: 00 hr 08 min 07 sec)
Heartbeat CPU 0 instructions: 90000002 cycles: 46550366 heartbeat IPC: 1.595 cumulative IPC: 1.496 (Simulation time: 00 hr 09 min 19 sec)
Heartbeat CPU 0 instructions: 100000004 cycles: 52241696 heartbeat IPC: 1.757 cumulative IPC: 1.528 (Simulation time: 00 hr 10 min 29 sec)
Heartbeat CPU 0 instructions: 110000000 cycles: 59450203 heartbeat IPC: 1.387 cumulative IPC: 1.509 (Simulation time: 00 hr 11 min 41 sec)
Heartbeat CPU 0 instructions: 120000000 cycles: 63700072 heartbeat IPC: 2.353 cumulative IPC: 1.572 (Simulation time: 00 hr 12 min 37 sec)
Heartbeat CPU 0 instructions: 130000010 cycles: 65543543 heartbeat IPC: 5.425 cumulative IPC: 1.692 (Simulation time: 00 hr 13 min 18 sec)
Simulation finished CPU 0 instructions: 100000002 cycles: 59104503 cumulative IPC: 1.692 (Simulation time: 00 hr 13 min 18 sec)
Simulation complete CPU 0 instructions: 100000002 cycles: 59104503 cumulative IPC: 1.692 (Simulation time: 00 hr 13 min 18 sec)

ChampSim completed all CPUs

=== Simulation ===
CPU 0 runs ../traces/secret_traces/compute_int/compute_int_467.champsimtrace.xz
Region of Interest Statistics

CPU 0 cumulative IPC: 1.692 instructions: 100000002 cycles: 59104503
CPU 0 Branch Prediction Accuracy: 85.31% MPKI: 20.92 Average ROB Occupancy at Mispredict: 7.24
Branch type MPKI
BRANCH_DIRECT_JUMP: 0.00037
BRANCH_INDIRECT: 4.28
BRANCH_CONDITIONAL: 16.6
BRANCH_DIRECT_CALL: 0.00017
BRANCH_INDIRECT_CALL: 0.00013
BRANCH_RETURN: 0.0002

LLC TOTAL        ACCESS:     701073 HIT:     629550 MISS:      71523
LLC LOAD         ACCESS:      39500 HIT:      34741 MISS:       4759
LLC RFO          ACCESS:     238923 HIT:     202731 MISS:      36192
LLC PREFETCH     ACCESS:     142600 HIT:     112643 MISS:      29957
LLC WRITE        ACCESS:     280015 HIT:     279434 MISS:        581
LLC TRANSLATION  ACCESS:         35 HIT:          1 MISS:         34
LLC PREFETCH REQUESTED:          0 ISSUED:          0 USEFUL:          0 USELESS:          0
LLC AVERAGE MISS LATENCY: 323.1 cycles
cpu0_DTLB TOTAL        ACCESS:   26983788 HIT:   26333661 MISS:     650127
cpu0_DTLB LOAD         ACCESS:   26983788 HIT:   26333661 MISS:     650127
cpu0_DTLB RFO          ACCESS:          0 HIT:          0 MISS:          0
cpu0_DTLB PREFETCH     ACCESS:          0 HIT:          0 MISS:          0
cpu0_DTLB WRITE        ACCESS:          0 HIT:          0 MISS:          0
cpu0_DTLB TRANSLATION  ACCESS:          0 HIT:          0 MISS:          0
cpu0_DTLB PREFETCH REQUESTED:          0 ISSUED:          0 USEFUL:          0 USELESS:          0
cpu0_DTLB AVERAGE MISS LATENCY: 6.931 cycles
cpu0_ITLB TOTAL        ACCESS:    1076031 HIT:    1075998 MISS:         33
cpu0_ITLB LOAD         ACCESS:    1076031 HIT:    1075998 MISS:         33
cpu0_ITLB RFO          ACCESS:          0 HIT:          0 MISS:          0
cpu0_ITLB PREFETCH     ACCESS:          0 HIT:          0 MISS:          0
cpu0_ITLB WRITE        ACCESS:          0 HIT:          0 MISS:          0
cpu0_ITLB TRANSLATION  ACCESS:          0 HIT:          0 MISS:          0
cpu0_ITLB PREFETCH REQUESTED:          0 ISSUED:          0 USEFUL:          0 USELESS:          0
cpu0_ITLB AVERAGE MISS LATENCY: 201.4 cycles
cpu0_L1D TOTAL        ACCESS:   47969911 HIT:   44201551 MISS:    3768360
cpu0_L1D LOAD         ACCESS:   19586994 HIT:   17855346 MISS:    1731648
cpu0_L1D RFO          ACCESS:          0 HIT:          0 MISS:          0
cpu0_L1D PREFETCH     ACCESS:   20040848 HIT:   18568392 MISS:    1472456
cpu0_L1D WRITE        ACCESS:    8342025 HIT:    7777808 MISS:     564217
cpu0_L1D TRANSLATION  ACCESS:         44 HIT:          5 MISS:         39
cpu0_L1D PREFETCH REQUESTED:   33157538 ISSUED:   20040836 USEFUL:     146351 USELESS:      30062
cpu0_L1D AVERAGE MISS LATENCY: 12.97 cycles
cpu0_L1I TOTAL        ACCESS:    1727449 HIT:    1723751 MISS:       3698
cpu0_L1I LOAD         ACCESS:     660088 HIT:     658776 MISS:       1312
cpu0_L1I RFO          ACCESS:          0 HIT:          0 MISS:          0
cpu0_L1I PREFETCH     ACCESS:    1067361 HIT:    1064975 MISS:       2386
cpu0_L1I WRITE        ACCESS:          0 HIT:          0 MISS:          0
cpu0_L1I TRANSLATION  ACCESS:          0 HIT:          0 MISS:          0
cpu0_L1I PREFETCH REQUESTED:    1221586 ISSUED:    1067361 USEFUL:       1333 USELESS:        870
cpu0_L1I AVERAGE MISS LATENCY: 130.1 cycles
cpu0_L2C TOTAL        ACCESS:    6681500 HIT:    6194229 MISS:     487271
cpu0_L2C LOAD         ACCESS:    1572132 HIT:    1531362 MISS:      40770
cpu0_L2C RFO          ACCESS:     426900 HIT:     187975 MISS:     238925
cpu0_L2C PREFETCH     ACCESS:    4176582 HIT:    3969046 MISS:     207536
cpu0_L2C WRITE        ACCESS:     505847 HIT:     505842 MISS:          5
cpu0_L2C TRANSLATION  ACCESS:         39 HIT:          4 MISS:         35
cpu0_L2C PREFETCH REQUESTED:    2949315 ISSUED:    2802039 USEFUL:      66617 USELESS:      14646
cpu0_L2C AVERAGE MISS LATENCY: 65.08 cycles
cpu0_STLB TOTAL        ACCESS:     586170 HIT:     586129 MISS:         41
cpu0_STLB LOAD         ACCESS:     586170 HIT:     586129 MISS:         41
cpu0_STLB RFO          ACCESS:          0 HIT:          0 MISS:          0
cpu0_STLB PREFETCH     ACCESS:          0 HIT:          0 MISS:          0
cpu0_STLB WRITE        ACCESS:          0 HIT:          0 MISS:          0
cpu0_STLB TRANSLATION  ACCESS:          0 HIT:          0 MISS:          0
cpu0_STLB PREFETCH REQUESTED:          0 ISSUED:          0 USEFUL:          0 USELESS:          0
cpu0_STLB AVERAGE MISS LATENCY: 431.6 cycles

DRAM Statistics

Channel 0 RQ ROW_BUFFER_HIT:       3869
  ROW_BUFFER_MISS:      31449
 AVG DBUS CONGESTED CYCLE: 3.939
WQ ROW_BUFFER_HIT: Channel 0 
  ROW_BUFFER_MISS:       3085
  FULL:      27489

Channel 1 RQ ROW_BUFFER_HIT:       3699
  ROW_BUFFER_MISS:      30727
 AVG DBUS CONGESTED CYCLE: 3.933
WQ ROW_BUFFER_HIT: Channel 1 
  ROW_BUFFER_MISS:       3214
  FULL:      26969
BERTI TO_L1: 36769457 TO_L2: 9868579 TO_L2_BC_MSHR: 2116891
BERTI AVG_LAT: 19.1946 NUM_TRACK_LATENCY: 1871710 NUM_CANT_TRACK_LATENCY: 25
BERTI CROSS_PAGE 7124835 NO_CROSS_PAGE: 39513201
BERTI FOUND_BERTI: 9749393 NO_FOUND_BERTI: 14691387
BERTI AVERAGE_ISSUED: 7.09511
CPU 0 L1I Entangling prefetcher final stats
IP accesses: 364 d900 26060 / 661379
IP misses: 3c32 f0c80 172 / 2603
IP hits: 0 0 0 / 0
IP late: 38f0 e3c00 7 / 530
IP wrong: f16d 3c5b40 9 / 866
miss rate: 0.00393572
coverage: 0
coverage_late: 0.203612
accuracy: 0
accuracy_late: 0.379657
discarded: 0
evicts entangled j table: 0
evicts entangled k table: 127
max bb size: 46
formats: 24 0 117 30 22 80 0 
hist_lookups: 84 89 85 70 61 61 32 24 25 31 26 16 14 6 2 0 0 2050 
hist_lookups_evict: 0 %
hist_lookups_shortlat: 76.6069 %
bb_found_hist: 0 15927 39430 32980 39242 3903 59 46 29 2 0 29 0 0 0 0 0 0 0 0 0 0 9179 0 0 0 0 9180 0 0 0 0 0 0 0 0 0 0 0 0 0 0 0 0 0 0 6460 0 0 0 0 0 0 0 0 0 0 0 0 0 0 0 0 0 
bb_found_summary: 1118413 156466 7.14797
entangled_found_hist: 0 31240 1026 13752 193 104 21 0 
entangled_found_summary: 75966 46336 1.63946
bb_ent_found_hist: 0 17682 1659 716 366 152 88 143 32 17 0 30 5 0 0 0 0 0 0 0 0 0 0 0 0 0 0 2 0 0 0 0 0 0 0 0 0 0 0 0 0 0 0 0 0 0 25 0 0 0 0 0 0 0 0 0 0 0 0 0 0 0 0 0 
bb_ent_found_summary: 28904 20917 1.38185
