WARNING: physical memory size is smaller than virtual memory size.

*** ChampSim Multicore Out-of-Order Simulator ***
Warmup Instructions: 30000000
Simulation Instructions: 100000000
Number of CPUs: 1
Page size: 4096

BTB:
Basic BTB sets: 1024 ways: 8
Indirect:
history lengths: 0 0 10 16 27 44 60 96 109 219 449 487 714 1313 2146 3881 
ITTAGE tables: 64768 bytes;Region table: 240 bytes;IUM: 384 bytes;Total Storage= 65392 bytes;
RAS:
RAS size: 64
Berti Prefetcher
CPU 0 Entangling prefetcher
Off-chip DRAM Size: 8 GiB Channels: 2 Width: 64-bit Data Race: 6400 MT/s
Heartbeat CPU 0 instructions: 10000004 cycles: 1673318 heartbeat IPC: 5.976 cumulative IPC: 5.976 (Simulation time: 00 hr 00 min 38 sec)
Heartbeat CPU 0 instructions: 20000000 cycles: 3339985 heartbeat IPC: 6 cumulative IPC: 5.988 (Simulation time: 00 hr 01 min 17 sec)
*** Reached end of trace: (0, "../traces/secret_traces/compute_int/compute_int_800.champsimtrace.xz")
Heartbeat CPU 0 instructions: 30000005 cycles: 5006681 heartbeat IPC: 6 cumulative IPC: 5.992 (Simulation time: 00 hr 01 min 51 sec)
Warmup finished CPU 0 instructions: 30000005 cycles: 5006682 cumulative IPC: 5.992 (Simulation time: 00 hr 01 min 51 sec)
Warmup complete CPU 0 instructions: 30000005 cycles: 5006682 cumulative IPC: 5.992 (Simulation time: 00 hr 01 min 51 sec)
Heartbeat CPU 0 instructions: 40000000 cycles: 8503992 heartbeat IPC: 2.859 cumulative IPC: 2.859 (Simulation time: 00 hr 02 min 45 sec)
*** Reached end of trace: (0, "../traces/secret_traces/compute_int/compute_int_800.champsimtrace.xz")
Heartbeat CPU 0 instructions: 50000000 cycles: 11249899 heartbeat IPC: 3.642 cumulative IPC: 3.203 (Simulation time: 00 hr 03 min 37 sec)
Heartbeat CPU 0 instructions: 60000008 cycles: 14662573 heartbeat IPC: 2.93 cumulative IPC: 3.107 (Simulation time: 00 hr 04 min 34 sec)
*** Reached end of trace: (0, "../traces/secret_traces/compute_int/compute_int_800.champsimtrace.xz")
Heartbeat CPU 0 instructions: 70000010 cycles: 17501982 heartbeat IPC: 3.522 cumulative IPC: 3.201 (Simulation time: 00 hr 05 min 26 sec)
Heartbeat CPU 0 instructions: 80000000 cycles: 20636393 heartbeat IPC: 3.19 cumulative IPC: 3.199 (Simulation time: 00 hr 06 min 17 sec)
*** Reached end of trace: (0, "../traces/secret_traces/compute_int/compute_int_800.champsimtrace.xz")
Heartbeat CPU 0 instructions: 90000010 cycles: 23648871 heartbeat IPC: 3.32 cumulative IPC: 3.219 (Simulation time: 00 hr 07 min 04 sec)
Heartbeat CPU 0 instructions: 100000003 cycles: 26513342 heartbeat IPC: 3.491 cumulative IPC: 3.255 (Simulation time: 00 hr 07 min 52 sec)
Heartbeat CPU 0 instructions: 110000006 cycles: 29775905 heartbeat IPC: 3.065 cumulative IPC: 3.23 (Simulation time: 00 hr 08 min 47 sec)
*** Reached end of trace: (0, "../traces/secret_traces/compute_int/compute_int_800.champsimtrace.xz")
Heartbeat CPU 0 instructions: 120000002 cycles: 32466811 heartbeat IPC: 3.716 cumulative IPC: 3.277 (Simulation time: 00 hr 09 min 39 sec)
Heartbeat CPU 0 instructions: 130000005 cycles: 35929502 heartbeat IPC: 2.888 cumulative IPC: 3.234 (Simulation time: 00 hr 10 min 34 sec)
Simulation finished CPU 0 instructions: 100000000 cycles: 30922821 cumulative IPC: 3.234 (Simulation time: 00 hr 10 min 34 sec)
Simulation complete CPU 0 instructions: 100000000 cycles: 30922821 cumulative IPC: 3.234 (Simulation time: 00 hr 10 min 34 sec)

ChampSim completed all CPUs

=== Simulation ===
CPU 0 runs ../traces/secret_traces/compute_int/compute_int_800.champsimtrace.xz
Region of Interest Statistics

CPU 0 cumulative IPC: 3.234 instructions: 100000000 cycles: 30922821
CPU 0 Branch Prediction Accuracy: 94.56% MPKI: 7.317 Average ROB Occupancy at Mispredict: 37.98
Branch type MPKI
BRANCH_DIRECT_JUMP: 0
BRANCH_INDIRECT: 0.00193
BRANCH_CONDITIONAL: 7.31
BRANCH_DIRECT_CALL: 0
BRANCH_INDIRECT_CALL: 0
BRANCH_RETURN: 8e-05

LLC TOTAL        ACCESS:     776649 HIT:     309250 MISS:     467399
LLC LOAD         ACCESS:      13045 HIT:        290 MISS:      12755
LLC RFO          ACCESS:     125813 HIT:        245 MISS:     125568
LLC PREFETCH     ACCESS:     329461 HIT:        444 MISS:     329017
LLC WRITE        ACCESS:     308317 HIT:     308268 MISS:         49
LLC TRANSLATION  ACCESS:         13 HIT:          3 MISS:         10
LLC PREFETCH REQUESTED:          0 ISSUED:          0 USEFUL:          0 USELESS:          0
LLC AVERAGE MISS LATENCY: 172.1 cycles
cpu0_DTLB TOTAL        ACCESS:   23195402 HIT:   23182095 MISS:      13307
cpu0_DTLB LOAD         ACCESS:   23195402 HIT:   23182095 MISS:      13307
cpu0_DTLB RFO          ACCESS:          0 HIT:          0 MISS:          0
cpu0_DTLB PREFETCH     ACCESS:          0 HIT:          0 MISS:          0
cpu0_DTLB WRITE        ACCESS:          0 HIT:          0 MISS:          0
cpu0_DTLB TRANSLATION  ACCESS:          0 HIT:          0 MISS:          0
cpu0_DTLB PREFETCH REQUESTED:          0 ISSUED:          0 USEFUL:          0 USELESS:          0
cpu0_DTLB AVERAGE MISS LATENCY: 3.683 cycles
cpu0_ITLB TOTAL        ACCESS:       9803 HIT:       9803 MISS:          0
cpu0_ITLB LOAD         ACCESS:       9803 HIT:       9803 MISS:          0
cpu0_ITLB RFO          ACCESS:          0 HIT:          0 MISS:          0
cpu0_ITLB PREFETCH     ACCESS:          0 HIT:          0 MISS:          0
cpu0_ITLB WRITE        ACCESS:          0 HIT:          0 MISS:          0
cpu0_ITLB TRANSLATION  ACCESS:          0 HIT:          0 MISS:          0
cpu0_ITLB PREFETCH REQUESTED:          0 ISSUED:          0 USEFUL:          0 USELESS:          0
cpu0_ITLB AVERAGE MISS LATENCY: -nan cycles
cpu0_L1D TOTAL        ACCESS:   47339375 HIT:   40183296 MISS:    7156079
cpu0_L1D LOAD         ACCESS:   19398384 HIT:   19222281 MISS:     176103
cpu0_L1D RFO          ACCESS:          0 HIT:          0 MISS:          0
cpu0_L1D PREFETCH     ACCESS:   18552298 HIT:   14427206 MISS:    4125092
cpu0_L1D WRITE        ACCESS:    9388673 HIT:    6533809 MISS:    2854864
cpu0_L1D TRANSLATION  ACCESS:         20 HIT:          0 MISS:         20
cpu0_L1D PREFETCH REQUESTED:   24418411 ISSUED:   18552305 USEFUL:     126420 USELESS:       1094
cpu0_L1D AVERAGE MISS LATENCY: 4.061 cycles
cpu0_L1I TOTAL        ACCESS:      14042 HIT:      13443 MISS:        599
cpu0_L1I LOAD         ACCESS:       6709 HIT:       6342 MISS:        367
cpu0_L1I RFO          ACCESS:          0 HIT:          0 MISS:          0
cpu0_L1I PREFETCH     ACCESS:       7333 HIT:       7101 MISS:        232
cpu0_L1I WRITE        ACCESS:          0 HIT:          0 MISS:          0
cpu0_L1I TRANSLATION  ACCESS:          0 HIT:          0 MISS:          0
cpu0_L1I PREFETCH REQUESTED:       8081 ISSUED:       7333 USEFUL:        123 USELESS:          5
cpu0_L1I AVERAGE MISS LATENCY: 135.6 cycles
cpu0_L2C TOTAL        ACCESS:    8300906 HIT:    7155370 MISS:    1145536
cpu0_L2C LOAD         ACCESS:      61961 HIT:      43516 MISS:      18445
cpu0_L2C RFO          ACCESS:     308333 HIT:     175343 MISS:     132990
cpu0_L2C PREFETCH     ACCESS:    7623379 HIT:    6629296 MISS:     994083
cpu0_L2C WRITE        ACCESS:     307213 HIT:     307208 MISS:          5
cpu0_L2C TRANSLATION  ACCESS:         20 HIT:          7 MISS:         13
cpu0_L2C PREFETCH REQUESTED:    3951586 ISSUED:    3733755 USEFUL:     216774 USELESS:      10371
cpu0_L2C AVERAGE MISS LATENCY: 77.36 cycles
cpu0_STLB TOTAL        ACCESS:       7985 HIT:       7965 MISS:         20
cpu0_STLB LOAD         ACCESS:       7985 HIT:       7965 MISS:         20
cpu0_STLB RFO          ACCESS:          0 HIT:          0 MISS:          0
cpu0_STLB PREFETCH     ACCESS:          0 HIT:          0 MISS:          0
cpu0_STLB WRITE        ACCESS:          0 HIT:          0 MISS:          0
cpu0_STLB TRANSLATION  ACCESS:          0 HIT:          0 MISS:          0
cpu0_STLB PREFETCH REQUESTED:          0 ISSUED:          0 USEFUL:          0 USELESS:          0
cpu0_STLB AVERAGE MISS LATENCY: 153.2 cycles

DRAM Statistics

Channel 0 RQ ROW_BUFFER_HIT:      74361
  ROW_BUFFER_MISS:     159426
 AVG DBUS CONGESTED CYCLE: 3.912
WQ ROW_BUFFER_HIT: Channel 0 
  ROW_BUFFER_MISS:      64631
  FULL:      90377

Channel 1 RQ ROW_BUFFER_HIT:      74499
  ROW_BUFFER_MISS:     159055
 AVG DBUS CONGESTED CYCLE: 3.913
WQ ROW_BUFFER_HIT: Channel 1 
  ROW_BUFFER_MISS:      64421
  FULL:      90407
BERTI TO_L1: 8146994 TO_L2: 18935629 TO_L2_BC_MSHR: 996966
BERTI AVG_LAT: 67.8971 NUM_TRACK_LATENCY: 277157 NUM_CANT_TRACK_LATENCY: 0
BERTI CROSS_PAGE 3523051 NO_CROSS_PAGE: 23559572
BERTI FOUND_BERTI: 11147154 NO_FOUND_BERTI: 14651314
BERTI AVERAGE_ISSUED: 4.62685
CPU 0 L1I Entangling prefetcher final stats
IP accesses: 6c5 1b140 148 / 6709
IP misses: f12c 3c4b00 45 / 367
IP hits: 0 0 0 / 0
IP late: 30ac c2b00 9 / 180
IP wrong: 16d 5b40 5 / 5
miss rate: 0.0547027
coverage: 0
coverage_late: 0.490464
accuracy: 0
accuracy_late: 0.972973
discarded: 0
evicts entangled j table: 0
evicts entangled k table: 5
max bb size: 7
formats: 5 0 0 1 0 0 0 
hist_lookups: 0 0 0 0 0 0 6 7 2 0 0 0 1 0 0 0 0 410 
hist_lookups_evict: 0 %
hist_lookups_shortlat: 96.2442 %
bb_found_hist: 0 1205 532 227 92 108 0 9 0 0 0 0 0 0 0 0 0 0 0 0 0 0 0 0 0 0 0 0 0 0 0 0 0 0 0 0 0 0 0 0 0 0 0 0 0 0 0 0 0 0 0 0 0 0 0 0 0 0 0 0 0 0 0 0 
bb_found_summary: 3921 2173 1.80442
entangled_found_hist: 0 644 206 250 52 0 0 0 
entangled_found_summary: 2014 1152 1.74827
bb_ent_found_hist: 0 886 253 208 54 36 0 0 0 0 0 0 0 0 0 0 0 0 0 0 0 0 0 0 0 0 0 0 0 0 0 0 0 0 0 0 0 0 0 0 0 0 0 0 0 0 0 0 0 0 0 0 0 0 0 0 0 0 0 0 0 0 0 0 
bb_ent_found_summary: 2412 1437 1.6785
