WARNING: physical memory size is smaller than virtual memory size.

*** ChampSim Multicore Out-of-Order Simulator ***
Warmup Instructions: 30000000
Simulation Instructions: 100000000
Number of CPUs: 1
Page size: 4096

BTB:
Basic BTB sets: 1024 ways: 8
Indirect:
history lengths: 0 0 10 16 27 44 60 96 109 219 449 487 714 1313 2146 3881 
ITTAGE tables: 64768 bytes;Region table: 240 bytes;IUM: 384 bytes;Total Storage= 65392 bytes;
RAS:
RAS size: 64
Berti Prefetcher
CPU 0 Entangling prefetcher
Off-chip DRAM Size: 8 GiB Channels: 2 Width: 64-bit Data Race: 6400 MT/s
Heartbeat CPU 0 instructions: 10000007 cycles: 1666896 heartbeat IPC: 5.999 cumulative IPC: 5.999 (Simulation time: 00 hr 00 min 34 sec)
Heartbeat CPU 0 instructions: 20000004 cycles: 3385191 heartbeat IPC: 5.82 cumulative IPC: 5.908 (Simulation time: 00 hr 01 min 09 sec)
Heartbeat CPU 0 instructions: 30000003 cycles: 5061398 heartbeat IPC: 5.966 cumulative IPC: 5.927 (Simulation time: 00 hr 01 min 44 sec)
Warmup finished CPU 0 instructions: 30000003 cycles: 5061399 cumulative IPC: 5.927 (Simulation time: 00 hr 01 min 44 sec)
Warmup complete CPU 0 instructions: 30000003 cycles: 5061399 cumulative IPC: 5.927 (Simulation time: 00 hr 01 min 44 sec)
*** Reached end of trace: (0, "../traces/secret_traces/compute_int/compute_int_605.champsimtrace.xz")
Heartbeat CPU 0 instructions: 40000001 cycles: 9769499 heartbeat IPC: 2.124 cumulative IPC: 2.124 (Simulation time: 00 hr 02 min 40 sec)
Heartbeat CPU 0 instructions: 50000005 cycles: 14001080 heartbeat IPC: 2.363 cumulative IPC: 2.237 (Simulation time: 00 hr 03 min 34 sec)
Heartbeat CPU 0 instructions: 60000003 cycles: 17198367 heartbeat IPC: 3.128 cumulative IPC: 2.472 (Simulation time: 00 hr 04 min 21 sec)
*** Reached end of trace: (0, "../traces/secret_traces/compute_int/compute_int_605.champsimtrace.xz")
Heartbeat CPU 0 instructions: 70000005 cycles: 21751686 heartbeat IPC: 2.196 cumulative IPC: 2.397 (Simulation time: 00 hr 05 min 16 sec)
Heartbeat CPU 0 instructions: 80000001 cycles: 25926544 heartbeat IPC: 2.395 cumulative IPC: 2.396 (Simulation time: 00 hr 06 min 10 sec)
Heartbeat CPU 0 instructions: 90000002 cycles: 29224161 heartbeat IPC: 3.032 cumulative IPC: 2.483 (Simulation time: 00 hr 06 min 59 sec)
*** Reached end of trace: (0, "../traces/secret_traces/compute_int/compute_int_605.champsimtrace.xz")
Heartbeat CPU 0 instructions: 100000004 cycles: 33527169 heartbeat IPC: 2.324 cumulative IPC: 2.459 (Simulation time: 00 hr 07 min 54 sec)
Heartbeat CPU 0 instructions: 110000001 cycles: 37988259 heartbeat IPC: 2.242 cumulative IPC: 2.43 (Simulation time: 00 hr 08 min 48 sec)
Heartbeat CPU 0 instructions: 120000008 cycles: 41575269 heartbeat IPC: 2.788 cumulative IPC: 2.465 (Simulation time: 00 hr 09 min 38 sec)
*** Reached end of trace: (0, "../traces/secret_traces/compute_int/compute_int_605.champsimtrace.xz")
Heartbeat CPU 0 instructions: 130000001 cycles: 45432765 heartbeat IPC: 2.592 cumulative IPC: 2.477 (Simulation time: 00 hr 10 min 29 sec)
Simulation finished CPU 0 instructions: 100000001 cycles: 40371368 cumulative IPC: 2.477 (Simulation time: 00 hr 10 min 29 sec)
Simulation complete CPU 0 instructions: 100000001 cycles: 40371368 cumulative IPC: 2.477 (Simulation time: 00 hr 10 min 29 sec)

ChampSim completed all CPUs

=== Simulation ===
CPU 0 runs ../traces/secret_traces/compute_int/compute_int_605.champsimtrace.xz
Region of Interest Statistics

CPU 0 cumulative IPC: 2.477 instructions: 100000001 cycles: 40371368
CPU 0 Branch Prediction Accuracy: 92.98% MPKI: 14.83 Average ROB Occupancy at Mispredict: 25.89
Branch type MPKI
BRANCH_DIRECT_JUMP: 0
BRANCH_INDIRECT: 8.23
BRANCH_CONDITIONAL: 6.59
BRANCH_DIRECT_CALL: 1e-05
BRANCH_INDIRECT_CALL: 0
BRANCH_RETURN: 8e-05

LLC TOTAL        ACCESS:     529385 HIT:     214110 MISS:     315275
LLC LOAD         ACCESS:       7246 HIT:       1199 MISS:       6047
LLC RFO          ACCESS:     139671 HIT:        158 MISS:     139513
LLC PREFETCH     ACCESS:     170891 HIT:       1252 MISS:     169639
LLC WRITE        ACCESS:     211524 HIT:     211497 MISS:         27
LLC TRANSLATION  ACCESS:         53 HIT:          4 MISS:         49
LLC PREFETCH REQUESTED:          0 ISSUED:          0 USEFUL:          0 USELESS:          0
LLC AVERAGE MISS LATENCY: 140.9 cycles
cpu0_DTLB TOTAL        ACCESS:   23771447 HIT:   23759591 MISS:      11856
cpu0_DTLB LOAD         ACCESS:   23771447 HIT:   23759591 MISS:      11856
cpu0_DTLB RFO          ACCESS:          0 HIT:          0 MISS:          0
cpu0_DTLB PREFETCH     ACCESS:          0 HIT:          0 MISS:          0
cpu0_DTLB WRITE        ACCESS:          0 HIT:          0 MISS:          0
cpu0_DTLB TRANSLATION  ACCESS:          0 HIT:          0 MISS:          0
cpu0_DTLB PREFETCH REQUESTED:          0 ISSUED:          0 USEFUL:          0 USELESS:          0
cpu0_DTLB AVERAGE MISS LATENCY: 3.929 cycles
cpu0_ITLB TOTAL        ACCESS:      15724 HIT:      15724 MISS:          0
cpu0_ITLB LOAD         ACCESS:      15724 HIT:      15724 MISS:          0
cpu0_ITLB RFO          ACCESS:          0 HIT:          0 MISS:          0
cpu0_ITLB PREFETCH     ACCESS:          0 HIT:          0 MISS:          0
cpu0_ITLB WRITE        ACCESS:          0 HIT:          0 MISS:          0
cpu0_ITLB TRANSLATION  ACCESS:          0 HIT:          0 MISS:          0
cpu0_ITLB PREFETCH REQUESTED:          0 ISSUED:          0 USEFUL:          0 USELESS:          0
cpu0_ITLB AVERAGE MISS LATENCY: -nan cycles
cpu0_L1D TOTAL        ACCESS:   47492965 HIT:   29138602 MISS:   18354363
cpu0_L1D LOAD         ACCESS:   11297048 HIT:   10995015 MISS:     302033
cpu0_L1D RFO          ACCESS:          0 HIT:          0 MISS:          0
cpu0_L1D PREFETCH     ACCESS:   26983694 HIT:   12730970 MISS:   14252724
cpu0_L1D WRITE        ACCESS:    9212016 HIT:    5412519 MISS:    3799497
cpu0_L1D TRANSLATION  ACCESS:        207 HIT:         98 MISS:        109
cpu0_L1D PREFETCH REQUESTED:   30511602 ISSUED:   26983682 USEFUL:      51496 USELESS:        211
cpu0_L1D AVERAGE MISS LATENCY: 0.8454 cycles
cpu0_L1I TOTAL        ACCESS:      23048 HIT:      22377 MISS:        671
cpu0_L1I LOAD         ACCESS:       9902 HIT:       9527 MISS:        375
cpu0_L1I RFO          ACCESS:          0 HIT:          0 MISS:          0
cpu0_L1I PREFETCH     ACCESS:      13146 HIT:      12850 MISS:        296
cpu0_L1I WRITE        ACCESS:          0 HIT:          0 MISS:          0
cpu0_L1I TRANSLATION  ACCESS:          0 HIT:          0 MISS:          0
cpu0_L1I PREFETCH REQUESTED:      16448 ISSUED:      13146 USEFUL:        155 USELESS:         10
cpu0_L1I AVERAGE MISS LATENCY: 33.47 cycles
cpu0_L2C TOTAL        ACCESS:   20479189 HIT:   19633045 MISS:     846144
cpu0_L2C LOAD         ACCESS:      50266 HIT:      39267 MISS:      10999
cpu0_L2C RFO          ACCESS:     216144 HIT:      74701 MISS:     141443
cpu0_L2C PREFETCH     ACCESS:   20000364 HIT:   19306715 MISS:     693649
cpu0_L2C WRITE        ACCESS:     212306 HIT:     212306 MISS:          0
cpu0_L2C TRANSLATION  ACCESS:        109 HIT:         56 MISS:         53
cpu0_L2C PREFETCH REQUESTED:   12467225 ISSUED:    7583383 USEFUL:     120368 USELESS:       1388
cpu0_L2C AVERAGE MISS LATENCY: 59.86 cycles
cpu0_STLB TOTAL        ACCESS:       5710 HIT:       5504 MISS:        206
cpu0_STLB LOAD         ACCESS:       5710 HIT:       5504 MISS:        206
cpu0_STLB RFO          ACCESS:          0 HIT:          0 MISS:          0
cpu0_STLB PREFETCH     ACCESS:          0 HIT:          0 MISS:          0
cpu0_STLB WRITE        ACCESS:          0 HIT:          0 MISS:          0
cpu0_STLB TRANSLATION  ACCESS:          0 HIT:          0 MISS:          0
cpu0_STLB PREFETCH REQUESTED:          0 ISSUED:          0 USEFUL:          0 USELESS:          0
cpu0_STLB AVERAGE MISS LATENCY: 125.4 cycles

DRAM Statistics

Channel 0 RQ ROW_BUFFER_HIT:      49466
  ROW_BUFFER_MISS:     108205
 AVG DBUS CONGESTED CYCLE: 3.804
WQ ROW_BUFFER_HIT: Channel 0 
  ROW_BUFFER_MISS:      31894
  FULL:      73988

Channel 1 RQ ROW_BUFFER_HIT:      49617
  ROW_BUFFER_MISS:     107960
 AVG DBUS CONGESTED CYCLE: 3.803
WQ ROW_BUFFER_HIT: Channel 1 
  ROW_BUFFER_MISS:      31668
  FULL:      74228
BERTI TO_L1: 4456190 TO_L2: 33218971 TO_L2_BC_MSHR: 262115
BERTI AVG_LAT: 49.8862 NUM_TRACK_LATENCY: 171800 NUM_CANT_TRACK_LATENCY: 0
BERTI CROSS_PAGE 4672960 NO_CROSS_PAGE: 33002201
BERTI FOUND_BERTI: 10259930 NO_FOUND_BERTI: 4705387
BERTI AVERAGE_ISSUED: 6.37914
CPU 0 L1I Entangling prefetcher final stats
IP accesses: 9d 2740 93 / 9902
IP misses: 4525 114940 33 / 375
IP hits: 0 0 0 / 0
IP late: 3c36 f0d80 14 / 191
IP wrong: 31a5 c6940 10 / 10
miss rate: 0.0378712
coverage: 0
coverage_late: 0.509334
accuracy: 0
accuracy_late: 0.950249
discarded: 0
evicts entangled j table: 0
evicts entangled k table: 1
max bb size: 15
formats: 3 0 14 2 2 1 0 
hist_lookups: 3 3 4 5 1 5 7 10 3 4 1 2 1 0 0 0 6 380 
hist_lookups_evict: 1.37932 %
hist_lookups_shortlat: 87.3564 %
bb_found_hist: 0 2097 988 462 82 101 0 14 16 44 25 0 0 0 6 35 0 0 0 0 0 0 0 0 0 0 0 0 0 0 0 0 0 0 0 0 0 0 0 0 0 0 0 0 0 0 0 0 0 0 0 0 0 0 0 0 0 0 0 0 0 0 0 0 
bb_found_summary: 7773 3870 2.00853
entangled_found_hist: 0 1230 388 459 92 25 0 0 
entangled_found_summary: 3876 2194 1.76664
bb_ent_found_hist: 0 1260 550 327 68 56 0 0 41 0 13 0 0 0 6 38 0 0 0 0 0 0 0 0 0 0 0 0 0 0 0 0 0 0 0 0 0 0 0 0 0 0 0 0 0 0 0 0 0 0 0 0 0 0 0 0 0 0 0 0 0 0 0 0 
bb_ent_found_summary: 5005 2359 2.12167
