WARNING: physical memory size is smaller than virtual memory size.

*** ChampSim Multicore Out-of-Order Simulator ***
Warmup Instructions: 30000000
Simulation Instructions: 100000000
Number of CPUs: 1
Page size: 4096

BTB:
Basic BTB sets: 1024 ways: 8
Indirect:
history lengths: 0 0 10 16 27 44 60 96 109 219 449 487 714 1313 2146 3881 
ITTAGE tables: 64768 bytes;Region table: 240 bytes;IUM: 384 bytes;Total Storage= 65392 bytes;
RAS:
RAS size: 64
Berti Prefetcher
CPU 0 Entangling prefetcher
Off-chip DRAM Size: 8 GiB Channels: 2 Width: 64-bit Data Race: 6400 MT/s
Heartbeat CPU 0 instructions: 10000001 cycles: 2750815 heartbeat IPC: 3.635 cumulative IPC: 3.635 (Simulation time: 00 hr 00 min 50 sec)
Heartbeat CPU 0 instructions: 20000002 cycles: 5277386 heartbeat IPC: 3.958 cumulative IPC: 3.79 (Simulation time: 00 hr 01 min 40 sec)
Heartbeat CPU 0 instructions: 30000001 cycles: 8021246 heartbeat IPC: 3.645 cumulative IPC: 3.74 (Simulation time: 00 hr 02 min 31 sec)
Warmup finished CPU 0 instructions: 30000001 cycles: 8021247 cumulative IPC: 3.74 (Simulation time: 00 hr 02 min 31 sec)
Warmup complete CPU 0 instructions: 30000001 cycles: 8021247 cumulative IPC: 3.74 (Simulation time: 00 hr 02 min 31 sec)
Heartbeat CPU 0 instructions: 40000002 cycles: 12319484 heartbeat IPC: 2.327 cumulative IPC: 2.327 (Simulation time: 00 hr 03 min 45 sec)
Heartbeat CPU 0 instructions: 50000005 cycles: 17195280 heartbeat IPC: 2.051 cumulative IPC: 2.18 (Simulation time: 00 hr 05 min 09 sec)
Heartbeat CPU 0 instructions: 60000000 cycles: 23090437 heartbeat IPC: 1.696 cumulative IPC: 1.991 (Simulation time: 00 hr 06 min 47 sec)
Heartbeat CPU 0 instructions: 70000002 cycles: 28418514 heartbeat IPC: 1.877 cumulative IPC: 1.961 (Simulation time: 00 hr 08 min 15 sec)
Heartbeat CPU 0 instructions: 80000000 cycles: 33183581 heartbeat IPC: 2.099 cumulative IPC: 1.987 (Simulation time: 00 hr 09 min 35 sec)
Heartbeat CPU 0 instructions: 90000001 cycles: 37948643 heartbeat IPC: 2.099 cumulative IPC: 2.005 (Simulation time: 00 hr 10 min 55 sec)
Heartbeat CPU 0 instructions: 100000004 cycles: 43389234 heartbeat IPC: 1.838 cumulative IPC: 1.979 (Simulation time: 00 hr 12 min 26 sec)
Heartbeat CPU 0 instructions: 110000000 cycles: 48251143 heartbeat IPC: 2.057 cumulative IPC: 1.989 (Simulation time: 00 hr 13 min 50 sec)
*** Reached end of trace: (0, "../traces/secret_traces/compute_int/compute_int_421.champsimtrace.xz")
Heartbeat CPU 0 instructions: 120000000 cycles: 52701276 heartbeat IPC: 2.247 cumulative IPC: 2.014 (Simulation time: 00 hr 15 min 07 sec)
Heartbeat CPU 0 instructions: 130000001 cycles: 58651330 heartbeat IPC: 1.681 cumulative IPC: 1.975 (Simulation time: 00 hr 16 min 40 sec)
Simulation finished CPU 0 instructions: 100000000 cycles: 50630084 cumulative IPC: 1.975 (Simulation time: 00 hr 16 min 40 sec)
Simulation complete CPU 0 instructions: 100000000 cycles: 50630084 cumulative IPC: 1.975 (Simulation time: 00 hr 16 min 40 sec)

ChampSim completed all CPUs

=== Simulation ===
CPU 0 runs ../traces/secret_traces/compute_int/compute_int_421.champsimtrace.xz
Region of Interest Statistics

CPU 0 cumulative IPC: 1.975 instructions: 100000000 cycles: 50630084
CPU 0 Branch Prediction Accuracy: 99.63% MPKI: 1.155 Average ROB Occupancy at Mispredict: 211.5
Branch type MPKI
BRANCH_DIRECT_JUMP: 0.00715
BRANCH_INDIRECT: 0.579
BRANCH_CONDITIONAL: 0.54
BRANCH_DIRECT_CALL: 0.0181
BRANCH_INDIRECT_CALL: 0.00273
BRANCH_RETURN: 0.00853

LLC TOTAL        ACCESS:    3417540 HIT:     459432 MISS:    2958108
LLC LOAD         ACCESS:    1027198 HIT:      93095 MISS:     934103
LLC RFO          ACCESS:      13099 HIT:        832 MISS:      12267
LLC PREFETCH     ACCESS:    2310605 HIT:     340561 MISS:    1970044
LLC WRITE        ACCESS:      23989 HIT:      23832 MISS:        157
LLC TRANSLATION  ACCESS:      42649 HIT:       1112 MISS:      41537
LLC PREFETCH REQUESTED:          0 ISSUED:          0 USEFUL:          0 USELESS:          0
LLC AVERAGE MISS LATENCY: 156.6 cycles
cpu0_DTLB TOTAL        ACCESS:   24282205 HIT:   23820314 MISS:     461891
cpu0_DTLB LOAD         ACCESS:   24282205 HIT:   23820314 MISS:     461891
cpu0_DTLB RFO          ACCESS:          0 HIT:          0 MISS:          0
cpu0_DTLB PREFETCH     ACCESS:          0 HIT:          0 MISS:          0
cpu0_DTLB WRITE        ACCESS:          0 HIT:          0 MISS:          0
cpu0_DTLB TRANSLATION  ACCESS:          0 HIT:          0 MISS:          0
cpu0_DTLB PREFETCH REQUESTED:          0 ISSUED:          0 USEFUL:          0 USELESS:          0
cpu0_DTLB AVERAGE MISS LATENCY: 42.22 cycles
cpu0_ITLB TOTAL        ACCESS:     635052 HIT:     631642 MISS:       3410
cpu0_ITLB LOAD         ACCESS:     635052 HIT:     631642 MISS:       3410
cpu0_ITLB RFO          ACCESS:          0 HIT:          0 MISS:          0
cpu0_ITLB PREFETCH     ACCESS:          0 HIT:          0 MISS:          0
cpu0_ITLB WRITE        ACCESS:          0 HIT:          0 MISS:          0
cpu0_ITLB TRANSLATION  ACCESS:          0 HIT:          0 MISS:          0
cpu0_ITLB PREFETCH REQUESTED:          0 ISSUED:          0 USEFUL:          0 USELESS:          0
cpu0_ITLB AVERAGE MISS LATENCY: 119.5 cycles
cpu0_L1D TOTAL        ACCESS:   36609007 HIT:   20843611 MISS:   15765396
cpu0_L1D LOAD         ACCESS:   27748709 HIT:   19227086 MISS:    8521623
cpu0_L1D RFO          ACCESS:          0 HIT:          0 MISS:          0
cpu0_L1D PREFETCH     ACCESS:    7836811 HIT:     734842 MISS:    7101969
cpu0_L1D WRITE        ACCESS:     914558 HIT:     826520 MISS:      88038
cpu0_L1D TRANSLATION  ACCESS:     108929 HIT:      55163 MISS:      53766
cpu0_L1D PREFETCH REQUESTED:    8844889 ISSUED:    7836811 USEFUL:     174378 USELESS:      80643
cpu0_L1D AVERAGE MISS LATENCY: 13.92 cycles
cpu0_L1I TOTAL        ACCESS:     917604 HIT:     761331 MISS:     156273
cpu0_L1I LOAD         ACCESS:     374230 HIT:     313008 MISS:      61222
cpu0_L1I RFO          ACCESS:          0 HIT:          0 MISS:          0
cpu0_L1I PREFETCH     ACCESS:     543374 HIT:     448323 MISS:      95051
cpu0_L1I WRITE        ACCESS:          0 HIT:          0 MISS:          0
cpu0_L1I TRANSLATION  ACCESS:          0 HIT:          0 MISS:          0
cpu0_L1I PREFETCH REQUESTED:    1167446 ISSUED:     543374 USEFUL:      64711 USELESS:      23145
cpu0_L1I AVERAGE MISS LATENCY: 90.6 cycles
cpu0_L2C TOTAL        ACCESS:   14376852 HIT:    5199131 MISS:    9177721
cpu0_L2C LOAD         ACCESS:    2165483 HIT:     869708 MISS:    1295775
cpu0_L2C RFO          ACCESS:      22064 HIT:       8828 MISS:      13236
cpu0_L2C PREFETCH     ACCESS:   12096063 HIT:    4270197 MISS:    7825866
cpu0_L2C WRITE        ACCESS:      40310 HIT:      40115 MISS:        195
cpu0_L2C TRANSLATION  ACCESS:      52932 HIT:      10283 MISS:      42649
cpu0_L2C PREFETCH REQUESTED:    7336327 ISSUED:    6943748 USEFUL:     710287 USELESS:     568509
cpu0_L2C AVERAGE MISS LATENCY: 55.65 cycles
cpu0_STLB TOTAL        ACCESS:     151519 HIT:      57806 MISS:      93713
cpu0_STLB LOAD         ACCESS:     151519 HIT:      57806 MISS:      93713
cpu0_STLB RFO          ACCESS:          0 HIT:          0 MISS:          0
cpu0_STLB PREFETCH     ACCESS:          0 HIT:          0 MISS:          0
cpu0_STLB WRITE        ACCESS:          0 HIT:          0 MISS:          0
cpu0_STLB TRANSLATION  ACCESS:          0 HIT:          0 MISS:          0
cpu0_STLB PREFETCH REQUESTED:          0 ISSUED:          0 USEFUL:          0 USELESS:          0
cpu0_STLB AVERAGE MISS LATENCY: 227 cycles

DRAM Statistics

Channel 0 RQ ROW_BUFFER_HIT:    1216622
  ROW_BUFFER_MISS:     271255
 AVG DBUS CONGESTED CYCLE: 3.871
WQ ROW_BUFFER_HIT: Channel 0 
  ROW_BUFFER_MISS:       2172
  FULL:       8419

Channel 1 RQ ROW_BUFFER_HIT:    1208300
  ROW_BUFFER_MISS:     261639
 AVG DBUS CONGESTED CYCLE: 3.864
WQ ROW_BUFFER_HIT: Channel 1 
  ROW_BUFFER_MISS:       2230
  FULL:       7743
BERTI TO_L1: 1308702 TO_L2: 8728509 TO_L2_BC_MSHR: 279831
BERTI AVG_LAT: 79.2326 NUM_TRACK_LATENCY: 3069168 NUM_CANT_TRACK_LATENCY: 14
BERTI CROSS_PAGE 1378810 NO_CROSS_PAGE: 8658401
BERTI FOUND_BERTI: 15465639 NO_FOUND_BERTI: 21885995
BERTI AVERAGE_ISSUED: 1.82248
CPU 0 L1I Entangling prefetcher final stats
IP accesses: 41a8 106a00 4872 / 451027
IP misses: 1228 48a00 2010 / 138019
IP hits: 0 0 0 / 0
IP late: 180c 60300 196 / 25671
IP wrong: 6bca 1af280 262 / 22926
miss rate: 0.306011
coverage: 0
coverage_late: 0.185997
accuracy: 0
accuracy_late: 0.528243
discarded: 0
evicts entangled j table: 0
evicts entangled k table: 6249
max bb size: 65
formats: 317 0 5268 2280 633 1206 0 
hist_lookups: 2183 3471 3164 3450 3762 3150 2353 1895 1636 1247 1013 751 449 364 234 0 498 17094 
hist_lookups_evict: 1.06607 %
hist_lookups_shortlat: 36.5929 %
bb_found_hist: 0 88896 37139 8051 6806 4102 2240 384 144 69 93 327 10 23 3 0 0 0 0 2 0 2 0 0 0 0 0 0 0 0 0 0 0 0 0 0 0 0 0 0 0 0 0 0 0 0 0 0 0 0 0 0 0 0 0 0 0 0 0 0 0 0 0 0 
bb_found_summary: 258030 148291 1.74003
entangled_found_hist: 0 29983 33571 89807 16030 1407 51 0 
entangled_found_summary: 438007 170849 2.56371
bb_ent_found_hist: 0 139262 95572 20832 17471 14418 3876 1271 1104 32 515 1872 60 0 0 0 0 0 0 0 0 0 0 0 0 0 0 0 0 0 0 0 0 0 0 0 0 0 0 0 0 0 0 0 0 0 0 0 0 0 0 0 0 0 0 0 0 0 0 0 0 0 0 0 
bb_ent_found_summary: 602611 296285 2.03389
