WARNING: physical memory size is smaller than virtual memory size.

*** ChampSim Multicore Out-of-Order Simulator ***
Warmup Instructions: 30000000
Simulation Instructions: 100000000
Number of CPUs: 1
Page size: 4096

BTB:
Basic BTB sets: 1024 ways: 8
Indirect:
history lengths: 0 0 10 16 27 44 60 96 109 219 449 487 714 1313 2146 3881 
ITTAGE tables: 64768 bytes;Region table: 240 bytes;IUM: 384 bytes;Total Storage= 65392 bytes;
RAS:
RAS size: 64
Berti Prefetcher
CPU 0 Entangling prefetcher
Off-chip DRAM Size: 8 GiB Channels: 2 Width: 64-bit Data Race: 6400 MT/s
Heartbeat CPU 0 instructions: 10000004 cycles: 1675279 heartbeat IPC: 5.969 cumulative IPC: 5.969 (Simulation time: 00 hr 00 min 33 sec)
Heartbeat CPU 0 instructions: 20000008 cycles: 3343125 heartbeat IPC: 5.996 cumulative IPC: 5.982 (Simulation time: 00 hr 01 min 07 sec)
Heartbeat CPU 0 instructions: 30000005 cycles: 5011377 heartbeat IPC: 5.994 cumulative IPC: 5.986 (Simulation time: 00 hr 01 min 40 sec)
Warmup finished CPU 0 instructions: 30000005 cycles: 5011378 cumulative IPC: 5.986 (Simulation time: 00 hr 01 min 40 sec)
Warmup complete CPU 0 instructions: 30000005 cycles: 5011378 cumulative IPC: 5.986 (Simulation time: 00 hr 01 min 40 sec)
Heartbeat CPU 0 instructions: 40000003 cycles: 8463970 heartbeat IPC: 2.896 cumulative IPC: 2.896 (Simulation time: 00 hr 02 min 27 sec)
Heartbeat CPU 0 instructions: 50000003 cycles: 12126876 heartbeat IPC: 2.73 cumulative IPC: 2.811 (Simulation time: 00 hr 03 min 16 sec)
Heartbeat CPU 0 instructions: 60000002 cycles: 15555009 heartbeat IPC: 2.917 cumulative IPC: 2.845 (Simulation time: 00 hr 04 min 02 sec)
Heartbeat CPU 0 instructions: 70000007 cycles: 17989085 heartbeat IPC: 4.108 cumulative IPC: 3.082 (Simulation time: 00 hr 04 min 50 sec)
Heartbeat CPU 0 instructions: 80000007 cycles: 19975543 heartbeat IPC: 5.034 cumulative IPC: 3.341 (Simulation time: 00 hr 05 min 32 sec)
*** Reached end of trace: (0, "../traces/secret_traces/compute_int/compute_int_322.champsimtrace.xz")
Heartbeat CPU 0 instructions: 90000001 cycles: 23836800 heartbeat IPC: 2.59 cumulative IPC: 3.187 (Simulation time: 00 hr 06 min 27 sec)
Heartbeat CPU 0 instructions: 100000000 cycles: 27847684 heartbeat IPC: 2.493 cumulative IPC: 3.065 (Simulation time: 00 hr 07 min 17 sec)
Heartbeat CPU 0 instructions: 110000000 cycles: 31824095 heartbeat IPC: 2.515 cumulative IPC: 2.984 (Simulation time: 00 hr 08 min 06 sec)
Heartbeat CPU 0 instructions: 120000002 cycles: 35251395 heartbeat IPC: 2.918 cumulative IPC: 2.976 (Simulation time: 00 hr 09 min 00 sec)
Heartbeat CPU 0 instructions: 130000005 cycles: 38891580 heartbeat IPC: 2.747 cumulative IPC: 2.952 (Simulation time: 00 hr 09 min 49 sec)
Simulation finished CPU 0 instructions: 100000000 cycles: 33880203 cumulative IPC: 2.952 (Simulation time: 00 hr 09 min 49 sec)
Simulation complete CPU 0 instructions: 100000000 cycles: 33880203 cumulative IPC: 2.952 (Simulation time: 00 hr 09 min 49 sec)

ChampSim completed all CPUs

=== Simulation ===
CPU 0 runs ../traces/secret_traces/compute_int/compute_int_322.champsimtrace.xz
Region of Interest Statistics

CPU 0 cumulative IPC: 2.952 instructions: 100000000 cycles: 33880203
CPU 0 Branch Prediction Accuracy: 94.95% MPKI: 9.273 Average ROB Occupancy at Mispredict: 23.49
Branch type MPKI
BRANCH_DIRECT_JUMP: 3e-05
BRANCH_INDIRECT: 0.502
BRANCH_CONDITIONAL: 8.77
BRANCH_DIRECT_CALL: 6e-05
BRANCH_INDIRECT_CALL: 0.00013
BRANCH_RETURN: 0.00034

LLC TOTAL        ACCESS:     181892 HIT:      48566 MISS:     133326
LLC LOAD         ACCESS:      80831 HIT:       1496 MISS:      79335
LLC RFO          ACCESS:      37547 HIT:        174 MISS:      37373
LLC PREFETCH     ACCESS:      24779 HIT:       8270 MISS:      16509
LLC WRITE        ACCESS:      38659 HIT:      38618 MISS:         41
LLC TRANSLATION  ACCESS:         76 HIT:          8 MISS:         68
LLC PREFETCH REQUESTED:          0 ISSUED:          0 USEFUL:          0 USELESS:          0
LLC AVERAGE MISS LATENCY: 166.9 cycles
cpu0_DTLB TOTAL        ACCESS:   16701163 HIT:   16681835 MISS:      19328
cpu0_DTLB LOAD         ACCESS:   16701163 HIT:   16681835 MISS:      19328
cpu0_DTLB RFO          ACCESS:          0 HIT:          0 MISS:          0
cpu0_DTLB PREFETCH     ACCESS:          0 HIT:          0 MISS:          0
cpu0_DTLB WRITE        ACCESS:          0 HIT:          0 MISS:          0
cpu0_DTLB TRANSLATION  ACCESS:          0 HIT:          0 MISS:          0
cpu0_DTLB PREFETCH REQUESTED:          0 ISSUED:          0 USEFUL:          0 USELESS:          0
cpu0_DTLB AVERAGE MISS LATENCY: 7.036 cycles
cpu0_ITLB TOTAL        ACCESS:      27006 HIT:      27004 MISS:          2
cpu0_ITLB LOAD         ACCESS:      27006 HIT:      27004 MISS:          2
cpu0_ITLB RFO          ACCESS:          0 HIT:          0 MISS:          0
cpu0_ITLB PREFETCH     ACCESS:          0 HIT:          0 MISS:          0
cpu0_ITLB WRITE        ACCESS:          0 HIT:          0 MISS:          0
cpu0_ITLB TRANSLATION  ACCESS:          0 HIT:          0 MISS:          0
cpu0_ITLB PREFETCH REQUESTED:          0 ISSUED:          0 USEFUL:          0 USELESS:          0
cpu0_ITLB AVERAGE MISS LATENCY: 172 cycles
cpu0_L1D TOTAL        ACCESS:   26844156 HIT:   23368428 MISS:    3475728
cpu0_L1D LOAD         ACCESS:   16469879 HIT:   15837460 MISS:     632419
cpu0_L1D RFO          ACCESS:          0 HIT:          0 MISS:          0
cpu0_L1D PREFETCH     ACCESS:    5724810 HIT:    3117336 MISS:    2607474
cpu0_L1D WRITE        ACCESS:    4648372 HIT:    4412948 MISS:     235424
cpu0_L1D TRANSLATION  ACCESS:       1095 HIT:        684 MISS:        411
cpu0_L1D PREFETCH REQUESTED:   14881212 ISSUED:    5724811 USEFUL:      62647 USELESS:        523
cpu0_L1D AVERAGE MISS LATENCY: 7.823 cycles
cpu0_L1I TOTAL        ACCESS:      40014 HIT:      34541 MISS:       5473
cpu0_L1I LOAD         ACCESS:      16635 HIT:      13927 MISS:       2708
cpu0_L1I RFO          ACCESS:          0 HIT:          0 MISS:          0
cpu0_L1I PREFETCH     ACCESS:      23379 HIT:      20614 MISS:       2765
cpu0_L1I WRITE        ACCESS:          0 HIT:          0 MISS:          0
cpu0_L1I TRANSLATION  ACCESS:          0 HIT:          0 MISS:          0
cpu0_L1I PREFETCH REQUESTED:      34520 ISSUED:      23379 USEFUL:       1802 USELESS:        220
cpu0_L1I AVERAGE MISS LATENCY: 36.25 cycles
cpu0_L2C TOTAL        ACCESS:    5795278 HIT:    5556520 MISS:     238758
cpu0_L2C LOAD         ACCESS:     407628 HIT:     312247 MISS:      95381
cpu0_L2C RFO          ACCESS:     105626 HIT:      68079 MISS:      37547
cpu0_L2C PREFETCH     ACCESS:    5077240 HIT:    4971487 MISS:     105753
cpu0_L2C WRITE        ACCESS:     204373 HIT:     204372 MISS:          1
cpu0_L2C TRANSLATION  ACCESS:        411 HIT:        335 MISS:         76
cpu0_L2C PREFETCH REQUESTED:    2801445 ISSUED:    2683423 USEFUL:      21314 USELESS:       1661
cpu0_L2C AVERAGE MISS LATENCY: 102.3 cycles
cpu0_STLB TOTAL        ACCESS:       5252 HIT:       4170 MISS:       1082
cpu0_STLB LOAD         ACCESS:       5252 HIT:       4170 MISS:       1082
cpu0_STLB RFO          ACCESS:          0 HIT:          0 MISS:          0
cpu0_STLB PREFETCH     ACCESS:          0 HIT:          0 MISS:          0
cpu0_STLB WRITE        ACCESS:          0 HIT:          0 MISS:          0
cpu0_STLB TRANSLATION  ACCESS:          0 HIT:          0 MISS:          0
cpu0_STLB PREFETCH REQUESTED:          0 ISSUED:          0 USEFUL:          0 USELESS:          0
cpu0_STLB AVERAGE MISS LATENCY: 176.9 cycles

DRAM Statistics

Channel 0 RQ ROW_BUFFER_HIT:      47007
  ROW_BUFFER_MISS:      19662
 AVG DBUS CONGESTED CYCLE: 3.935
WQ ROW_BUFFER_HIT: Channel 0 
  ROW_BUFFER_MISS:       4360
  FULL:      16353

Channel 1 RQ ROW_BUFFER_HIT:      47156
  ROW_BUFFER_MISS:      19459
 AVG DBUS CONGESTED CYCLE: 3.938
WQ ROW_BUFFER_HIT: Channel 1 
  ROW_BUFFER_MISS:       4429
  FULL:      16270
BERTI TO_L1: 5401988 TO_L2: 11645331 TO_L2_BC_MSHR: 1167460
BERTI AVG_LAT: 48.0129 NUM_TRACK_LATENCY: 630546 NUM_CANT_TRACK_LATENCY: 0
BERTI CROSS_PAGE 2256567 NO_CROSS_PAGE: 14790752
BERTI FOUND_BERTI: 15818001 NO_FOUND_BERTI: 6777834
BERTI AVERAGE_ISSUED: 3.8739
CPU 0 L1I Entangling prefetcher final stats
IP accesses: 1eb 7ac0 836 / 16936
IP misses: 3ac3 eb0c0 99 / 3009
IP hits: 0 0 0 / 0
IP late: f165 3c5940 9 / 1374
IP wrong: 391b e46c0 7 / 215
miss rate: 0.177669
coverage: 0
coverage_late: 0.456631
accuracy: 0
accuracy_late: 0.864695
discarded: 0
evicts entangled j table: 0
evicts entangled k table: 161
max bb size: 10
formats: 76 0 131 51 34 76 0 
hist_lookups: 43 69 99 78 77 82 70 70 57 45 35 27 18 11 5 0 6 1447 
hist_lookups_evict: 0.267977 %
hist_lookups_shortlat: 64.6271 %
bb_found_hist: 0 3452 1623 444 394 97 9 0 159 0 52 0 0 0 0 0 0 0 0 0 0 0 0 0 0 0 0 0 0 0 0 0 0 0 0 0 0 0 0 0 0 0 0 0 0 0 0 0 0 0 0 0 0 0 0 0 0 0 0 0 0 0 0 0 
bb_found_summary: 11937 6230 1.91606
entangled_found_hist: 0 2314 1076 1837 143 127 4 0 
entangled_found_summary: 11208 5501 2.03745
bb_ent_found_hist: 0 4013 2061 588 677 156 13 0 95 0 20 0 0 0 0 0 0 0 0 0 0 0 0 0 0 0 0 0 0 0 0 0 0 0 0 0 0 0 0 0 0 0 0 0 0 0 0 0 0 0 0 0 0 0 0 0 0 0 0 0 0 0 0 0 
bb_ent_found_summary: 14425 7623 1.8923
