WARNING: physical memory size is smaller than virtual memory size.

*** ChampSim Multicore Out-of-Order Simulator ***
Warmup Instructions: 30000000
Simulation Instructions: 100000000
Number of CPUs: 1
Page size: 4096

BTB:
Basic BTB sets: 1024 ways: 8
Indirect:
history lengths: 0 0 10 16 27 44 60 96 109 219 449 487 714 1313 2146 3881 
ITTAGE tables: 64768 bytes;Region table: 240 bytes;IUM: 384 bytes;Total Storage= 65392 bytes;
RAS:
RAS size: 64
Berti Prefetcher
CPU 0 Entangling prefetcher
Off-chip DRAM Size: 8 GiB Channels: 2 Width: 64-bit Data Race: 6400 MT/s
Heartbeat CPU 0 instructions: 10000008 cycles: 1700877 heartbeat IPC: 5.879 cumulative IPC: 5.879 (Simulation time: 00 hr 00 min 39 sec)
Heartbeat CPU 0 instructions: 20000009 cycles: 3401050 heartbeat IPC: 5.882 cumulative IPC: 5.881 (Simulation time: 00 hr 01 min 19 sec)
Heartbeat CPU 0 instructions: 30000003 cycles: 5101456 heartbeat IPC: 5.881 cumulative IPC: 5.881 (Simulation time: 00 hr 01 min 59 sec)
Warmup finished CPU 0 instructions: 30000003 cycles: 5101457 cumulative IPC: 5.881 (Simulation time: 00 hr 01 min 59 sec)
Warmup complete CPU 0 instructions: 30000003 cycles: 5101457 cumulative IPC: 5.881 (Simulation time: 00 hr 01 min 59 sec)
Heartbeat CPU 0 instructions: 40000009 cycles: 7232585 heartbeat IPC: 4.692 cumulative IPC: 4.692 (Simulation time: 00 hr 02 min 48 sec)
Heartbeat CPU 0 instructions: 50000000 cycles: 9387947 heartbeat IPC: 4.64 cumulative IPC: 4.666 (Simulation time: 00 hr 03 min 36 sec)
Heartbeat CPU 0 instructions: 60000005 cycles: 11482804 heartbeat IPC: 4.774 cumulative IPC: 4.701 (Simulation time: 00 hr 04 min 25 sec)
Heartbeat CPU 0 instructions: 70000001 cycles: 13598055 heartbeat IPC: 4.728 cumulative IPC: 4.708 (Simulation time: 00 hr 05 min 14 sec)
Heartbeat CPU 0 instructions: 80000004 cycles: 15678073 heartbeat IPC: 4.808 cumulative IPC: 4.727 (Simulation time: 00 hr 06 min 02 sec)
Heartbeat CPU 0 instructions: 90000005 cycles: 17788288 heartbeat IPC: 4.739 cumulative IPC: 4.729 (Simulation time: 00 hr 06 min 51 sec)
Heartbeat CPU 0 instructions: 100000011 cycles: 19947353 heartbeat IPC: 4.632 cumulative IPC: 4.715 (Simulation time: 00 hr 07 min 40 sec)
*** Reached end of trace: (0, "../traces/secret_traces/compute_int/compute_int_46.champsimtrace.xz")
Heartbeat CPU 0 instructions: 110000007 cycles: 22163150 heartbeat IPC: 4.513 cumulative IPC: 4.689 (Simulation time: 00 hr 08 min 29 sec)
Heartbeat CPU 0 instructions: 120000007 cycles: 24283540 heartbeat IPC: 4.716 cumulative IPC: 4.692 (Simulation time: 00 hr 09 min 18 sec)
Heartbeat CPU 0 instructions: 130000003 cycles: 26382369 heartbeat IPC: 4.765 cumulative IPC: 4.699 (Simulation time: 00 hr 10 min 07 sec)
Simulation finished CPU 0 instructions: 100000000 cycles: 21280913 cumulative IPC: 4.699 (Simulation time: 00 hr 10 min 07 sec)
Simulation complete CPU 0 instructions: 100000000 cycles: 21280913 cumulative IPC: 4.699 (Simulation time: 00 hr 10 min 07 sec)

ChampSim completed all CPUs

=== Simulation ===
CPU 0 runs ../traces/secret_traces/compute_int/compute_int_46.champsimtrace.xz
Region of Interest Statistics

CPU 0 cumulative IPC: 4.699 instructions: 100000000 cycles: 21280913
CPU 0 Branch Prediction Accuracy: 99.07% MPKI: 1.691 Average ROB Occupancy at Mispredict: 42.53
Branch type MPKI
BRANCH_DIRECT_JUMP: 0.148
BRANCH_INDIRECT: 0.519
BRANCH_CONDITIONAL: 0.355
BRANCH_DIRECT_CALL: 0.315
BRANCH_INDIRECT_CALL: 0.158
BRANCH_RETURN: 0.196

LLC TOTAL        ACCESS:     140740 HIT:      83163 MISS:      57577
LLC LOAD         ACCESS:       6842 HIT:       5145 MISS:       1697
LLC RFO          ACCESS:      54146 HIT:       4908 MISS:      49238
LLC PREFETCH     ACCESS:      20470 HIT:      14294 MISS:       6176
LLC WRITE        ACCESS:      58790 HIT:      58584 MISS:        206
LLC TRANSLATION  ACCESS:        492 HIT:        232 MISS:        260
LLC PREFETCH REQUESTED:          0 ISSUED:          0 USEFUL:          0 USELESS:          0
LLC AVERAGE MISS LATENCY: 121.5 cycles
cpu0_DTLB TOTAL        ACCESS:   16557793 HIT:   16383645 MISS:     174148
cpu0_DTLB LOAD         ACCESS:   16557793 HIT:   16383645 MISS:     174148
cpu0_DTLB RFO          ACCESS:          0 HIT:          0 MISS:          0
cpu0_DTLB PREFETCH     ACCESS:          0 HIT:          0 MISS:          0
cpu0_DTLB WRITE        ACCESS:          0 HIT:          0 MISS:          0
cpu0_DTLB TRANSLATION  ACCESS:          0 HIT:          0 MISS:          0
cpu0_DTLB PREFETCH REQUESTED:          0 ISSUED:          0 USEFUL:          0 USELESS:          0
cpu0_DTLB AVERAGE MISS LATENCY: 6.029 cycles
cpu0_ITLB TOTAL        ACCESS:   13059303 HIT:   13015906 MISS:      43397
cpu0_ITLB LOAD         ACCESS:   13059303 HIT:   13015906 MISS:      43397
cpu0_ITLB RFO          ACCESS:          0 HIT:          0 MISS:          0
cpu0_ITLB PREFETCH     ACCESS:          0 HIT:          0 MISS:          0
cpu0_ITLB WRITE        ACCESS:          0 HIT:          0 MISS:          0
cpu0_ITLB TRANSLATION  ACCESS:          0 HIT:          0 MISS:          0
cpu0_ITLB PREFETCH REQUESTED:          0 ISSUED:          0 USEFUL:          0 USELESS:          0
cpu0_ITLB AVERAGE MISS LATENCY: 4.579 cycles
cpu0_L1D TOTAL        ACCESS:   28565083 HIT:   27290802 MISS:    1274281
cpu0_L1D LOAD         ACCESS:   14736925 HIT:   14326811 MISS:     410114
cpu0_L1D RFO          ACCESS:          0 HIT:          0 MISS:          0
cpu0_L1D PREFETCH     ACCESS:     232758 HIT:     185129 MISS:      47629
cpu0_L1D WRITE        ACCESS:   13593565 HIT:   12778624 MISS:     814941
cpu0_L1D TRANSLATION  ACCESS:       1835 HIT:        238 MISS:       1597
cpu0_L1D PREFETCH REQUESTED:     455951 ISSUED:     232758 USEFUL:       9722 USELESS:       2729
cpu0_L1D AVERAGE MISS LATENCY: 8.186 cycles
cpu0_L1I TOTAL        ACCESS:   19135584 HIT:   17123376 MISS:    2012208
cpu0_L1I LOAD         ACCESS:    7924732 HIT:    6963060 MISS:     961672
cpu0_L1I RFO          ACCESS:          0 HIT:          0 MISS:          0
cpu0_L1I PREFETCH     ACCESS:   11210852 HIT:   10160316 MISS:    1050536
cpu0_L1I WRITE        ACCESS:          0 HIT:          0 MISS:          0
cpu0_L1I TRANSLATION  ACCESS:          0 HIT:          0 MISS:          0
cpu0_L1I PREFETCH REQUESTED:   39490257 ISSUED:   11210885 USEFUL:     568622 USELESS:     432904
cpu0_L1I AVERAGE MISS LATENCY: 8.737 cycles
cpu0_L2C TOTAL        ACCESS:    4295732 HIT:    4208881 MISS:      86851
cpu0_L2C LOAD         ACCESS:     927664 HIT:     920391 MISS:       7273
cpu0_L2C RFO          ACCESS:     183291 HIT:     128998 MISS:      54293
cpu0_L2C PREFETCH     ACCESS:    2953347 HIT:    2928554 MISS:      24793
cpu0_L2C WRITE        ACCESS:     229835 HIT:     229835 MISS:          0
cpu0_L2C TRANSLATION  ACCESS:       1595 HIT:       1103 MISS:        492
cpu0_L2C PREFETCH REQUESTED:    1970380 ISSUED:    1910636 USEFUL:       6668 USELESS:       6760
cpu0_L2C AVERAGE MISS LATENCY: 99.77 cycles
cpu0_STLB TOTAL        ACCESS:     155574 HIT:     153805 MISS:       1769
cpu0_STLB LOAD         ACCESS:     155574 HIT:     153805 MISS:       1769
cpu0_STLB RFO          ACCESS:          0 HIT:          0 MISS:          0
cpu0_STLB PREFETCH     ACCESS:          0 HIT:          0 MISS:          0
cpu0_STLB WRITE        ACCESS:          0 HIT:          0 MISS:          0
cpu0_STLB TRANSLATION  ACCESS:          0 HIT:          0 MISS:          0
cpu0_STLB PREFETCH REQUESTED:          0 ISSUED:          0 USEFUL:          0 USELESS:          0
cpu0_STLB AVERAGE MISS LATENCY: 110.8 cycles

DRAM Statistics

Channel 0 RQ ROW_BUFFER_HIT:      16621
  ROW_BUFFER_MISS:      12090
 AVG DBUS CONGESTED CYCLE: 3.758
WQ ROW_BUFFER_HIT: Channel 0 
  ROW_BUFFER_MISS:       1689
  FULL:      10893

Channel 1 RQ ROW_BUFFER_HIT:      16617
  ROW_BUFFER_MISS:      12043
 AVG DBUS CONGESTED CYCLE: 3.756
WQ ROW_BUFFER_HIT: Channel 1 
  ROW_BUFFER_MISS:       1723
  FULL:      10755
BERTI TO_L1: 270122 TO_L2: 327560 TO_L2_BC_MSHR: 66765
BERTI AVG_LAT: 12.1234 NUM_TRACK_LATENCY: 344819 NUM_CANT_TRACK_LATENCY: 0
BERTI CROSS_PAGE 62684 NO_CROSS_PAGE: 534998
BERTI FOUND_BERTI: 683334 NO_FOUND_BERTI: 18814775
BERTI AVERAGE_ISSUED: 4.66213
CPU 0 L1I Entangling prefetcher final stats
IP accesses: a04c 281300 91407 / 7928356
IP misses: e2b3 38acc0 6269 / 965296
IP hits: 0 0 0 / 0
IP late: d68a 35a280 2015 / 361205
IP wrong: a0a5 282940 2404 / 425214
miss rate: 0.121753
coverage: 0
coverage_late: 0.374191
accuracy: 0
accuracy_late: 0.459304
discarded: 0
evicts entangled j table: 0
evicts entangled k table: 128556
max bb size: 15
formats: 19729 7219 90521 21566 10537 26734 0 
hist_lookups: 33180 62121 88656 100346 95522 73253 49166 36647 25623 17058 11279 7170 3967 2185 621 0 36 80763 
hist_lookups_evict: 0.00523566 %
hist_lookups_shortlat: 11.7458 %
bb_found_hist: 0 2285713 1186099 632572 191522 108777 45897 10170 13652 5108 2520 4628 140 40 0 115 0 0 0 0 0 0 0 0 0 0 0 0 0 0 0 0 0 0 0 0 0 0 0 0 0 0 0 0 0 0 0 0 0 0 0 0 0 0 0 0 0 0 0 0 0 0 0 0 
bb_found_summary: 8447393 4486953 1.88266
entangled_found_hist: 0 883176 944896 2749391 360694 59129 34136 0 
entangled_found_summary: 12964378 5031422 2.57669
bb_ent_found_hist: 0 4282236 2301345 1532205 496754 308777 163259 77444 45885 9043 13896 27254 621 15 0 372 0 0 0 0 0 0 0 0 0 0 0 0 0 0 0 0 0 0 0 0 0 0 0 0 0 0 0 0 0 0 0 0 0 0 0 0 0 0 0 0 0 0 0 0 0 0 0 0 
bb_ent_found_summary: 19434552 9259106 2.09897
