WARNING: physical memory size is smaller than virtual memory size.

*** ChampSim Multicore Out-of-Order Simulator ***
Warmup Instructions: 30000000
Simulation Instructions: 100000000
Number of CPUs: 1
Page size: 4096

BTB:
Basic BTB sets: 1024 ways: 8
Indirect:
history lengths: 0 0 10 16 27 44 60 96 109 219 449 487 714 1313 2146 3881 
ITTAGE tables: 64768 bytes;Region table: 240 bytes;IUM: 384 bytes;Total Storage= 65392 bytes;
RAS:
RAS size: 64
Berti Prefetcher
CPU 0 Entangling prefetcher
Off-chip DRAM Size: 8 GiB Channels: 2 Width: 64-bit Data Race: 6400 MT/s
Heartbeat CPU 0 instructions: 10000004 cycles: 1669857 heartbeat IPC: 5.989 cumulative IPC: 5.989 (Simulation time: 00 hr 00 min 34 sec)
Heartbeat CPU 0 instructions: 20000004 cycles: 3404789 heartbeat IPC: 5.764 cumulative IPC: 5.874 (Simulation time: 00 hr 01 min 09 sec)
Heartbeat CPU 0 instructions: 30000000 cycles: 5074881 heartbeat IPC: 5.988 cumulative IPC: 5.911 (Simulation time: 00 hr 01 min 44 sec)
Warmup finished CPU 0 instructions: 30000000 cycles: 5074882 cumulative IPC: 5.911 (Simulation time: 00 hr 01 min 44 sec)
Warmup complete CPU 0 instructions: 30000000 cycles: 5074882 cumulative IPC: 5.911 (Simulation time: 00 hr 01 min 44 sec)
*** Reached end of trace: (0, "../traces/secret_traces/compute_int/compute_int_419.champsimtrace.xz")
Heartbeat CPU 0 instructions: 40000004 cycles: 8585084 heartbeat IPC: 2.849 cumulative IPC: 2.849 (Simulation time: 00 hr 02 min 46 sec)
Heartbeat CPU 0 instructions: 50000009 cycles: 12742704 heartbeat IPC: 2.405 cumulative IPC: 2.608 (Simulation time: 00 hr 03 min 53 sec)
Heartbeat CPU 0 instructions: 60000003 cycles: 17777937 heartbeat IPC: 1.986 cumulative IPC: 2.362 (Simulation time: 00 hr 04 min 58 sec)
*** Reached end of trace: (0, "../traces/secret_traces/compute_int/compute_int_419.champsimtrace.xz")
Heartbeat CPU 0 instructions: 70000000 cycles: 21520304 heartbeat IPC: 2.672 cumulative IPC: 2.432 (Simulation time: 00 hr 05 min 51 sec)
Heartbeat CPU 0 instructions: 80000000 cycles: 25326038 heartbeat IPC: 2.628 cumulative IPC: 2.469 (Simulation time: 00 hr 06 min 44 sec)
Heartbeat CPU 0 instructions: 90000004 cycles: 29936205 heartbeat IPC: 2.169 cumulative IPC: 2.413 (Simulation time: 00 hr 07 min 42 sec)
*** Reached end of trace: (0, "../traces/secret_traces/compute_int/compute_int_419.champsimtrace.xz")
Heartbeat CPU 0 instructions: 100000004 cycles: 34264957 heartbeat IPC: 2.31 cumulative IPC: 2.398 (Simulation time: 00 hr 08 min 38 sec)
Heartbeat CPU 0 instructions: 110000006 cycles: 37651676 heartbeat IPC: 2.953 cumulative IPC: 2.456 (Simulation time: 00 hr 09 min 29 sec)
Heartbeat CPU 0 instructions: 120000010 cycles: 42119401 heartbeat IPC: 2.238 cumulative IPC: 2.43 (Simulation time: 00 hr 10 min 28 sec)
Heartbeat CPU 0 instructions: 130000005 cycles: 46715292 heartbeat IPC: 2.176 cumulative IPC: 2.402 (Simulation time: 00 hr 11 min 28 sec)
Simulation finished CPU 0 instructions: 100000005 cycles: 41640411 cumulative IPC: 2.402 (Simulation time: 00 hr 11 min 28 sec)
Simulation complete CPU 0 instructions: 100000005 cycles: 41640411 cumulative IPC: 2.402 (Simulation time: 00 hr 11 min 28 sec)

ChampSim completed all CPUs

=== Simulation ===
CPU 0 runs ../traces/secret_traces/compute_int/compute_int_419.champsimtrace.xz
Region of Interest Statistics

CPU 0 cumulative IPC: 2.402 instructions: 100000005 cycles: 41640411
CPU 0 Branch Prediction Accuracy: 93.07% MPKI: 14.65 Average ROB Occupancy at Mispredict: 25.19
Branch type MPKI
BRANCH_DIRECT_JUMP: 0
BRANCH_INDIRECT: 8.11
BRANCH_CONDITIONAL: 6.54
BRANCH_DIRECT_CALL: 1e-05
BRANCH_INDIRECT_CALL: 0
BRANCH_RETURN: 6e-05

LLC TOTAL        ACCESS:     521360 HIT:     211471 MISS:     309889
LLC LOAD         ACCESS:      75459 HIT:       1297 MISS:      74162
LLC RFO          ACCESS:     146350 HIT:        177 MISS:     146173
LLC PREFETCH     ACCESS:      91277 HIT:       1843 MISS:      89434
LLC WRITE        ACCESS:     208202 HIT:     208145 MISS:         57
LLC TRANSLATION  ACCESS:         72 HIT:          9 MISS:         63
LLC PREFETCH REQUESTED:          0 ISSUED:          0 USEFUL:          0 USELESS:          0
LLC AVERAGE MISS LATENCY: 193.7 cycles
cpu0_DTLB TOTAL        ACCESS:   23461280 HIT:   23445338 MISS:      15942
cpu0_DTLB LOAD         ACCESS:   23461280 HIT:   23445338 MISS:      15942
cpu0_DTLB RFO          ACCESS:          0 HIT:          0 MISS:          0
cpu0_DTLB PREFETCH     ACCESS:          0 HIT:          0 MISS:          0
cpu0_DTLB WRITE        ACCESS:          0 HIT:          0 MISS:          0
cpu0_DTLB TRANSLATION  ACCESS:          0 HIT:          0 MISS:          0
cpu0_DTLB PREFETCH REQUESTED:          0 ISSUED:          0 USEFUL:          0 USELESS:          0
cpu0_DTLB AVERAGE MISS LATENCY: 3.651 cycles
cpu0_ITLB TOTAL        ACCESS:      15842 HIT:      15842 MISS:          0
cpu0_ITLB LOAD         ACCESS:      15842 HIT:      15842 MISS:          0
cpu0_ITLB RFO          ACCESS:          0 HIT:          0 MISS:          0
cpu0_ITLB PREFETCH     ACCESS:          0 HIT:          0 MISS:          0
cpu0_ITLB WRITE        ACCESS:          0 HIT:          0 MISS:          0
cpu0_ITLB TRANSLATION  ACCESS:          0 HIT:          0 MISS:          0
cpu0_ITLB PREFETCH REQUESTED:          0 ISSUED:          0 USEFUL:          0 USELESS:          0
cpu0_ITLB AVERAGE MISS LATENCY: -nan cycles
cpu0_L1D TOTAL        ACCESS:   46542751 HIT:   28013085 MISS:   18529666
cpu0_L1D LOAD         ACCESS:   11310227 HIT:   10948496 MISS:     361731
cpu0_L1D RFO          ACCESS:          0 HIT:          0 MISS:          0
cpu0_L1D PREFETCH     ACCESS:   26083272 HIT:   11819394 MISS:   14263878
cpu0_L1D WRITE        ACCESS:    9148928 HIT:    5244989 MISS:    3903939
cpu0_L1D TRANSLATION  ACCESS:        324 HIT:        206 MISS:        118
cpu0_L1D PREFETCH REQUESTED:   37638594 ISSUED:   26083281 USEFUL:      47195 USELESS:        177
cpu0_L1D AVERAGE MISS LATENCY: 2.445 cycles
cpu0_L1I TOTAL        ACCESS:      23003 HIT:      22206 MISS:        797
cpu0_L1I LOAD         ACCESS:       9953 HIT:       9506 MISS:        447
cpu0_L1I RFO          ACCESS:          0 HIT:          0 MISS:          0
cpu0_L1I PREFETCH     ACCESS:      13050 HIT:      12700 MISS:        350
cpu0_L1I WRITE        ACCESS:          0 HIT:          0 MISS:          0
cpu0_L1I TRANSLATION  ACCESS:          0 HIT:          0 MISS:          0
cpu0_L1I PREFETCH REQUESTED:      17130 ISSUED:      13050 USEFUL:        182 USELESS:          7
cpu0_L1I AVERAGE MISS LATENCY: 29.66 cycles
cpu0_L2C TOTAL        ACCESS:   20100415 HIT:   19649959 MISS:     450456
cpu0_L2C LOAD         ACCESS:     142862 HIT:      47131 MISS:      95731
cpu0_L2C RFO          ACCESS:     214626 HIT:      67096 MISS:     147530
cpu0_L2C PREFETCH     ACCESS:   19532672 HIT:   19325549 MISS:     207123
cpu0_L2C WRITE        ACCESS:     210137 HIT:     210137 MISS:          0
cpu0_L2C TRANSLATION  ACCESS:        118 HIT:         46 MISS:         72
cpu0_L2C PREFETCH REQUESTED:   12371697 ISSUED:    7303837 USEFUL:      57429 USELESS:       1145
cpu0_L2C AVERAGE MISS LATENCY: 144 cycles
cpu0_STLB TOTAL        ACCESS:       6579 HIT:       6255 MISS:        324
cpu0_STLB LOAD         ACCESS:       6579 HIT:       6255 MISS:        324
cpu0_STLB RFO          ACCESS:          0 HIT:          0 MISS:          0
cpu0_STLB PREFETCH     ACCESS:          0 HIT:          0 MISS:          0
cpu0_STLB WRITE        ACCESS:          0 HIT:          0 MISS:          0
cpu0_STLB TRANSLATION  ACCESS:          0 HIT:          0 MISS:          0
cpu0_STLB PREFETCH REQUESTED:          0 ISSUED:          0 USEFUL:          0 USELESS:          0
cpu0_STLB AVERAGE MISS LATENCY: 119 cycles

DRAM Statistics

Channel 0 RQ ROW_BUFFER_HIT:      60326
  ROW_BUFFER_MISS:      94620
 AVG DBUS CONGESTED CYCLE: 3.927
WQ ROW_BUFFER_HIT: Channel 0 
  ROW_BUFFER_MISS:      26363
  FULL:      77315

Channel 1 RQ ROW_BUFFER_HIT:      60390
  ROW_BUFFER_MISS:      94496
 AVG DBUS CONGESTED CYCLE: 3.925
WQ ROW_BUFFER_HIT: Channel 1 
  ROW_BUFFER_MISS:      26496
  FULL:      77137
BERTI TO_L1: 4233451 TO_L2: 40318218 TO_L2_BC_MSHR: 2783225
BERTI AVG_LAT: 143.752 NUM_TRACK_LATENCY: 289555 NUM_CANT_TRACK_LATENCY: 0
BERTI CROSS_PAGE 5192919 NO_CROSS_PAGE: 39358750
BERTI FOUND_BERTI: 12377730 NO_FOUND_BERTI: 4569531
BERTI AVERAGE_ISSUED: 6.3459
CPU 0 L1I Entangling prefetcher final stats
IP accesses: a1 2840 208 / 9953
IP misses: 4525 114940 42 / 447
IP hits: 0 0 0 / 0
IP late: 39f6 e7d80 13 / 223
IP wrong: 31a5 c6940 7 / 7
miss rate: 0.0449111
coverage: 0
coverage_late: 0.498882
accuracy: 0
accuracy_late: 0.969566
discarded: 0
evicts entangled j table: 0
evicts entangled k table: 7
max bb size: 8
formats: 11 0 9 2 7 3 0 
hist_lookups: 4 2 4 5 6 5 7 9 5 18 8 0 0 0 0 0 0 368 
hist_lookups_evict: 0 %
hist_lookups_shortlat: 83.4468 %
bb_found_hist: 0 2207 882 370 85 157 41 13 80 0 0 0 0 0 0 0 0 0 0 0 0 0 0 0 0 0 0 0 0 0 0 0 0 0 0 0 0 0 0 0 0 0 0 0 0 0 0 0 0 0 0 0 0 0 0 0 0 0 0 0 0 0 0 0 
bb_found_summary: 7183 3835 1.87302
entangled_found_hist: 0 1790 634 311 133 0 0 0 
entangled_found_summary: 4523 2868 1.57706
bb_ent_found_hist: 0 1416 658 350 88 101 0 0 138 0 0 0 0 0 0 0 0 0 0 0 0 0 0 0 0 0 0 0 0 0 0 0 0 0 0 0 0 0 0 0 0 0 0 0 0 0 0 0 0 0 0 0 0 0 0 0 0 0 0 0 0 0 0 0 
bb_ent_found_summary: 5743 2751 2.08761
