WARNING: physical memory size is smaller than virtual memory size.

*** ChampSim Multicore Out-of-Order Simulator ***
Warmup Instructions: 30000000
Simulation Instructions: 100000000
Number of CPUs: 1
Page size: 4096

BTB:
Basic BTB sets: 1024 ways: 8
Indirect:
history lengths: 0 0 10 16 27 44 60 96 109 219 449 487 714 1313 2146 3881 
ITTAGE tables: 64768 bytes;Region table: 240 bytes;IUM: 384 bytes;Total Storage= 65392 bytes;
RAS:
RAS size: 64
Berti Prefetcher
CPU 0 Entangling prefetcher
Off-chip DRAM Size: 8 GiB Channels: 2 Width: 64-bit Data Race: 6400 MT/s
Heartbeat CPU 0 instructions: 10000007 cycles: 1724077 heartbeat IPC: 5.8 cumulative IPC: 5.8 (Simulation time: 00 hr 00 min 38 sec)
Heartbeat CPU 0 instructions: 20000002 cycles: 3591380 heartbeat IPC: 5.355 cumulative IPC: 5.569 (Simulation time: 00 hr 01 min 20 sec)
Heartbeat CPU 0 instructions: 30000000 cycles: 5795955 heartbeat IPC: 4.536 cumulative IPC: 5.176 (Simulation time: 00 hr 02 min 02 sec)
Warmup finished CPU 0 instructions: 30000000 cycles: 5795956 cumulative IPC: 5.176 (Simulation time: 00 hr 02 min 02 sec)
Warmup complete CPU 0 instructions: 30000000 cycles: 5795956 cumulative IPC: 5.176 (Simulation time: 00 hr 02 min 02 sec)
Heartbeat CPU 0 instructions: 40000003 cycles: 9156143 heartbeat IPC: 2.976 cumulative IPC: 2.976 (Simulation time: 00 hr 02 min 57 sec)
Heartbeat CPU 0 instructions: 50000000 cycles: 15379554 heartbeat IPC: 1.607 cumulative IPC: 2.087 (Simulation time: 00 hr 04 min 19 sec)
Heartbeat CPU 0 instructions: 60000004 cycles: 21952052 heartbeat IPC: 1.521 cumulative IPC: 1.857 (Simulation time: 00 hr 05 min 54 sec)
Heartbeat CPU 0 instructions: 70000000 cycles: 25762725 heartbeat IPC: 2.624 cumulative IPC: 2.003 (Simulation time: 00 hr 06 min 57 sec)
Heartbeat CPU 0 instructions: 80000011 cycles: 29674785 heartbeat IPC: 2.556 cumulative IPC: 2.094 (Simulation time: 00 hr 08 min 00 sec)
Heartbeat CPU 0 instructions: 90000002 cycles: 33328799 heartbeat IPC: 2.737 cumulative IPC: 2.179 (Simulation time: 00 hr 09 min 03 sec)
Heartbeat CPU 0 instructions: 100000005 cycles: 36956867 heartbeat IPC: 2.756 cumulative IPC: 2.246 (Simulation time: 00 hr 10 min 07 sec)
*** Reached end of trace: (0, "../traces/secret_traces/compute_int/compute_int_235.champsimtrace.xz")
Heartbeat CPU 0 instructions: 110000000 cycles: 40431623 heartbeat IPC: 2.878 cumulative IPC: 2.31 (Simulation time: 00 hr 11 min 06 sec)
Heartbeat CPU 0 instructions: 120000000 cycles: 43792839 heartbeat IPC: 2.975 cumulative IPC: 2.369 (Simulation time: 00 hr 12 min 05 sec)
Heartbeat CPU 0 instructions: 130000004 cycles: 48407616 heartbeat IPC: 2.167 cumulative IPC: 2.347 (Simulation time: 00 hr 13 min 14 sec)
Simulation finished CPU 0 instructions: 100000004 cycles: 42611661 cumulative IPC: 2.347 (Simulation time: 00 hr 13 min 14 sec)
Simulation complete CPU 0 instructions: 100000004 cycles: 42611661 cumulative IPC: 2.347 (Simulation time: 00 hr 13 min 14 sec)

ChampSim completed all CPUs

=== Simulation ===
CPU 0 runs ../traces/secret_traces/compute_int/compute_int_235.champsimtrace.xz
Region of Interest Statistics

CPU 0 cumulative IPC: 2.347 instructions: 100000004 cycles: 42611661
CPU 0 Branch Prediction Accuracy: 98.95% MPKI: 2.452 Average ROB Occupancy at Mispredict: 79.41
Branch type MPKI
BRANCH_DIRECT_JUMP: 0.0168
BRANCH_INDIRECT: 1.38
BRANCH_CONDITIONAL: 1.01
BRANCH_DIRECT_CALL: 0.0312
BRANCH_INDIRECT_CALL: 0.00285
BRANCH_RETURN: 0.0156

LLC TOTAL        ACCESS:     947253 HIT:     357881 MISS:     589372
LLC LOAD         ACCESS:     333323 HIT:     104634 MISS:     228689
LLC RFO          ACCESS:      79780 HIT:       3473 MISS:      76307
LLC PREFETCH     ACCESS:     365023 HIT:     112656 MISS:     252367
LLC WRITE        ACCESS:     136467 HIT:     131495 MISS:       4972
LLC TRANSLATION  ACCESS:      32660 HIT:       5623 MISS:      27037
LLC PREFETCH REQUESTED:          0 ISSUED:          0 USEFUL:          0 USELESS:          0
LLC AVERAGE MISS LATENCY: 227.5 cycles
cpu0_DTLB TOTAL        ACCESS:   16499945 HIT:   16067208 MISS:     432737
cpu0_DTLB LOAD         ACCESS:   16499945 HIT:   16067208 MISS:     432737
cpu0_DTLB RFO          ACCESS:          0 HIT:          0 MISS:          0
cpu0_DTLB PREFETCH     ACCESS:          0 HIT:          0 MISS:          0
cpu0_DTLB WRITE        ACCESS:          0 HIT:          0 MISS:          0
cpu0_DTLB TRANSLATION  ACCESS:          0 HIT:          0 MISS:          0
cpu0_DTLB PREFETCH REQUESTED:          0 ISSUED:          0 USEFUL:          0 USELESS:          0
cpu0_DTLB AVERAGE MISS LATENCY: 18.33 cycles
cpu0_ITLB TOTAL        ACCESS:    9863826 HIT:    9861179 MISS:       2647
cpu0_ITLB LOAD         ACCESS:    9863826 HIT:    9861179 MISS:       2647
cpu0_ITLB RFO          ACCESS:          0 HIT:          0 MISS:          0
cpu0_ITLB PREFETCH     ACCESS:          0 HIT:          0 MISS:          0
cpu0_ITLB WRITE        ACCESS:          0 HIT:          0 MISS:          0
cpu0_ITLB TRANSLATION  ACCESS:          0 HIT:          0 MISS:          0
cpu0_ITLB PREFETCH REQUESTED:          0 ISSUED:          0 USEFUL:          0 USELESS:          0
cpu0_ITLB AVERAGE MISS LATENCY: 105.2 cycles
cpu0_L1D TOTAL        ACCESS:   25125262 HIT:   21491060 MISS:    3634202
cpu0_L1D LOAD         ACCESS:   13776342 HIT:   12104220 MISS:    1672122
cpu0_L1D RFO          ACCESS:          0 HIT:          0 MISS:          0
cpu0_L1D PREFETCH     ACCESS:    1169292 HIT:    1050585 MISS:     118707
cpu0_L1D WRITE        ACCESS:   10121301 HIT:    8324454 MISS:    1796847
cpu0_L1D TRANSLATION  ACCESS:      58327 HIT:      11801 MISS:      46526
cpu0_L1D PREFETCH REQUESTED:    3787158 ISSUED:    1169292 USEFUL:      44266 USELESS:       2460
cpu0_L1D AVERAGE MISS LATENCY: 37.17 cycles
cpu0_L1I TOTAL        ACCESS:   14836429 HIT:   14194573 MISS:     641856
cpu0_L1I LOAD         ACCESS:    4998815 HIT:    4693157 MISS:     305658
cpu0_L1I RFO          ACCESS:          0 HIT:          0 MISS:          0
cpu0_L1I PREFETCH     ACCESS:    9837614 HIT:    9501416 MISS:     336198
cpu0_L1I WRITE        ACCESS:          0 HIT:          0 MISS:          0
cpu0_L1I TRANSLATION  ACCESS:          0 HIT:          0 MISS:          0
cpu0_L1I PREFETCH REQUESTED:   31190127 ISSUED:    9837614 USEFUL:     172040 USELESS:     147081
cpu0_L1I AVERAGE MISS LATENCY: 13.53 cycles
cpu0_L2C TOTAL        ACCESS:    5655423 HIT:    4694661 MISS:     960762
cpu0_L2C LOAD         ACCESS:     875098 HIT:     521394 MISS:     353704
cpu0_L2C RFO          ACCESS:    1494458 HIT:    1414387 MISS:      80071
cpu0_L2C PREFETCH     ACCESS:    1668852 HIT:    1174626 MISS:     494226
cpu0_L2C WRITE        ACCESS:    1570766 HIT:    1570665 MISS:        101
cpu0_L2C TRANSLATION  ACCESS:      46249 HIT:      13589 MISS:      32660
cpu0_L2C PREFETCH REQUESTED:    1299880 ISSUED:    1245586 USEFUL:      98908 USELESS:     230133
cpu0_L2C AVERAGE MISS LATENCY: 154.9 cycles
cpu0_STLB TOTAL        ACCESS:     176255 HIT:     121445 MISS:      54810
cpu0_STLB LOAD         ACCESS:     176255 HIT:     121445 MISS:      54810
cpu0_STLB RFO          ACCESS:          0 HIT:          0 MISS:          0
cpu0_STLB PREFETCH     ACCESS:          0 HIT:          0 MISS:          0
cpu0_STLB WRITE        ACCESS:          0 HIT:          0 MISS:          0
cpu0_STLB TRANSLATION  ACCESS:          0 HIT:          0 MISS:          0
cpu0_STLB PREFETCH REQUESTED:          0 ISSUED:          0 USEFUL:          0 USELESS:          0
cpu0_STLB AVERAGE MISS LATENCY: 161.1 cycles

DRAM Statistics

Channel 0 RQ ROW_BUFFER_HIT:      81915
  ROW_BUFFER_MISS:     214184
 AVG DBUS CONGESTED CYCLE: 3.884
WQ ROW_BUFFER_HIT: Channel 0 
  ROW_BUFFER_MISS:      11447
  FULL:      46918

Channel 1 RQ ROW_BUFFER_HIT:      80578
  ROW_BUFFER_MISS:     207527
 AVG DBUS CONGESTED CYCLE: 3.875
WQ ROW_BUFFER_HIT: Channel 1 
  ROW_BUFFER_MISS:      11756
  FULL:      45700
BERTI TO_L1: 2460373 TO_L2: 1400556 TO_L2_BC_MSHR: 324548
BERTI AVG_LAT: 94.8069 NUM_TRACK_LATENCY: 850268 NUM_CANT_TRACK_LATENCY: 1
BERTI CROSS_PAGE 554329 NO_CROSS_PAGE: 3306600
BERTI FOUND_BERTI: 2782997 NO_FOUND_BERTI: 16143752
BERTI AVERAGE_ISSUED: 3.67846
CPU 0 L1I Entangling prefetcher final stats
IP accesses: 5ac2 16b080 39169 / 5004137
IP misses: 5c29 170a40 4031 / 310980
IP hits: 0 0 0 / 0
IP late: 5d2d 174b40 977 / 104607
IP wrong: 3429 d0a40 1640 / 144243
miss rate: 0.0621446
coverage: 0
coverage_late: 0.336379
accuracy: 0
accuracy_late: 0.420362
discarded: 0
evicts entangled j table: 0
evicts entangled k table: 37662
max bb size: 65
formats: 282 0 19610 9492 9124 10286 0 
hist_lookups: 11169 19685 23829 26589 25434 25139 21786 13844 8369 5317 3508 2314 1133 651 239 0 3 23471 
hist_lookups_evict: 0.0014119 %
hist_lookups_shortlat: 11.0463 %
bb_found_hist: 0 1344984 838514 544340 321051 133874 93217 41394 45703 11768 15016 10341 11 898 3 0 0 0 0 2 0 2 0 0 0 0 0 0 0 0 0 0 0 0 0 0 0 0 0 0 0 0 0 0 0 0 0 0 0 0 0 0 0 0 0 0 0 0 0 0 0 0 2 0 
bb_found_summary: 8205165 3401120 2.41249
entangled_found_hist: 0 573807 577501 1319291 455896 169082 31445 0 
entangled_found_summary: 8544346 3127022 2.73243
bb_ent_found_hist: 0 2569122 1681773 983053 572996 195251 124520 139350 78823 35919 6158 12869 50 3659 0 0 0 0 0 0 0 0 0 0 0 0 0 0 0 0 0 0 0 0 0 0 0 0 0 0 0 0 0 0 0 0 0 0 0 0 0 0 0 0 0 0 0 0 0 0 0 0 2 0 
bb_ent_found_summary: 15077921 6403545 2.35463
