WARNING: physical memory size is smaller than virtual memory size.

*** ChampSim Multicore Out-of-Order Simulator ***
Warmup Instructions: 30000000
Simulation Instructions: 100000000
Number of CPUs: 1
Page size: 4096

BTB:
Basic BTB sets: 1024 ways: 8
Indirect:
history lengths: 0 0 10 16 27 44 60 96 109 219 449 487 714 1313 2146 3881 
ITTAGE tables: 64768 bytes;Region table: 240 bytes;IUM: 384 bytes;Total Storage= 65392 bytes;
RAS:
RAS size: 64
Berti Prefetcher
CPU 0 Entangling prefetcher
Off-chip DRAM Size: 8 GiB Channels: 2 Width: 64-bit Data Race: 6400 MT/s
Heartbeat CPU 0 instructions: 10000001 cycles: 2379363 heartbeat IPC: 4.203 cumulative IPC: 4.203 (Simulation time: 00 hr 00 min 42 sec)
Heartbeat CPU 0 instructions: 20000003 cycles: 4709186 heartbeat IPC: 4.292 cumulative IPC: 4.247 (Simulation time: 00 hr 01 min 23 sec)
Heartbeat CPU 0 instructions: 30000001 cycles: 7088278 heartbeat IPC: 4.203 cumulative IPC: 4.232 (Simulation time: 00 hr 02 min 06 sec)
Warmup finished CPU 0 instructions: 30000001 cycles: 7088279 cumulative IPC: 4.232 (Simulation time: 00 hr 02 min 06 sec)
Warmup complete CPU 0 instructions: 30000001 cycles: 7088279 cumulative IPC: 4.232 (Simulation time: 00 hr 02 min 06 sec)
Heartbeat CPU 0 instructions: 40000004 cycles: 9705421 heartbeat IPC: 3.821 cumulative IPC: 3.821 (Simulation time: 00 hr 02 min 56 sec)
Heartbeat CPU 0 instructions: 50000011 cycles: 12269229 heartbeat IPC: 3.9 cumulative IPC: 3.86 (Simulation time: 00 hr 03 min 45 sec)
Heartbeat CPU 0 instructions: 60000003 cycles: 14849764 heartbeat IPC: 3.875 cumulative IPC: 3.865 (Simulation time: 00 hr 04 min 36 sec)
Heartbeat CPU 0 instructions: 70000001 cycles: 17360218 heartbeat IPC: 3.983 cumulative IPC: 3.894 (Simulation time: 00 hr 05 min 25 sec)
Heartbeat CPU 0 instructions: 80000005 cycles: 19928703 heartbeat IPC: 3.893 cumulative IPC: 3.894 (Simulation time: 00 hr 06 min 15 sec)
Heartbeat CPU 0 instructions: 90000000 cycles: 22502805 heartbeat IPC: 3.885 cumulative IPC: 3.892 (Simulation time: 00 hr 07 min 05 sec)
Heartbeat CPU 0 instructions: 100000002 cycles: 25074953 heartbeat IPC: 3.888 cumulative IPC: 3.892 (Simulation time: 00 hr 07 min 55 sec)
*** Reached end of trace: (0, "../traces/secret_traces/compute_int/compute_int_528.champsimtrace.xz")
Heartbeat CPU 0 instructions: 110000009 cycles: 27733198 heartbeat IPC: 3.762 cumulative IPC: 3.875 (Simulation time: 00 hr 08 min 46 sec)
Heartbeat CPU 0 instructions: 120000000 cycles: 30833596 heartbeat IPC: 3.225 cumulative IPC: 3.79 (Simulation time: 00 hr 09 min 39 sec)
Heartbeat CPU 0 instructions: 130000009 cycles: 33497745 heartbeat IPC: 3.754 cumulative IPC: 3.787 (Simulation time: 00 hr 10 min 32 sec)
Simulation finished CPU 0 instructions: 100000008 cycles: 26409467 cumulative IPC: 3.787 (Simulation time: 00 hr 10 min 32 sec)
Simulation complete CPU 0 instructions: 100000008 cycles: 26409467 cumulative IPC: 3.787 (Simulation time: 00 hr 10 min 32 sec)

ChampSim completed all CPUs

=== Simulation ===
CPU 0 runs ../traces/secret_traces/compute_int/compute_int_528.champsimtrace.xz
Region of Interest Statistics

CPU 0 cumulative IPC: 3.787 instructions: 100000008 cycles: 26409467
CPU 0 Branch Prediction Accuracy: 99.88% MPKI: 0.318 Average ROB Occupancy at Mispredict: 78.57
Branch type MPKI
BRANCH_DIRECT_JUMP: 0.00429
BRANCH_INDIRECT: 0.194
BRANCH_CONDITIONAL: 0.1
BRANCH_DIRECT_CALL: 0.0117
BRANCH_INDIRECT_CALL: 0.00161
BRANCH_RETURN: 0.00653

LLC TOTAL        ACCESS:      84541 HIT:      19472 MISS:      65069
LLC LOAD         ACCESS:      28421 HIT:       1580 MISS:      26841
LLC RFO          ACCESS:       6266 HIT:        492 MISS:       5774
LLC PREFETCH     ACCESS:      34780 HIT:       3657 MISS:      31123
LLC WRITE        ACCESS:      13462 HIT:      13336 MISS:        126
LLC TRANSLATION  ACCESS:       1612 HIT:        407 MISS:       1205
LLC PREFETCH REQUESTED:          0 ISSUED:          0 USEFUL:          0 USELESS:          0
LLC AVERAGE MISS LATENCY: 164.6 cycles
cpu0_DTLB TOTAL        ACCESS:   20082388 HIT:   19114702 MISS:     967686
cpu0_DTLB LOAD         ACCESS:   20082388 HIT:   19114702 MISS:     967686
cpu0_DTLB RFO          ACCESS:          0 HIT:          0 MISS:          0
cpu0_DTLB PREFETCH     ACCESS:          0 HIT:          0 MISS:          0
cpu0_DTLB WRITE        ACCESS:          0 HIT:          0 MISS:          0
cpu0_DTLB TRANSLATION  ACCESS:          0 HIT:          0 MISS:          0
cpu0_DTLB PREFETCH REQUESTED:          0 ISSUED:          0 USEFUL:          0 USELESS:          0
cpu0_DTLB AVERAGE MISS LATENCY: 2.57 cycles
cpu0_ITLB TOTAL        ACCESS:     129868 HIT:     128815 MISS:       1053
cpu0_ITLB LOAD         ACCESS:     129868 HIT:     128815 MISS:       1053
cpu0_ITLB RFO          ACCESS:          0 HIT:          0 MISS:          0
cpu0_ITLB PREFETCH     ACCESS:          0 HIT:          0 MISS:          0
cpu0_ITLB WRITE        ACCESS:          0 HIT:          0 MISS:          0
cpu0_ITLB TRANSLATION  ACCESS:          0 HIT:          0 MISS:          0
cpu0_ITLB PREFETCH REQUESTED:          0 ISSUED:          0 USEFUL:          0 USELESS:          0
cpu0_ITLB AVERAGE MISS LATENCY: 71.16 cycles
cpu0_L1D TOTAL        ACCESS:   25231447 HIT:   20956632 MISS:    4274815
cpu0_L1D LOAD         ACCESS:   13691465 HIT:    9659852 MISS:    4031613
cpu0_L1D RFO          ACCESS:          0 HIT:          0 MISS:          0
cpu0_L1D PREFETCH     ACCESS:     211774 HIT:      20119 MISS:     191655
cpu0_L1D WRITE        ACCESS:   11323905 HIT:   11276461 MISS:      47444
cpu0_L1D TRANSLATION  ACCESS:       4303 HIT:        200 MISS:       4103
cpu0_L1D PREFETCH REQUESTED:     265291 ISSUED:     211774 USEFUL:       1226 USELESS:        669
cpu0_L1D AVERAGE MISS LATENCY: 4.676 cycles
cpu0_L1I TOTAL        ACCESS:     190066 HIT:     163406 MISS:      26660
cpu0_L1I LOAD         ACCESS:      64246 HIT:      56179 MISS:       8067
cpu0_L1I RFO          ACCESS:          0 HIT:          0 MISS:          0
cpu0_L1I PREFETCH     ACCESS:     125820 HIT:     107227 MISS:      18593
cpu0_L1I WRITE        ACCESS:          0 HIT:          0 MISS:          0
cpu0_L1I TRANSLATION  ACCESS:          0 HIT:          0 MISS:          0
cpu0_L1I PREFETCH REQUESTED:     191325 ISSUED:     125820 USEFUL:      10619 USELESS:       6641
cpu0_L1I AVERAGE MISS LATENCY: 40.72 cycles
cpu0_L2C TOTAL        ACCESS:    5181421 HIT:    5084732 MISS:      96689
cpu0_L2C LOAD         ACCESS:    2339269 HIT:    2306020 MISS:      33249
cpu0_L2C RFO          ACCESS:      17665 HIT:      11379 MISS:       6286
cpu0_L2C PREFETCH     ACCESS:    2737982 HIT:    2682442 MISS:      55540
cpu0_L2C WRITE        ACCESS:      82435 HIT:      82433 MISS:          2
cpu0_L2C TRANSLATION  ACCESS:       4070 HIT:       2458 MISS:       1612
cpu0_L2C PREFETCH REQUESTED:    2545766 ISSUED:    2535094 USEFUL:      10400 USELESS:      15518
cpu0_L2C AVERAGE MISS LATENCY: 124.4 cycles
cpu0_STLB TOTAL        ACCESS:     551682 HIT:     547531 MISS:       4151
cpu0_STLB LOAD         ACCESS:     551682 HIT:     547531 MISS:       4151
cpu0_STLB RFO          ACCESS:          0 HIT:          0 MISS:          0
cpu0_STLB PREFETCH     ACCESS:          0 HIT:          0 MISS:          0
cpu0_STLB WRITE        ACCESS:          0 HIT:          0 MISS:          0
cpu0_STLB TRANSLATION  ACCESS:          0 HIT:          0 MISS:          0
cpu0_STLB PREFETCH REQUESTED:          0 ISSUED:          0 USEFUL:          0 USELESS:          0
cpu0_STLB AVERAGE MISS LATENCY: 118.6 cycles

DRAM Statistics

Channel 0 RQ ROW_BUFFER_HIT:      10276
  ROW_BUFFER_MISS:      22434
 AVG DBUS CONGESTED CYCLE: 3.779
WQ ROW_BUFFER_HIT: Channel 0 
  ROW_BUFFER_MISS:       1490
  FULL:       4165

Channel 1 RQ ROW_BUFFER_HIT:      10216
  ROW_BUFFER_MISS:      22015
 AVG DBUS CONGESTED CYCLE: 3.756
WQ ROW_BUFFER_HIT: Channel 1 
  ROW_BUFFER_MISS:       1487
  FULL:       3958
BERTI TO_L1: 37274 TO_L2: 380103 TO_L2_BC_MSHR: 24507
BERTI AVG_LAT: 11.1034 NUM_TRACK_LATENCY: 3032260 NUM_CANT_TRACK_LATENCY: 0
BERTI CROSS_PAGE 210053 NO_CROSS_PAGE: 207324
BERTI FOUND_BERTI: 11659789 NO_FOUND_BERTI: 7523729
BERTI AVERAGE_ISSUED: 1.39493
CPU 0 L1I Entangling prefetcher final stats
IP accesses: 57aa 15ea80 551 / 64723
IP misses: 65a3 1968c0 100 / 8544
IP hits: 0 0 0 / 0
IP late: 3a33 e8cc0 14 / 4117
IP wrong: eed9 3bb640 25 / 6606
miss rate: 0.132009
coverage: 0
coverage_late: 0.481859
accuracy: 0
accuracy_late: 0.383942
discarded: 0
evicts entangled j table: 0
evicts entangled k table: 1164
max bb size: 65
formats: 275 0 1103 501 202 451 0 
hist_lookups: 802 889 723 710 705 579 417 266 192 164 148 104 66 29 26 0 0 1666 
hist_lookups_evict: 0 %
hist_lookups_shortlat: 22.2549 %
bb_found_hist: 0 15136 7269 2785 1343 1005 191 66 37 52 10 22 8 23 3 0 0 0 0 2 0 2 0 0 0 0 0 0 0 0 0 0 0 0 0 0 0 0 0 0 0 0 0 0 0 0 0 0 0 0 0 0 0 0 0 0 0 0 0 0 0 0 2 0 
bb_found_summary: 51781 27956 1.85224
entangled_found_hist: 0 6600 4772 12470 1604 292 32 0 
entangled_found_summary: 61622 25770 2.39124
bb_ent_found_hist: 0 21758 12567 5427 2164 2309 479 191 51 83 46 0 39 0 0 0 0 0 0 0 0 0 0 0 1 0 0 0 0 0 0 0 0 0 0 0 0 0 0 0 0 0 0 0 0 0 0 0 0 0 0 0 0 0 0 0 0 0 0 0 0 0 4 0 
bb_ent_found_summary: 89940 45119 1.9934
