WARNING: physical memory size is smaller than virtual memory size.

*** ChampSim Multicore Out-of-Order Simulator ***
Warmup Instructions: 30000000
Simulation Instructions: 100000000
Number of CPUs: 1
Page size: 4096

BTB:
Basic BTB sets: 1024 ways: 8
Indirect:
history lengths: 0 0 10 16 27 44 60 96 109 219 449 487 714 1313 2146 3881 
ITTAGE tables: 64768 bytes;Region table: 240 bytes;IUM: 384 bytes;Total Storage= 65392 bytes;
RAS:
RAS size: 64
Berti Prefetcher
CPU 0 Entangling prefetcher
Off-chip DRAM Size: 8 GiB Channels: 2 Width: 64-bit Data Race: 6400 MT/s
Heartbeat CPU 0 instructions: 10000010 cycles: 1720229 heartbeat IPC: 5.813 cumulative IPC: 5.813 (Simulation time: 00 hr 00 min 35 sec)
Heartbeat CPU 0 instructions: 20000004 cycles: 3390549 heartbeat IPC: 5.987 cumulative IPC: 5.899 (Simulation time: 00 hr 01 min 15 sec)
Heartbeat CPU 0 instructions: 30000001 cycles: 5059079 heartbeat IPC: 5.993 cumulative IPC: 5.93 (Simulation time: 00 hr 01 min 54 sec)
Warmup finished CPU 0 instructions: 30000001 cycles: 5059080 cumulative IPC: 5.93 (Simulation time: 00 hr 01 min 54 sec)
Warmup complete CPU 0 instructions: 30000001 cycles: 5059080 cumulative IPC: 5.93 (Simulation time: 00 hr 01 min 54 sec)
*** Reached end of trace: (0, "../traces/secret_traces/compute_int/compute_int_792.champsimtrace.xz")
Heartbeat CPU 0 instructions: 40000000 cycles: 10034381 heartbeat IPC: 2.01 cumulative IPC: 2.01 (Simulation time: 00 hr 02 min 58 sec)
Heartbeat CPU 0 instructions: 50000004 cycles: 15266961 heartbeat IPC: 1.911 cumulative IPC: 1.959 (Simulation time: 00 hr 04 min 00 sec)
Heartbeat CPU 0 instructions: 60000000 cycles: 19070862 heartbeat IPC: 2.629 cumulative IPC: 2.141 (Simulation time: 00 hr 04 min 57 sec)
Heartbeat CPU 0 instructions: 70000003 cycles: 24123604 heartbeat IPC: 1.979 cumulative IPC: 2.098 (Simulation time: 00 hr 05 min 56 sec)
*** Reached end of trace: (0, "../traces/secret_traces/compute_int/compute_int_792.champsimtrace.xz")
Heartbeat CPU 0 instructions: 80000000 cycles: 28948653 heartbeat IPC: 2.073 cumulative IPC: 2.093 (Simulation time: 00 hr 06 min 56 sec)
Heartbeat CPU 0 instructions: 90000005 cycles: 34221771 heartbeat IPC: 1.896 cumulative IPC: 2.057 (Simulation time: 00 hr 08 min 02 sec)
Heartbeat CPU 0 instructions: 100000000 cycles: 37898970 heartbeat IPC: 2.719 cumulative IPC: 2.132 (Simulation time: 00 hr 08 min 56 sec)
Heartbeat CPU 0 instructions: 110000001 cycles: 42810024 heartbeat IPC: 2.036 cumulative IPC: 2.119 (Simulation time: 00 hr 09 min 54 sec)
*** Reached end of trace: (0, "../traces/secret_traces/compute_int/compute_int_792.champsimtrace.xz")
Heartbeat CPU 0 instructions: 120000005 cycles: 48269390 heartbeat IPC: 1.832 cumulative IPC: 2.083 (Simulation time: 00 hr 11 min 03 sec)
Heartbeat CPU 0 instructions: 130000005 cycles: 52474133 heartbeat IPC: 2.378 cumulative IPC: 2.109 (Simulation time: 00 hr 12 min 05 sec)
Simulation finished CPU 0 instructions: 100000004 cycles: 47415054 cumulative IPC: 2.109 (Simulation time: 00 hr 12 min 05 sec)
Simulation complete CPU 0 instructions: 100000004 cycles: 47415054 cumulative IPC: 2.109 (Simulation time: 00 hr 12 min 05 sec)

ChampSim completed all CPUs

=== Simulation ===
CPU 0 runs ../traces/secret_traces/compute_int/compute_int_792.champsimtrace.xz
Region of Interest Statistics

CPU 0 cumulative IPC: 2.109 instructions: 100000004 cycles: 47415054
CPU 0 Branch Prediction Accuracy: 92.09% MPKI: 12.26 Average ROB Occupancy at Mispredict: 17.55
Branch type MPKI
BRANCH_DIRECT_JUMP: 0.0179
BRANCH_INDIRECT: 0.119
BRANCH_CONDITIONAL: 12
BRANCH_DIRECT_CALL: 0.0488
BRANCH_INDIRECT_CALL: 0.00391
BRANCH_RETURN: 0.0276

LLC TOTAL        ACCESS:     663184 HIT:     230749 MISS:     432435
LLC LOAD         ACCESS:     191064 HIT:       4797 MISS:     186267
LLC RFO          ACCESS:      93049 HIT:      19232 MISS:      73817
LLC PREFETCH     ACCESS:     199663 HIT:      30729 MISS:     168934
LLC WRITE        ACCESS:     176879 HIT:     175726 MISS:       1153
LLC TRANSLATION  ACCESS:       2529 HIT:        265 MISS:       2264
LLC PREFETCH REQUESTED:          0 ISSUED:          0 USEFUL:          0 USELESS:          0
LLC AVERAGE MISS LATENCY: 213.2 cycles
cpu0_DTLB TOTAL        ACCESS:   21120049 HIT:   21050365 MISS:      69684
cpu0_DTLB LOAD         ACCESS:   21120049 HIT:   21050365 MISS:      69684
cpu0_DTLB RFO          ACCESS:          0 HIT:          0 MISS:          0
cpu0_DTLB PREFETCH     ACCESS:          0 HIT:          0 MISS:          0
cpu0_DTLB WRITE        ACCESS:          0 HIT:          0 MISS:          0
cpu0_DTLB TRANSLATION  ACCESS:          0 HIT:          0 MISS:          0
cpu0_DTLB PREFETCH REQUESTED:          0 ISSUED:          0 USEFUL:          0 USELESS:          0
cpu0_DTLB AVERAGE MISS LATENCY: 10.62 cycles
cpu0_ITLB TOTAL        ACCESS:     274784 HIT:     270645 MISS:       4139
cpu0_ITLB LOAD         ACCESS:     274784 HIT:     270645 MISS:       4139
cpu0_ITLB RFO          ACCESS:          0 HIT:          0 MISS:          0
cpu0_ITLB PREFETCH     ACCESS:          0 HIT:          0 MISS:          0
cpu0_ITLB WRITE        ACCESS:          0 HIT:          0 MISS:          0
cpu0_ITLB TRANSLATION  ACCESS:          0 HIT:          0 MISS:          0
cpu0_ITLB PREFETCH REQUESTED:          0 ISSUED:          0 USEFUL:          0 USELESS:          0
cpu0_ITLB AVERAGE MISS LATENCY: 66.87 cycles
cpu0_L1D TOTAL        ACCESS:   36897539 HIT:   31263282 MISS:    5634257
cpu0_L1D LOAD         ACCESS:   13302499 HIT:   12487657 MISS:     814842
cpu0_L1D RFO          ACCESS:          0 HIT:          0 MISS:          0
cpu0_L1D PREFETCH     ACCESS:   15611279 HIT:   11275753 MISS:    4335526
cpu0_L1D WRITE        ACCESS:    7975353 HIT:    7495110 MISS:     480243
cpu0_L1D TRANSLATION  ACCESS:       8408 HIT:       4762 MISS:       3646
cpu0_L1D PREFETCH REQUESTED:   34339490 ISSUED:   15611298 USEFUL:     175116 USELESS:       2505
cpu0_L1D AVERAGE MISS LATENCY: 15.25 cycles
cpu0_L1I TOTAL        ACCESS:     399290 HIT:     325177 MISS:      74113
cpu0_L1I LOAD         ACCESS:     137766 HIT:     118064 MISS:      19702
cpu0_L1I RFO          ACCESS:          0 HIT:          0 MISS:          0
cpu0_L1I PREFETCH     ACCESS:     261524 HIT:     207113 MISS:      54411
cpu0_L1I WRITE        ACCESS:          0 HIT:          0 MISS:          0
cpu0_L1I TRANSLATION  ACCESS:          0 HIT:          0 MISS:          0
cpu0_L1I PREFETCH REQUESTED:     413082 ISSUED:     261524 USEFUL:      31550 USELESS:      19565
cpu0_L1I AVERAGE MISS LATENCY: 72.81 cycles
cpu0_L2C TOTAL        ACCESS:    9455692 HIT:    8615049 MISS:     840643
cpu0_L2C LOAD         ACCESS:     559343 HIT:     320597 MISS:     238746
cpu0_L2C RFO          ACCESS:     169476 HIT:      76270 MISS:      93206
cpu0_L2C PREFETCH     ACCESS:    8516779 HIT:    8010968 MISS:     505811
cpu0_L2C WRITE        ACCESS:     206482 HIT:     206131 MISS:        351
cpu0_L2C TRANSLATION  ACCESS:       3612 HIT:       1083 MISS:       2529
cpu0_L2C PREFETCH REQUESTED:    4646997 ISSUED:    4429188 USEFUL:     148790 USELESS:      15333
cpu0_L2C AVERAGE MISS LATENCY: 118.2 cycles
cpu0_STLB TOTAL        ACCESS:      19234 HIT:      11243 MISS:       7991
cpu0_STLB LOAD         ACCESS:      19234 HIT:      11243 MISS:       7991
cpu0_STLB RFO          ACCESS:          0 HIT:          0 MISS:          0
cpu0_STLB PREFETCH     ACCESS:          0 HIT:          0 MISS:          0
cpu0_STLB WRITE        ACCESS:          0 HIT:          0 MISS:          0
cpu0_STLB TRANSLATION  ACCESS:          0 HIT:          0 MISS:          0
cpu0_STLB PREFETCH REQUESTED:          0 ISSUED:          0 USEFUL:          0 USELESS:          0
cpu0_STLB AVERAGE MISS LATENCY: 153.8 cycles

DRAM Statistics

Channel 0 RQ ROW_BUFFER_HIT:     128092
  ROW_BUFFER_MISS:      88019
 AVG DBUS CONGESTED CYCLE: 3.943
WQ ROW_BUFFER_HIT: Channel 0 
  ROW_BUFFER_MISS:      12474
  FULL:      70188

Channel 1 RQ ROW_BUFFER_HIT:     127856
  ROW_BUFFER_MISS:      87313
 AVG DBUS CONGESTED CYCLE: 3.939
WQ ROW_BUFFER_HIT: Channel 1 
  ROW_BUFFER_MISS:      12590
  FULL:      69531
BERTI TO_L1: 13013834 TO_L2: 26853735 TO_L2_BC_MSHR: 4583941
BERTI AVG_LAT: 87.1958 NUM_TRACK_LATENCY: 938468 NUM_CANT_TRACK_LATENCY: 0
BERTI CROSS_PAGE 5419727 NO_CROSS_PAGE: 34447842
BERTI FOUND_BERTI: 19615623 NO_FOUND_BERTI: 1517378
BERTI AVERAGE_ISSUED: 6.14637
CPU 0 L1I Entangling prefetcher final stats
IP accesses: 1eb 7ac0 1426 / 146218
IP misses: f176 3c5d80 359 / 28154
IP hits: 0 0 0 / 0
IP late: 587a 161e80 36 / 10063
IP wrong: 64fe 193f80 62 / 19468
miss rate: 0.192549
coverage: 0
coverage_late: 0.357428
accuracy: 0
accuracy_late: 0.340761
discarded: 0
evicts entangled j table: 0
evicts entangled k table: 3007
max bb size: 67
formats: 895 0 2472 1319 586 979 0 
hist_lookups: 1862 2116 1895 1745 1554 1305 1062 807 613 457 304 229 148 112 70 0 9 4649 
hist_lookups_evict: 0.0475261 %
hist_lookups_shortlat: 24.5499 %
bb_found_hist: 0 32286 16892 6399 2501 1326 751 405 211 265 27 218 3 6 9 4 0 0 0 0 4 0 18 0 2 1 0 0 0 0 0 0 0 0 0 0 0 0 0 0 0 9 0 0 0 0 0 0 0 0 0 0 0 0 0 0 0 0 0 0 0 0 0 0 
bb_found_summary: 117201 61337 1.91078
entangled_found_hist: 0 20031 12301 24138 4085 472 49 0 
entangled_found_summary: 136041 61076 2.22741
bb_ent_found_hist: 0 46493 24211 12286 5474 3533 1348 945 431 98 60 8 11 13 0 0 0 0 0 0 0 0 0 0 4 0 0 0 0 0 0 0 0 0 0 0 0 0 0 0 0 6 0 0 0 0 0 0 0 0 0 0 0 0 0 0 0 0 0 0 0 0 0 0 
bb_ent_found_summary: 191698 94921 2.01956
