WARNING: physical memory size is smaller than virtual memory size.

*** ChampSim Multicore Out-of-Order Simulator ***
Warmup Instructions: 30000000
Simulation Instructions: 100000000
Number of CPUs: 1
Page size: 4096

BTB:
Basic BTB sets: 1024 ways: 8
Indirect:
history lengths: 0 0 10 16 27 44 60 96 109 219 449 487 714 1313 2146 3881 
ITTAGE tables: 64768 bytes;Region table: 240 bytes;IUM: 384 bytes;Total Storage= 65392 bytes;
RAS:
RAS size: 64
Berti Prefetcher
CPU 0 Entangling prefetcher
Off-chip DRAM Size: 8 GiB Channels: 2 Width: 64-bit Data Race: 6400 MT/s
Heartbeat CPU 0 instructions: 10000004 cycles: 1666703 heartbeat IPC: 6 cumulative IPC: 6 (Simulation time: 00 hr 00 min 40 sec)
Heartbeat CPU 0 instructions: 20000006 cycles: 3333397 heartbeat IPC: 6 cumulative IPC: 6 (Simulation time: 00 hr 01 min 19 sec)
Heartbeat CPU 0 instructions: 30000009 cycles: 5000065 heartbeat IPC: 6 cumulative IPC: 6 (Simulation time: 00 hr 01 min 59 sec)
Warmup finished CPU 0 instructions: 30000009 cycles: 5000066 cumulative IPC: 6 (Simulation time: 00 hr 01 min 59 sec)
Warmup complete CPU 0 instructions: 30000009 cycles: 5000066 cumulative IPC: 6 (Simulation time: 00 hr 01 min 59 sec)
Heartbeat CPU 0 instructions: 40000003 cycles: 6762437 heartbeat IPC: 5.674 cumulative IPC: 5.674 (Simulation time: 00 hr 02 min 44 sec)
Heartbeat CPU 0 instructions: 50000008 cycles: 8514251 heartbeat IPC: 5.708 cumulative IPC: 5.691 (Simulation time: 00 hr 03 min 28 sec)
Heartbeat CPU 0 instructions: 60000000 cycles: 10267209 heartbeat IPC: 5.705 cumulative IPC: 5.696 (Simulation time: 00 hr 04 min 06 sec)
Heartbeat CPU 0 instructions: 70000007 cycles: 12017292 heartbeat IPC: 5.714 cumulative IPC: 5.7 (Simulation time: 00 hr 04 min 44 sec)
Heartbeat CPU 0 instructions: 80000008 cycles: 13772634 heartbeat IPC: 5.697 cumulative IPC: 5.7 (Simulation time: 00 hr 05 min 24 sec)
Heartbeat CPU 0 instructions: 90000005 cycles: 15530473 heartbeat IPC: 5.689 cumulative IPC: 5.698 (Simulation time: 00 hr 06 min 07 sec)
Heartbeat CPU 0 instructions: 100000008 cycles: 17259706 heartbeat IPC: 5.783 cumulative IPC: 5.71 (Simulation time: 00 hr 06 min 49 sec)
*** Reached end of trace: (0, "../traces/secret_traces/compute_int/compute_int_847.champsimtrace.xz")
Heartbeat CPU 0 instructions: 110000001 cycles: 18959357 heartbeat IPC: 5.884 cumulative IPC: 5.731 (Simulation time: 00 hr 07 min 30 sec)
Heartbeat CPU 0 instructions: 120000000 cycles: 20671283 heartbeat IPC: 5.841 cumulative IPC: 5.743 (Simulation time: 00 hr 08 min 09 sec)
Heartbeat CPU 0 instructions: 130000002 cycles: 22385013 heartbeat IPC: 5.835 cumulative IPC: 5.752 (Simulation time: 00 hr 08 min 46 sec)
Simulation finished CPU 0 instructions: 100000006 cycles: 17384950 cumulative IPC: 5.752 (Simulation time: 00 hr 08 min 46 sec)
Simulation complete CPU 0 instructions: 100000006 cycles: 17384950 cumulative IPC: 5.752 (Simulation time: 00 hr 08 min 46 sec)

ChampSim completed all CPUs

=== Simulation ===
CPU 0 runs ../traces/secret_traces/compute_int/compute_int_847.champsimtrace.xz
Region of Interest Statistics

CPU 0 cumulative IPC: 5.752 instructions: 100000006 cycles: 17384950
CPU 0 Branch Prediction Accuracy: 99.58% MPKI: 0.2171 Average ROB Occupancy at Mispredict: 62.77
Branch type MPKI
BRANCH_DIRECT_JUMP: 0.0001
BRANCH_INDIRECT: 0.0254
BRANCH_CONDITIONAL: 0.191
BRANCH_DIRECT_CALL: 5e-05
BRANCH_INDIRECT_CALL: 0.00019
BRANCH_RETURN: 6e-05

LLC TOTAL        ACCESS:      48961 HIT:      25688 MISS:      23273
LLC LOAD         ACCESS:      26849 HIT:      12394 MISS:      14455
LLC RFO          ACCESS:       1142 HIT:        353 MISS:        789
LLC PREFETCH     ACCESS:      19795 HIT:      11863 MISS:       7932
LLC WRITE        ACCESS:       1058 HIT:       1058 MISS:          0
LLC TRANSLATION  ACCESS:        117 HIT:         20 MISS:         97
LLC PREFETCH REQUESTED:          0 ISSUED:          0 USEFUL:          0 USELESS:          0
LLC AVERAGE MISS LATENCY: 100.4 cycles
cpu0_DTLB TOTAL        ACCESS:   14073564 HIT:   14055545 MISS:      18019
cpu0_DTLB LOAD         ACCESS:   14073564 HIT:   14055545 MISS:      18019
cpu0_DTLB RFO          ACCESS:          0 HIT:          0 MISS:          0
cpu0_DTLB PREFETCH     ACCESS:          0 HIT:          0 MISS:          0
cpu0_DTLB WRITE        ACCESS:          0 HIT:          0 MISS:          0
cpu0_DTLB TRANSLATION  ACCESS:          0 HIT:          0 MISS:          0
cpu0_DTLB PREFETCH REQUESTED:          0 ISSUED:          0 USEFUL:          0 USELESS:          0
cpu0_DTLB AVERAGE MISS LATENCY: 6.195 cycles
cpu0_ITLB TOTAL        ACCESS:    4154353 HIT:    4154346 MISS:          7
cpu0_ITLB LOAD         ACCESS:    4154353 HIT:    4154346 MISS:          7
cpu0_ITLB RFO          ACCESS:          0 HIT:          0 MISS:          0
cpu0_ITLB PREFETCH     ACCESS:          0 HIT:          0 MISS:          0
cpu0_ITLB WRITE        ACCESS:          0 HIT:          0 MISS:          0
cpu0_ITLB TRANSLATION  ACCESS:          0 HIT:          0 MISS:          0
cpu0_ITLB PREFETCH REQUESTED:          0 ISSUED:          0 USEFUL:          0 USELESS:          0
cpu0_ITLB AVERAGE MISS LATENCY: 150.1 cycles
cpu0_L1D TOTAL        ACCESS:   26348832 HIT:   25558041 MISS:     790791
cpu0_L1D LOAD         ACCESS:   16295258 HIT:   16089120 MISS:     206138
cpu0_L1D RFO          ACCESS:          0 HIT:          0 MISS:          0
cpu0_L1D PREFETCH     ACCESS:    4115168 HIT:    3533255 MISS:     581913
cpu0_L1D WRITE        ACCESS:    5938002 HIT:    5935648 MISS:       2354
cpu0_L1D TRANSLATION  ACCESS:        404 HIT:         18 MISS:        386
cpu0_L1D PREFETCH REQUESTED:    9465376 ISSUED:    4115168 USEFUL:       7495 USELESS:       2974
cpu0_L1D AVERAGE MISS LATENCY: 3.191 cycles
cpu0_L1I TOTAL        ACCESS:    6302556 HIT:    6300741 MISS:       1815
cpu0_L1I LOAD         ACCESS:    2937126 HIT:    2935968 MISS:       1158
cpu0_L1I RFO          ACCESS:          0 HIT:          0 MISS:          0
cpu0_L1I PREFETCH     ACCESS:    3365430 HIT:    3364773 MISS:        657
cpu0_L1I WRITE        ACCESS:          0 HIT:          0 MISS:          0
cpu0_L1I TRANSLATION  ACCESS:          0 HIT:          0 MISS:          0
cpu0_L1I PREFETCH REQUESTED:    4902974 ISSUED:    3365423 USEFUL:        447 USELESS:         11
cpu0_L1I AVERAGE MISS LATENCY: 12.87 cycles
cpu0_L2C TOTAL        ACCESS:    1081508 HIT:    1009025 MISS:      72483
cpu0_L2C LOAD         ACCESS:      58081 HIT:      30173 MISS:      27908
cpu0_L2C RFO          ACCESS:       1442 HIT:        299 MISS:       1143
cpu0_L2C PREFETCH     ACCESS:    1019924 HIT:     976654 MISS:      43270
cpu0_L2C WRITE        ACCESS:       1678 HIT:       1633 MISS:         45
cpu0_L2C TRANSLATION  ACCESS:        383 HIT:        266 MISS:        117
cpu0_L2C PREFETCH REQUESTED:     564741 ISSUED:     513264 USEFUL:       8019 USELESS:       2697
cpu0_L2C AVERAGE MISS LATENCY: 45.4 cycles
cpu0_STLB TOTAL        ACCESS:       8574 HIT:       8175 MISS:        399
cpu0_STLB LOAD         ACCESS:       8574 HIT:       8175 MISS:        399
cpu0_STLB RFO          ACCESS:          0 HIT:          0 MISS:          0
cpu0_STLB PREFETCH     ACCESS:          0 HIT:          0 MISS:          0
cpu0_STLB WRITE        ACCESS:          0 HIT:          0 MISS:          0
cpu0_STLB TRANSLATION  ACCESS:          0 HIT:          0 MISS:          0
cpu0_STLB PREFETCH REQUESTED:          0 ISSUED:          0 USEFUL:          0 USELESS:          0
cpu0_STLB AVERAGE MISS LATENCY: 192.1 cycles

DRAM Statistics

Channel 0 RQ ROW_BUFFER_HIT:       8894
  ROW_BUFFER_MISS:       2759
 AVG DBUS CONGESTED CYCLE: 3.618
WQ ROW_BUFFER_HIT: Channel 0 
  ROW_BUFFER_MISS:          0
  FULL:          0

Channel 1 RQ ROW_BUFFER_HIT:       8853
  ROW_BUFFER_MISS:       2767
 AVG DBUS CONGESTED CYCLE: 3.611
WQ ROW_BUFFER_HIT: Channel 1 
  ROW_BUFFER_MISS:          0
  FULL:          0
BERTI TO_L1: 3252147 TO_L2: 9582276 TO_L2_BC_MSHR: 668
BERTI AVG_LAT: 36.4097 NUM_TRACK_LATENCY: 88559 NUM_CANT_TRACK_LATENCY: 0
BERTI CROSS_PAGE 5992637 NO_CROSS_PAGE: 6841786
BERTI FOUND_BERTI: 6046497 NO_FOUND_BERTI: 15290314
BERTI AVERAGE_ISSUED: 2.21004
CPU 0 L1I Entangling prefetcher final stats
IP accesses: 6e4 1b900 182903 / 2937126
IP misses: 3f12 fc480 22 / 1158
IP hits: 0 0 0 / 0
IP late: 3dc f700 4 / 491
IP wrong: 1a39 68e40 2 / 11
miss rate: 0.000394263
coverage: 0
coverage_late: 0.424007
accuracy: 0
accuracy_late: 0.978088
discarded: 0
evicts entangled j table: 0
evicts entangled k table: 38
max bb size: 39
formats: 11 0 69 48 14 34 0 
hist_lookups: 38 41 36 33 31 38 31 27 22 17 6 5 4 4 2 0 0 232 
hist_lookups_evict: 0 %
hist_lookups_shortlat: 40.9172 %
bb_found_hist: 0 260249 116094 99506 33972 21639 19315 24228 5 18302 7166 0 7165 0 0 7166 0 0 0 0 0 0 7167 7169 0 0 0 0 0 0 0 0 0 0 0 0 0 0 0 7167 0 0 0 0 0 0 0 0 0 0 0 0 0 0 0 0 0 0 0 0 0 0 0 0 
bb_found_summary: 2352486 636310 3.69708
entangled_found_hist: 0 237038 60706 38800 37732 0 0 0 
entangled_found_summary: 625778 374276 1.67197
bb_ent_found_hist: 0 152239 84848 76782 26925 15343 5900 29642 2127 14953 0 0 36331 0 0 7166 0 0 0 0 0 0 0 7500 0 0 0 0 0 0 0 0 0 0 0 0 0 0 0 2009 0 0 0 0 0 0 0 0 0 0 0 0 0 0 0 0 0 0 0 0 0 0 0 0 
bb_ent_found_summary: 1925496 461765 4.16987
