WARNING: physical memory size is smaller than virtual memory size.

*** ChampSim Multicore Out-of-Order Simulator ***
Warmup Instructions: 30000000
Simulation Instructions: 100000000
Number of CPUs: 1
Page size: 4096

BTB:
Basic BTB sets: 1024 ways: 8
Indirect:
history lengths: 0 0 10 16 27 44 60 96 109 219 449 487 714 1313 2146 3881 
ITTAGE tables: 64768 bytes;Region table: 240 bytes;IUM: 384 bytes;Total Storage= 65392 bytes;
RAS:
RAS size: 64
Berti Prefetcher
CPU 0 Entangling prefetcher
Off-chip DRAM Size: 8 GiB Channels: 2 Width: 64-bit Data Race: 6400 MT/s
Heartbeat CPU 0 instructions: 10000004 cycles: 1680822 heartbeat IPC: 5.949 cumulative IPC: 5.949 (Simulation time: 00 hr 00 min 37 sec)
Heartbeat CPU 0 instructions: 20000006 cycles: 3370511 heartbeat IPC: 5.918 cumulative IPC: 5.934 (Simulation time: 00 hr 01 min 13 sec)
Heartbeat CPU 0 instructions: 30000000 cycles: 5249276 heartbeat IPC: 5.323 cumulative IPC: 5.715 (Simulation time: 00 hr 01 min 53 sec)
Warmup finished CPU 0 instructions: 30000000 cycles: 5249277 cumulative IPC: 5.715 (Simulation time: 00 hr 01 min 53 sec)
Warmup complete CPU 0 instructions: 30000000 cycles: 5249277 cumulative IPC: 5.715 (Simulation time: 00 hr 01 min 53 sec)
Heartbeat CPU 0 instructions: 40000005 cycles: 7221239 heartbeat IPC: 5.071 cumulative IPC: 5.071 (Simulation time: 00 hr 02 min 33 sec)
Heartbeat CPU 0 instructions: 50000004 cycles: 9173845 heartbeat IPC: 5.121 cumulative IPC: 5.096 (Simulation time: 00 hr 03 min 14 sec)
Heartbeat CPU 0 instructions: 60000004 cycles: 11371486 heartbeat IPC: 4.55 cumulative IPC: 4.9 (Simulation time: 00 hr 04 min 00 sec)
Heartbeat CPU 0 instructions: 70000000 cycles: 14971261 heartbeat IPC: 2.778 cumulative IPC: 4.114 (Simulation time: 00 hr 05 min 15 sec)
Heartbeat CPU 0 instructions: 80000001 cycles: 16927925 heartbeat IPC: 5.111 cumulative IPC: 4.281 (Simulation time: 00 hr 06 min 11 sec)
Heartbeat CPU 0 instructions: 90000002 cycles: 18769818 heartbeat IPC: 5.429 cumulative IPC: 4.438 (Simulation time: 00 hr 07 min 21 sec)
Heartbeat CPU 0 instructions: 100000002 cycles: 20605118 heartbeat IPC: 5.449 cumulative IPC: 4.559 (Simulation time: 00 hr 08 min 28 sec)
*** Reached end of trace: (0, "../traces/secret_traces/compute_int/compute_int_232.champsimtrace.xz")
Heartbeat CPU 0 instructions: 110000009 cycles: 23105221 heartbeat IPC: 4 cumulative IPC: 4.48 (Simulation time: 00 hr 09 min 19 sec)
Heartbeat CPU 0 instructions: 120000001 cycles: 25665628 heartbeat IPC: 3.906 cumulative IPC: 4.408 (Simulation time: 00 hr 10 min 05 sec)
Heartbeat CPU 0 instructions: 130000005 cycles: 28056859 heartbeat IPC: 4.182 cumulative IPC: 4.385 (Simulation time: 00 hr 10 min 51 sec)
Simulation finished CPU 0 instructions: 100000005 cycles: 22807583 cumulative IPC: 4.385 (Simulation time: 00 hr 10 min 51 sec)
Simulation complete CPU 0 instructions: 100000005 cycles: 22807583 cumulative IPC: 4.385 (Simulation time: 00 hr 10 min 51 sec)

ChampSim completed all CPUs

=== Simulation ===
CPU 0 runs ../traces/secret_traces/compute_int/compute_int_232.champsimtrace.xz
Region of Interest Statistics

CPU 0 cumulative IPC: 4.385 instructions: 100000005 cycles: 22807583
CPU 0 Branch Prediction Accuracy: 99.04% MPKI: 1.263 Average ROB Occupancy at Mispredict: 36.83
Branch type MPKI
BRANCH_DIRECT_JUMP: 0.00479
BRANCH_INDIRECT: 0.171
BRANCH_CONDITIONAL: 1.07
BRANCH_DIRECT_CALL: 0.0119
BRANCH_INDIRECT_CALL: 0.00159
BRANCH_RETURN: 0.00669

LLC TOTAL        ACCESS:     345789 HIT:     180081 MISS:     165708
LLC LOAD         ACCESS:      18482 HIT:       6740 MISS:      11742
LLC RFO          ACCESS:      88425 HIT:       5356 MISS:      83069
LLC PREFETCH     ACCESS:     138830 HIT:      70580 MISS:      68250
LLC WRITE        ACCESS:      99269 HIT:      97390 MISS:       1879
LLC TRANSLATION  ACCESS:        783 HIT:         15 MISS:        768
LLC PREFETCH REQUESTED:          0 ISSUED:          0 USEFUL:          0 USELESS:          0
LLC AVERAGE MISS LATENCY: 359.6 cycles
cpu0_DTLB TOTAL        ACCESS:   19204419 HIT:   18787054 MISS:     417365
cpu0_DTLB LOAD         ACCESS:   19204419 HIT:   18787054 MISS:     417365
cpu0_DTLB RFO          ACCESS:          0 HIT:          0 MISS:          0
cpu0_DTLB PREFETCH     ACCESS:          0 HIT:          0 MISS:          0
cpu0_DTLB WRITE        ACCESS:          0 HIT:          0 MISS:          0
cpu0_DTLB TRANSLATION  ACCESS:          0 HIT:          0 MISS:          0
cpu0_DTLB PREFETCH REQUESTED:          0 ISSUED:          0 USEFUL:          0 USELESS:          0
cpu0_DTLB AVERAGE MISS LATENCY: 8.357 cycles
cpu0_ITLB TOTAL        ACCESS:    2065331 HIT:    2064180 MISS:       1151
cpu0_ITLB LOAD         ACCESS:    2065331 HIT:    2064180 MISS:       1151
cpu0_ITLB RFO          ACCESS:          0 HIT:          0 MISS:          0
cpu0_ITLB PREFETCH     ACCESS:          0 HIT:          0 MISS:          0
cpu0_ITLB WRITE        ACCESS:          0 HIT:          0 MISS:          0
cpu0_ITLB TRANSLATION  ACCESS:          0 HIT:          0 MISS:          0
cpu0_ITLB PREFETCH REQUESTED:          0 ISSUED:          0 USEFUL:          0 USELESS:          0
cpu0_ITLB AVERAGE MISS LATENCY: 60.63 cycles
cpu0_L1D TOTAL        ACCESS:   36731007 HIT:   34026995 MISS:    2704012
cpu0_L1D LOAD         ACCESS:   20334672 HIT:   19496847 MISS:     837825
cpu0_L1D RFO          ACCESS:          0 HIT:          0 MISS:          0
cpu0_L1D PREFETCH     ACCESS:    4976438 HIT:    4213685 MISS:     762753
cpu0_L1D WRITE        ACCESS:   11417917 HIT:   10315535 MISS:    1102382
cpu0_L1D TRANSLATION  ACCESS:       1980 HIT:        928 MISS:       1052
cpu0_L1D PREFETCH REQUESTED:   30089623 ISSUED:    4976438 USEFUL:     243872 USELESS:       7713
cpu0_L1D AVERAGE MISS LATENCY: 15.06 cycles
cpu0_L1I TOTAL        ACCESS:    3390479 HIT:    3363569 MISS:      26910
cpu0_L1I LOAD         ACCESS:     883146 HIT:     875466 MISS:       7680
cpu0_L1I RFO          ACCESS:          0 HIT:          0 MISS:          0
cpu0_L1I PREFETCH     ACCESS:    2507333 HIT:    2488103 MISS:      19230
cpu0_L1I WRITE        ACCESS:          0 HIT:          0 MISS:          0
cpu0_L1I TRANSLATION  ACCESS:          0 HIT:          0 MISS:          0
cpu0_L1I PREFETCH REQUESTED:    5593134 ISSUED:    2507333 USEFUL:      10721 USELESS:       7019
cpu0_L1I AVERAGE MISS LATENCY: 49.59 cycles
cpu0_L2C TOTAL        ACCESS:    2806193 HIT:    2408416 MISS:     397777
cpu0_L2C LOAD         ACCESS:     457758 HIT:     432289 MISS:      25469
cpu0_L2C RFO          ACCESS:     185035 HIT:      96599 MISS:      88436
cpu0_L2C PREFETCH     ACCESS:    1893112 HIT:    1610107 MISS:     283005
cpu0_L2C WRITE        ACCESS:     269252 HIT:     269168 MISS:         84
cpu0_L2C TRANSLATION  ACCESS:       1036 HIT:        253 MISS:        783
cpu0_L2C PREFETCH REQUESTED:    1223310 ISSUED:    1140252 USEFUL:      70131 USELESS:      11957
cpu0_L2C AVERAGE MISS LATENCY: 160.8 cycles
cpu0_STLB TOTAL        ACCESS:     404782 HIT:     402903 MISS:       1879
cpu0_STLB LOAD         ACCESS:     404782 HIT:     402903 MISS:       1879
cpu0_STLB RFO          ACCESS:          0 HIT:          0 MISS:          0
cpu0_STLB PREFETCH     ACCESS:          0 HIT:          0 MISS:          0
cpu0_STLB WRITE        ACCESS:          0 HIT:          0 MISS:          0
cpu0_STLB TRANSLATION  ACCESS:          0 HIT:          0 MISS:          0
cpu0_STLB PREFETCH REQUESTED:          0 ISSUED:          0 USEFUL:          0 USELESS:          0
cpu0_STLB AVERAGE MISS LATENCY: 204.6 cycles

DRAM Statistics

Channel 0 RQ ROW_BUFFER_HIT:      20486
  ROW_BUFFER_MISS:      61461
 AVG DBUS CONGESTED CYCLE: 3.952
WQ ROW_BUFFER_HIT: Channel 0 
  ROW_BUFFER_MISS:       4065
  FULL:      41047

Channel 1 RQ ROW_BUFFER_HIT:      20478
  ROW_BUFFER_MISS:      61301
 AVG DBUS CONGESTED CYCLE: 3.952
WQ ROW_BUFFER_HIT: Channel 1 
  ROW_BUFFER_MISS:       4244
  FULL:      40861
BERTI TO_L1: 30328581 TO_L2: 6323001 TO_L2_BC_MSHR: 806597
BERTI AVG_LAT: 45.0638 NUM_TRACK_LATENCY: 1008285 NUM_CANT_TRACK_LATENCY: 115
BERTI CROSS_PAGE 5543044 NO_CROSS_PAGE: 31108538
BERTI FOUND_BERTI: 10247401 NO_FOUND_BERTI: 16198406
BERTI AVERAGE_ISSUED: 2.91134
CPU 0 L1I Entangling prefetcher final stats
IP accesses: 139 4e40 21512 / 883625
IP misses: 4473 111cc0 105 / 8159
IP hits: 0 0 0 / 0
IP late: 2137 84dc0 12 / 3963
IP wrong: eed9 3bb640 27 / 6973
miss rate: 0.00923356
coverage: 0
coverage_late: 0.485722
accuracy: 0
accuracy_late: 0.362382
discarded: 0
evicts entangled j table: 0
evicts entangled k table: 1111
max bb size: 69
formats: 280 0 1030 533 223 467 0 
hist_lookups: 821 861 731 697 590 493 363 286 234 202 135 103 56 31 12 0 3 1650 
hist_lookups_evict: 0.0412769 %
hist_lookups_shortlat: 22.7023 %
bb_found_hist: 0 38260 18179 9735 14925 59957 32427 3405 2675 4967 5477 5211 2245 19087 15190 5152 8272 14230 8742 9866 9714 10402 5181 1680 848 0 10747 2099 1416 0 1016 0 0 0 0 0 0 0 0 0 0 0 0 0 0 0 2821 3 0 0 0 0 1331 0 0 0 0 0 0 0 3429 0 0 0 
bb_found_summary: 3540760 328689 10.7724
entangled_found_hist: 0 44392 6777 32033 5540 303 6863 0 
entangled_found_summary: 218898 95908 2.28238
bb_ent_found_hist: 0 46706 35365 4753 1821 2654 8430 382 69 151 29 5 0 1 0 0 4072 0 0 0 2857 6847 6849 0 0 0 0 0 0 0 0 0 0 0 0 0 0 0 0 0 0 0 0 0 0 0 16443 1 0 0 0 0 1 0 0 0 0 0 0 0 7751 0 0 0 
bb_ent_found_summary: 1846066 145187 12.7151
