WARNING: physical memory size is smaller than virtual memory size.

*** ChampSim Multicore Out-of-Order Simulator ***
Warmup Instructions: 30000000
Simulation Instructions: 100000000
Number of CPUs: 1
Page size: 4096

BTB:
Basic BTB sets: 1024 ways: 8
Indirect:
history lengths: 0 0 10 16 27 44 60 96 109 219 449 487 714 1313 2146 3881 
ITTAGE tables: 64768 bytes;Region table: 240 bytes;IUM: 384 bytes;Total Storage= 65392 bytes;
RAS:
RAS size: 64
Berti Prefetcher
CPU 0 Entangling prefetcher
Off-chip DRAM Size: 8 GiB Channels: 2 Width: 64-bit Data Race: 6400 MT/s
Heartbeat CPU 0 instructions: 10000007 cycles: 1730847 heartbeat IPC: 5.778 cumulative IPC: 5.778 (Simulation time: 00 hr 00 min 36 sec)
Heartbeat CPU 0 instructions: 20000005 cycles: 3399280 heartbeat IPC: 5.994 cumulative IPC: 5.884 (Simulation time: 00 hr 01 min 10 sec)
Heartbeat CPU 0 instructions: 30000005 cycles: 5066171 heartbeat IPC: 5.999 cumulative IPC: 5.922 (Simulation time: 00 hr 01 min 44 sec)
Warmup finished CPU 0 instructions: 30000005 cycles: 5066172 cumulative IPC: 5.922 (Simulation time: 00 hr 01 min 44 sec)
Warmup complete CPU 0 instructions: 30000005 cycles: 5066172 cumulative IPC: 5.922 (Simulation time: 00 hr 01 min 44 sec)
Heartbeat CPU 0 instructions: 40000001 cycles: 8976635 heartbeat IPC: 2.557 cumulative IPC: 2.557 (Simulation time: 00 hr 02 min 38 sec)
Heartbeat CPU 0 instructions: 50000001 cycles: 11555695 heartbeat IPC: 3.877 cumulative IPC: 3.082 (Simulation time: 00 hr 03 min 24 sec)
Heartbeat CPU 0 instructions: 60000000 cycles: 15641130 heartbeat IPC: 2.448 cumulative IPC: 2.837 (Simulation time: 00 hr 04 min 17 sec)
Heartbeat CPU 0 instructions: 70000000 cycles: 20006410 heartbeat IPC: 2.291 cumulative IPC: 2.677 (Simulation time: 00 hr 05 min 11 sec)
*** Reached end of trace: (0, "../traces/secret_traces/compute_int/compute_int_208.champsimtrace.xz")
Heartbeat CPU 0 instructions: 80000002 cycles: 24063274 heartbeat IPC: 2.465 cumulative IPC: 2.632 (Simulation time: 00 hr 06 min 04 sec)
Heartbeat CPU 0 instructions: 90000000 cycles: 29149448 heartbeat IPC: 1.966 cumulative IPC: 2.491 (Simulation time: 00 hr 07 min 10 sec)
Heartbeat CPU 0 instructions: 100000005 cycles: 33723487 heartbeat IPC: 2.186 cumulative IPC: 2.443 (Simulation time: 00 hr 08 min 06 sec)
Heartbeat CPU 0 instructions: 110000004 cycles: 39142138 heartbeat IPC: 1.845 cumulative IPC: 2.348 (Simulation time: 00 hr 09 min 03 sec)
Heartbeat CPU 0 instructions: 120000000 cycles: 42833288 heartbeat IPC: 2.709 cumulative IPC: 2.383 (Simulation time: 00 hr 10 min 03 sec)
Heartbeat CPU 0 instructions: 130000001 cycles: 45505354 heartbeat IPC: 3.742 cumulative IPC: 2.473 (Simulation time: 00 hr 10 min 59 sec)
Simulation finished CPU 0 instructions: 100000002 cycles: 40439185 cumulative IPC: 2.473 (Simulation time: 00 hr 10 min 59 sec)
Simulation complete CPU 0 instructions: 100000002 cycles: 40439185 cumulative IPC: 2.473 (Simulation time: 00 hr 10 min 59 sec)

ChampSim completed all CPUs

=== Simulation ===
CPU 0 runs ../traces/secret_traces/compute_int/compute_int_208.champsimtrace.xz
Region of Interest Statistics

CPU 0 cumulative IPC: 2.473 instructions: 100000002 cycles: 40439185
CPU 0 Branch Prediction Accuracy: 93.72% MPKI: 11.15 Average ROB Occupancy at Mispredict: 15.77
Branch type MPKI
BRANCH_DIRECT_JUMP: 0.0058
BRANCH_INDIRECT: 2.01
BRANCH_CONDITIONAL: 9.11
BRANCH_DIRECT_CALL: 0.0159
BRANCH_INDIRECT_CALL: 0.00205
BRANCH_RETURN: 0.00912

LLC TOTAL        ACCESS:     302390 HIT:     109606 MISS:     192784
LLC LOAD         ACCESS:      92160 HIT:       2482 MISS:      89678
LLC RFO          ACCESS:      67492 HIT:       6352 MISS:      61140
LLC PREFETCH     ACCESS:      66833 HIT:      26835 MISS:      39998
LLC WRITE        ACCESS:      75072 HIT:      73846 MISS:       1226
LLC TRANSLATION  ACCESS:        833 HIT:         91 MISS:        742
LLC PREFETCH REQUESTED:          0 ISSUED:          0 USEFUL:          0 USELESS:          0
LLC AVERAGE MISS LATENCY: 213.2 cycles
cpu0_DTLB TOTAL        ACCESS:   19542938 HIT:   19506278 MISS:      36660
cpu0_DTLB LOAD         ACCESS:   19542938 HIT:   19506278 MISS:      36660
cpu0_DTLB RFO          ACCESS:          0 HIT:          0 MISS:          0
cpu0_DTLB PREFETCH     ACCESS:          0 HIT:          0 MISS:          0
cpu0_DTLB WRITE        ACCESS:          0 HIT:          0 MISS:          0
cpu0_DTLB TRANSLATION  ACCESS:          0 HIT:          0 MISS:          0
cpu0_DTLB PREFETCH REQUESTED:          0 ISSUED:          0 USEFUL:          0 USELESS:          0
cpu0_DTLB AVERAGE MISS LATENCY: 9.881 cycles
cpu0_ITLB TOTAL        ACCESS:      96739 HIT:      95430 MISS:       1309
cpu0_ITLB LOAD         ACCESS:      96739 HIT:      95430 MISS:       1309
cpu0_ITLB RFO          ACCESS:          0 HIT:          0 MISS:          0
cpu0_ITLB PREFETCH     ACCESS:          0 HIT:          0 MISS:          0
cpu0_ITLB WRITE        ACCESS:          0 HIT:          0 MISS:          0
cpu0_ITLB TRANSLATION  ACCESS:          0 HIT:          0 MISS:          0
cpu0_ITLB PREFETCH REQUESTED:          0 ISSUED:          0 USEFUL:          0 USELESS:          0
cpu0_ITLB AVERAGE MISS LATENCY: 55.42 cycles
cpu0_L1D TOTAL        ACCESS:   32685147 HIT:   26842672 MISS:    5842475
cpu0_L1D LOAD         ACCESS:   15152153 HIT:   14188912 MISS:     963241
cpu0_L1D RFO          ACCESS:          0 HIT:          0 MISS:          0
cpu0_L1D PREFETCH     ACCESS:   10970446 HIT:    7097344 MISS:    3873102
cpu0_L1D WRITE        ACCESS:    6558964 HIT:    5554410 MISS:    1004554
cpu0_L1D TRANSLATION  ACCESS:       3584 HIT:       2006 MISS:       1578
cpu0_L1D PREFETCH REQUESTED:   26264762 ISSUED:   10970446 USEFUL:      90776 USELESS:      88288
cpu0_L1D AVERAGE MISS LATENCY: 7.752 cycles
cpu0_L1I TOTAL        ACCESS:     140804 HIT:     112448 MISS:      28356
cpu0_L1I LOAD         ACCESS:      48963 HIT:      40699 MISS:       8264
cpu0_L1I RFO          ACCESS:          0 HIT:          0 MISS:          0
cpu0_L1I PREFETCH     ACCESS:      91841 HIT:      71749 MISS:      20092
cpu0_L1I WRITE        ACCESS:          0 HIT:          0 MISS:          0
cpu0_L1I TRANSLATION  ACCESS:          0 HIT:          0 MISS:          0
cpu0_L1I PREFETCH REQUESTED:     138267 ISSUED:      91841 USEFUL:      10915 USELESS:       7397
cpu0_L1I AVERAGE MISS LATENCY: 56.44 cycles
cpu0_L2C TOTAL        ACCESS:    9272820 HIT:    8909915 MISS:     362905
cpu0_L2C LOAD         ACCESS:     631827 HIT:     518142 MISS:     113685
cpu0_L2C RFO          ACCESS:     315995 HIT:     248492 MISS:      67503
cpu0_L2C PREFETCH     ACCESS:    7614881 HIT:    7433997 MISS:     180884
cpu0_L2C WRITE        ACCESS:     708561 HIT:     708561 MISS:          0
cpu0_L2C TRANSLATION  ACCESS:       1556 HIT:        723 MISS:        833
cpu0_L2C PREFETCH REQUESTED:    4262952 ISSUED:    3985693 USEFUL:      50777 USELESS:       5695
cpu0_L2C AVERAGE MISS LATENCY: 122.5 cycles
cpu0_STLB TOTAL        ACCESS:       8461 HIT:       5020 MISS:       3441
cpu0_STLB LOAD         ACCESS:       8461 HIT:       5020 MISS:       3441
cpu0_STLB RFO          ACCESS:          0 HIT:          0 MISS:          0
cpu0_STLB PREFETCH     ACCESS:          0 HIT:          0 MISS:          0
cpu0_STLB WRITE        ACCESS:          0 HIT:          0 MISS:          0
cpu0_STLB TRANSLATION  ACCESS:          0 HIT:          0 MISS:          0
cpu0_STLB PREFETCH REQUESTED:          0 ISSUED:          0 USEFUL:          0 USELESS:          0
cpu0_STLB AVERAGE MISS LATENCY: 170.1 cycles

DRAM Statistics

Channel 0 RQ ROW_BUFFER_HIT:      54716
  ROW_BUFFER_MISS:      41222
 AVG DBUS CONGESTED CYCLE: 3.946
WQ ROW_BUFFER_HIT: Channel 0 
  ROW_BUFFER_MISS:       5284
  FULL:      33107

Channel 1 RQ ROW_BUFFER_HIT:      54803
  ROW_BUFFER_MISS:      40817
 AVG DBUS CONGESTED CYCLE: 3.949
WQ ROW_BUFFER_HIT: Channel 1 
  ROW_BUFFER_MISS:       5419
  FULL:      32846
BERTI TO_L1: 12347715 TO_L2: 17863336 TO_L2_BC_MSHR: 2149637
BERTI AVG_LAT: 45.2947 NUM_TRACK_LATENCY: 1027501 NUM_CANT_TRACK_LATENCY: 1
BERTI CROSS_PAGE 5025408 NO_CROSS_PAGE: 25185643
BERTI FOUND_BERTI: 14209708 NO_FOUND_BERTI: 7000703
BERTI AVERAGE_ISSUED: 4.28566
CPU 0 L1I Entangling prefetcher final stats
IP accesses: 1eb 7ac0 346 / 50430
IP misses: 3ada eb680 161 / 9731
IP hits: 0 0 0 / 0
IP late: 2125 84940 17 / 4221
IP wrong: ef71 3bdc40 27 / 7369
miss rate: 0.192961
coverage: 0
coverage_late: 0.433769
accuracy: 0
accuracy_late: 0.364194
discarded: 0
evicts entangled j table: 0
evicts entangled k table: 1154
max bb size: 67
formats: 358 0 1039 572 245 505 0 
hist_lookups: 932 947 718 679 611 507 384 311 236 187 121 102 58 41 21 0 0 2815 
hist_lookups_evict: 0 %
hist_lookups_shortlat: 32.4683 %
bb_found_hist: 0 11281 5820 2296 885 463 245 146 106 23 0 0 1 2 3 0 0 0 0 0 0 0 8 0 0 0 0 0 0 0 0 3 0 0 0 0 0 0 0 0 0 0 0 0 0 0 0 0 0 0 0 0 0 0 0 0 0 0 0 0 0 0 0 0 
bb_found_summary: 39560 21282 1.85885
entangled_found_hist: 0 6321 4132 8219 1251 151 43 0 
entangled_found_summary: 45259 20117 2.24979
bb_ent_found_hist: 0 15726 7403 4217 2090 1068 653 442 213 0 0 0 17 2 0 0 0 0 0 0 0 0 0 0 0 0 0 0 0 0 0 2 0 0 0 0 0 0 0 0 0 0 0 0 0 0 0 0 0 0 0 0 0 0 0 0 0 0 0 0 0 0 0 0 
bb_ent_found_summary: 65891 31833 2.0699
