WARNING: physical memory size is smaller than virtual memory size.

*** ChampSim Multicore Out-of-Order Simulator ***
Warmup Instructions: 30000000
Simulation Instructions: 100000000
Number of CPUs: 1
Page size: 4096

BTB:
Basic BTB sets: 1024 ways: 8
Indirect:
history lengths: 0 0 10 16 27 44 60 96 109 219 449 487 714 1313 2146 3881 
ITTAGE tables: 64768 bytes;Region table: 240 bytes;IUM: 384 bytes;Total Storage= 65392 bytes;
RAS:
RAS size: 64
Berti Prefetcher
CPU 0 Entangling prefetcher
Off-chip DRAM Size: 8 GiB Channels: 2 Width: 64-bit Data Race: 6400 MT/s
Heartbeat CPU 0 instructions: 10000004 cycles: 1880093 heartbeat IPC: 5.319 cumulative IPC: 5.319 (Simulation time: 00 hr 00 min 37 sec)
Heartbeat CPU 0 instructions: 20000004 cycles: 3963953 heartbeat IPC: 4.799 cumulative IPC: 5.045 (Simulation time: 00 hr 01 min 22 sec)
Heartbeat CPU 0 instructions: 30000000 cycles: 6185513 heartbeat IPC: 4.501 cumulative IPC: 4.85 (Simulation time: 00 hr 02 min 04 sec)
Warmup finished CPU 0 instructions: 30000000 cycles: 6185514 cumulative IPC: 4.85 (Simulation time: 00 hr 02 min 04 sec)
Warmup complete CPU 0 instructions: 30000000 cycles: 6185514 cumulative IPC: 4.85 (Simulation time: 00 hr 02 min 04 sec)
Heartbeat CPU 0 instructions: 40000001 cycles: 8714487 heartbeat IPC: 3.954 cumulative IPC: 3.954 (Simulation time: 00 hr 03 min 05 sec)
Heartbeat CPU 0 instructions: 50000002 cycles: 10552939 heartbeat IPC: 5.439 cumulative IPC: 4.579 (Simulation time: 00 hr 03 min 58 sec)
Heartbeat CPU 0 instructions: 60000001 cycles: 12393287 heartbeat IPC: 5.434 cumulative IPC: 4.833 (Simulation time: 00 hr 04 min 52 sec)
Heartbeat CPU 0 instructions: 70000003 cycles: 14235946 heartbeat IPC: 5.427 cumulative IPC: 4.969 (Simulation time: 00 hr 05 min 45 sec)
Heartbeat CPU 0 instructions: 80000000 cycles: 16094203 heartbeat IPC: 5.381 cumulative IPC: 5.046 (Simulation time: 00 hr 06 min 37 sec)
Heartbeat CPU 0 instructions: 90000000 cycles: 17961154 heartbeat IPC: 5.356 cumulative IPC: 5.095 (Simulation time: 00 hr 07 min 28 sec)
Heartbeat CPU 0 instructions: 100000004 cycles: 19840135 heartbeat IPC: 5.322 cumulative IPC: 5.126 (Simulation time: 00 hr 08 min 18 sec)
Heartbeat CPU 0 instructions: 110000002 cycles: 21799275 heartbeat IPC: 5.104 cumulative IPC: 5.124 (Simulation time: 00 hr 09 min 05 sec)
Heartbeat CPU 0 instructions: 120000005 cycles: 23841945 heartbeat IPC: 4.896 cumulative IPC: 5.097 (Simulation time: 00 hr 09 min 51 sec)
Heartbeat CPU 0 instructions: 130000000 cycles: 25893772 heartbeat IPC: 4.874 cumulative IPC: 5.074 (Simulation time: 00 hr 10 min 34 sec)
Simulation finished CPU 0 instructions: 100000000 cycles: 19708259 cumulative IPC: 5.074 (Simulation time: 00 hr 10 min 34 sec)
Simulation complete CPU 0 instructions: 100000000 cycles: 19708259 cumulative IPC: 5.074 (Simulation time: 00 hr 10 min 34 sec)

ChampSim completed all CPUs

=== Simulation ===
CPU 0 runs ../traces/secret_traces/compute_int/compute_int_4.champsimtrace.xz
Region of Interest Statistics

CPU 0 cumulative IPC: 5.074 instructions: 100000000 cycles: 19708259
CPU 0 Branch Prediction Accuracy: 99.75% MPKI: 0.4571 Average ROB Occupancy at Mispredict: 80.21
Branch type MPKI
BRANCH_DIRECT_JUMP: 0.00018
BRANCH_INDIRECT: 0.124
BRANCH_CONDITIONAL: 0.333
BRANCH_DIRECT_CALL: 0.00014
BRANCH_INDIRECT_CALL: 6e-05
BRANCH_RETURN: 0.00019

LLC TOTAL        ACCESS:     160725 HIT:     134777 MISS:      25948
LLC LOAD         ACCESS:      10206 HIT:       8851 MISS:       1355
LLC RFO          ACCESS:       6185 HIT:       1617 MISS:       4568
LLC PREFETCH     ACCESS:     114602 HIT:      95116 MISS:      19486
LLC WRITE        ACCESS:      29672 HIT:      29192 MISS:        480
LLC TRANSLATION  ACCESS:         60 HIT:          1 MISS:         59
LLC PREFETCH REQUESTED:          0 ISSUED:          0 USEFUL:          0 USELESS:          0
LLC AVERAGE MISS LATENCY: 780.1 cycles
cpu0_DTLB TOTAL        ACCESS:   18024466 HIT:   17953957 MISS:      70509
cpu0_DTLB LOAD         ACCESS:   18024466 HIT:   17953957 MISS:      70509
cpu0_DTLB RFO          ACCESS:          0 HIT:          0 MISS:          0
cpu0_DTLB PREFETCH     ACCESS:          0 HIT:          0 MISS:          0
cpu0_DTLB WRITE        ACCESS:          0 HIT:          0 MISS:          0
cpu0_DTLB TRANSLATION  ACCESS:          0 HIT:          0 MISS:          0
cpu0_DTLB PREFETCH REQUESTED:          0 ISSUED:          0 USEFUL:          0 USELESS:          0
cpu0_DTLB AVERAGE MISS LATENCY: 5.788 cycles
cpu0_ITLB TOTAL        ACCESS:      13127 HIT:      13113 MISS:         14
cpu0_ITLB LOAD         ACCESS:      13127 HIT:      13113 MISS:         14
cpu0_ITLB RFO          ACCESS:          0 HIT:          0 MISS:          0
cpu0_ITLB PREFETCH     ACCESS:          0 HIT:          0 MISS:          0
cpu0_ITLB WRITE        ACCESS:          0 HIT:          0 MISS:          0
cpu0_ITLB TRANSLATION  ACCESS:          0 HIT:          0 MISS:          0
cpu0_ITLB PREFETCH REQUESTED:          0 ISSUED:          0 USEFUL:          0 USELESS:          0
cpu0_ITLB AVERAGE MISS LATENCY: 304.6 cycles
cpu0_L1D TOTAL        ACCESS:   39285854 HIT:   37114651 MISS:    2171203
cpu0_L1D LOAD         ACCESS:   30936189 HIT:   29862091 MISS:    1074098
cpu0_L1D RFO          ACCESS:          0 HIT:          0 MISS:          0
cpu0_L1D PREFETCH     ACCESS:    6644625 HIT:    5608096 MISS:    1036529
cpu0_L1D WRITE        ACCESS:    1704936 HIT:    1644455 MISS:      60481
cpu0_L1D TRANSLATION  ACCESS:        104 HIT:          9 MISS:         95
cpu0_L1D PREFETCH REQUESTED:   38637133 ISSUED:    6644594 USEFUL:     340107 USELESS:      19554
cpu0_L1D AVERAGE MISS LATENCY: 6.742 cycles
cpu0_L1I TOTAL        ACCESS:      19274 HIT:      15771 MISS:       3503
cpu0_L1I LOAD         ACCESS:       8568 HIT:       6766 MISS:       1802
cpu0_L1I RFO          ACCESS:          0 HIT:          0 MISS:          0
cpu0_L1I PREFETCH     ACCESS:      10706 HIT:       9005 MISS:       1701
cpu0_L1I WRITE        ACCESS:          0 HIT:          0 MISS:          0
cpu0_L1I TRANSLATION  ACCESS:          0 HIT:          0 MISS:          0
cpu0_L1I PREFETCH REQUESTED:      25679 ISSUED:      10706 USEFUL:        726 USELESS:        616
cpu0_L1I AVERAGE MISS LATENCY: 191.4 cycles
cpu0_L2C TOTAL        ACCESS:    2604327 HIT:    2362015 MISS:     242312
cpu0_L2C LOAD         ACCESS:     282291 HIT:     270494 MISS:      11797
cpu0_L2C RFO          ACCESS:      36194 HIT:      30008 MISS:       6186
cpu0_L2C PREFETCH     ACCESS:    2203717 HIT:    1979448 MISS:     224269
cpu0_L2C WRITE        ACCESS:      82041 HIT:      82041 MISS:          0
cpu0_L2C TRANSLATION  ACCESS:         84 HIT:         24 MISS:         60
cpu0_L2C PREFETCH REQUESTED:    1297028 ISSUED:    1201919 USEFUL:      80384 USELESS:      10114
cpu0_L2C AVERAGE MISS LATENCY: 93.56 cycles
cpu0_STLB TOTAL        ACCESS:      54317 HIT:      54218 MISS:         99
cpu0_STLB LOAD         ACCESS:      54317 HIT:      54218 MISS:         99
cpu0_STLB RFO          ACCESS:          0 HIT:          0 MISS:          0
cpu0_STLB PREFETCH     ACCESS:          0 HIT:          0 MISS:          0
cpu0_STLB WRITE        ACCESS:          0 HIT:          0 MISS:          0
cpu0_STLB TRANSLATION  ACCESS:          0 HIT:          0 MISS:          0
cpu0_STLB PREFETCH REQUESTED:          0 ISSUED:          0 USEFUL:          0 USELESS:          0
cpu0_STLB AVERAGE MISS LATENCY: 370.9 cycles

DRAM Statistics

Channel 0 RQ ROW_BUFFER_HIT:       1730
  ROW_BUFFER_MISS:      10965
 AVG DBUS CONGESTED CYCLE: 3.979
WQ ROW_BUFFER_HIT: Channel 0 
  ROW_BUFFER_MISS:       1729
  FULL:      10792

Channel 1 RQ ROW_BUFFER_HIT:       1978
  ROW_BUFFER_MISS:      10787
 AVG DBUS CONGESTED CYCLE: 3.979
WQ ROW_BUFFER_HIT: Channel 1 
  ROW_BUFFER_MISS:       1798
  FULL:      10748
BERTI TO_L1: 39699689 TO_L2: 10273215 TO_L2_BC_MSHR: 431122
BERTI AVG_LAT: 57.6736 NUM_TRACK_LATENCY: 724758 NUM_CANT_TRACK_LATENCY: 124
BERTI CROSS_PAGE 6490855 NO_CROSS_PAGE: 43482049
BERTI FOUND_BERTI: 17872835 NO_FOUND_BERTI: 17853593
BERTI AVERAGE_ISSUED: 3.52189
CPU 0 L1I Entangling prefetcher final stats
IP accesses: 3e3f f8fc0 660 / 17636
IP misses: 3e3f f8fc0 657 / 10870
IP hits: 0 0 0 / 0
IP late: 38f0 e3c00 10 / 833
IP wrong: 3a30 e8c00 8 / 607
miss rate: 0.616353
coverage: 0
coverage_late: 0.076633
accuracy: 0
accuracy_late: 0.578473
discarded: 0
evicts entangled j table: 0
evicts entangled k table: 122
max bb size: 15
formats: 30 0 105 55 17 47 0 
hist_lookups: 47 50 63 55 78 78 65 43 34 38 25 21 13 10 7 0 6 2278 
hist_lookups_evict: 0.206115 %
hist_lookups_shortlat: 78.2549 %
bb_found_hist: 0 1668 840 350 173 107 52 42 0 8 8 20 6 8 11 20 0 0 0 0 0 0 0 0 0 0 0 0 0 0 0 0 0 0 0 0 0 0 0 0 0 0 0 0 0 0 0 0 0 0 0 0 0 0 0 0 0 0 0 0 0 0 0 0 
bb_found_summary: 7233 3313 2.18322
entangled_found_hist: 0 902 634 1483 212 75 7 0 
entangled_found_summary: 7884 3313 2.37972
bb_ent_found_hist: 0 2406 1333 715 463 293 103 121 0 34 0 12 0 0 10 31 0 0 0 0 0 0 0 0 0 0 0 0 0 0 0 0 0 0 0 0 0 0 0 0 0 0 0 0 0 0 0 0 0 0 0 0 0 0 0 0 0 0 0 0 0 0 0 0 
bb_ent_found_summary: 13042 5521 2.36226
