WARNING: physical memory size is smaller than virtual memory size.

*** ChampSim Multicore Out-of-Order Simulator ***
Warmup Instructions: 30000000
Simulation Instructions: 100000000
Number of CPUs: 1
Page size: 4096

BTB:
Basic BTB sets: 1024 ways: 8
Indirect:
history lengths: 0 0 10 16 27 44 60 96 109 219 449 487 714 1313 2146 3881 
ITTAGE tables: 64768 bytes;Region table: 240 bytes;IUM: 384 bytes;Total Storage= 65392 bytes;
RAS:
RAS size: 64
[LLC] INSTR Demand IPV: 1 2 2 1 4 Prefetch IPV: 1 2 1 1 4
[LLC] DATA  Demand IPV: 1 1 1 2 4 Prefetch IPV: 1 1 2 2 4
Berti Prefetcher
CPU 0 Entangling prefetcher
Off-chip DRAM Size: 8 GiB Channels: 2 Width: 64-bit Data Race: 6400 MT/s
[DUEL] Epoch ended. INSTR misses = 17, DATA misses = 9. Winner = DATA
[DUEL] Epoch ended. INSTR misses = 140, DATA misses = 139. Winner = DATA
[DUEL] Epoch ended. INSTR misses = 49, DATA misses = 47. Winner = DATA
[DUEL] Epoch ended. INSTR misses = 46, DATA misses = 34. Winner = DATA
[DUEL] Epoch ended. INSTR misses = 62, DATA misses = 64. Winner = INSTR
[DUEL] Epoch ended. INSTR misses = 63, DATA misses = 61. Winner = DATA
[DUEL] Epoch ended. INSTR misses = 87, DATA misses = 89. Winner = INSTR
[DUEL] Epoch ended. INSTR misses = 110, DATA misses = 114. Winner = INSTR
[DUEL] Epoch ended. INSTR misses = 69, DATA misses = 60. Winner = DATA
[DUEL] Epoch ended. INSTR misses = 96, DATA misses = 102. Winner = INSTR
[DUEL] Epoch ended. INSTR misses = 97, DATA misses = 107. Winner = INSTR
[DUEL] Epoch ended. INSTR misses = 63, DATA misses = 59. Winner = DATA
[DUEL] Epoch ended. INSTR misses = 68, DATA misses = 70. Winner = INSTR
[DUEL] Epoch ended. INSTR misses = 85, DATA misses = 90. Winner = INSTR
[DUEL] Epoch ended. INSTR misses = 99, DATA misses = 107. Winner = INSTR
[DUEL] Epoch ended. INSTR misses = 84, DATA misses = 94. Winner = INSTR
[DUEL] Epoch ended. INSTR misses = 87, DATA misses = 95. Winner = INSTR
[DUEL] Epoch ended. INSTR misses = 88, DATA misses = 93. Winner = INSTR
[DUEL] Epoch ended. INSTR misses = 92, DATA misses = 92. Winner = INSTR
[DUEL] Epoch ended. INSTR misses = 93, DATA misses = 87. Winner = DATA
[DUEL] Epoch ended. INSTR misses = 63, DATA misses = 62. Winner = DATA
[DUEL] Epoch ended. INSTR misses = 88, DATA misses = 88. Winner = INSTR
[DUEL] Epoch ended. INSTR misses = 78, DATA misses = 77. Winner = DATA
[DUEL] Epoch ended. INSTR misses = 63, DATA misses = 55. Winner = DATA
[DUEL] Epoch ended. INSTR misses = 76, DATA misses = 72. Winner = DATA
[DUEL] Epoch ended. INSTR misses = 78, DATA misses = 76. Winner = DATA
[DUEL] Epoch ended. INSTR misses = 79, DATA misses = 73. Winner = DATA
[DUEL] Epoch ended. INSTR misses = 80, DATA misses = 66. Winner = DATA
[DUEL] Epoch ended. INSTR misses = 78, DATA misses = 78. Winner = INSTR
[DUEL] Epoch ended. INSTR misses = 93, DATA misses = 88. Winner = DATA
[DUEL] Epoch ended. INSTR misses = 92, DATA misses = 85. Winner = DATA
[DUEL] Epoch ended. INSTR misses = 90, DATA misses = 88. Winner = DATA
[DUEL] Epoch ended. INSTR misses = 84, DATA misses = 91. Winner = INSTR
[DUEL] Epoch ended. INSTR misses = 88, DATA misses = 90. Winner = INSTR
[DUEL] Epoch ended. INSTR misses = 74, DATA misses = 83. Winner = INSTR
[DUEL] Epoch ended. INSTR misses = 79, DATA misses = 80. Winner = INSTR
[DUEL] Epoch ended. INSTR misses = 62, DATA misses = 62. Winner = INSTR
[DUEL] Epoch ended. INSTR misses = 81, DATA misses = 92. Winner = INSTR
[DUEL] Epoch ended. INSTR misses = 77, DATA misses = 83. Winner = INSTR
Heartbeat CPU 0 instructions: 10000000 cycles: 1716400 heartbeat IPC: 5.826 cumulative IPC: 5.826 (Simulation time: 00 hr 00 min 31 sec)
[DUEL] Epoch ended. INSTR misses = 91, DATA misses = 91. Winner = INSTR
[DUEL] Epoch ended. INSTR misses = 76, DATA misses = 76. Winner = INSTR
[DUEL] Epoch ended. INSTR misses = 79, DATA misses = 73. Winner = DATA
[DUEL] Epoch ended. INSTR misses = 65, DATA misses = 57. Winner = DATA
[DUEL] Epoch ended. INSTR misses = 74, DATA misses = 73. Winner = DATA
[DUEL] Epoch ended. INSTR misses = 95, DATA misses = 86. Winner = DATA
[DUEL] Epoch ended. INSTR misses = 99, DATA misses = 86. Winner = DATA
[DUEL] Epoch ended. INSTR misses = 63, DATA misses = 68. Winner = INSTR
[DUEL] Epoch ended. INSTR misses = 91, DATA misses = 91. Winner = INSTR
[DUEL] Epoch ended. INSTR misses = 90, DATA misses = 89. Winner = DATA
[DUEL] Epoch ended. INSTR misses = 85, DATA misses = 94. Winner = INSTR
[DUEL] Epoch ended. INSTR misses = 63, DATA misses = 63. Winner = INSTR
[DUEL] Epoch ended. INSTR misses = 72, DATA misses = 78. Winner = INSTR
[DUEL] Epoch ended. INSTR misses = 102, DATA misses = 112. Winner = INSTR
[DUEL] Epoch ended. INSTR misses = 85, DATA misses = 95. Winner = INSTR
[DUEL] Epoch ended. INSTR misses = 75, DATA misses = 76. Winner = INSTR
[DUEL] Epoch ended. INSTR misses = 80, DATA misses = 92. Winner = INSTR
[DUEL] Epoch ended. INSTR misses = 68, DATA misses = 65. Winner = DATA
[DUEL] Epoch ended. INSTR misses = 107, DATA misses = 99. Winner = DATA
[DUEL] Epoch ended. INSTR misses = 74, DATA misses = 83. Winner = INSTR
[DUEL] Epoch ended. INSTR misses = 78, DATA misses = 75. Winner = DATA
[DUEL] Epoch ended. INSTR misses = 82, DATA misses = 78. Winner = DATA
[DUEL] Epoch ended. INSTR misses = 60, DATA misses = 63. Winner = INSTR
[DUEL] Epoch ended. INSTR misses = 103, DATA misses = 110. Winner = INSTR
[DUEL] Epoch ended. INSTR misses = 94, DATA misses = 90. Winner = DATA
[DUEL] Epoch ended. INSTR misses = 93, DATA misses = 82. Winner = DATA
[DUEL] Epoch ended. INSTR misses = 77, DATA misses = 79. Winner = INSTR
[DUEL] Epoch ended. INSTR misses = 95, DATA misses = 90. Winner = DATA
[DUEL] Epoch ended. INSTR misses = 95, DATA misses = 92. Winner = DATA
[DUEL] Epoch ended. INSTR misses = 93, DATA misses = 86. Winner = DATA
[DUEL] Epoch ended. INSTR misses = 73, DATA misses = 57. Winner = DATA
[DUEL] Epoch ended. INSTR misses = 93, DATA misses = 83. Winner = DATA
[DUEL] Epoch ended. INSTR misses = 71, DATA misses = 35. Winner = DATA
[DUEL] Epoch ended. INSTR misses = 41, DATA misses = 59. Winner = INSTR
[DUEL] Epoch ended. INSTR misses = 49, DATA misses = 46. Winner = DATA
[DUEL] Epoch ended. INSTR misses = 43, DATA misses = 30. Winner = DATA
[DUEL] Epoch ended. INSTR misses = 55, DATA misses = 71. Winner = INSTR
[DUEL] Epoch ended. INSTR misses = 39, DATA misses = 40. Winner = INSTR
[DUEL] Epoch ended. INSTR misses = 34, DATA misses = 59. Winner = INSTR
Heartbeat CPU 0 instructions: 20000008 cycles: 3385084 heartbeat IPC: 5.993 cumulative IPC: 5.908 (Simulation time: 00 hr 01 min 02 sec)
[DUEL] Epoch ended. INSTR misses = 55, DATA misses = 39. Winner = DATA
[DUEL] Epoch ended. INSTR misses = 38, DATA misses = 51. Winner = INSTR
[DUEL] Epoch ended. INSTR misses = 78, DATA misses = 50. Winner = DATA
[DUEL] Epoch ended. INSTR misses = 81, DATA misses = 57. Winner = DATA
[DUEL] Epoch ended. INSTR misses = 69, DATA misses = 61. Winner = DATA
[DUEL] Epoch ended. INSTR misses = 49, DATA misses = 39. Winner = DATA
[DUEL] Epoch ended. INSTR misses = 41, DATA misses = 56. Winner = INSTR
[DUEL] Epoch ended. INSTR misses = 56, DATA misses = 49. Winner = DATA
[DUEL] Epoch ended. INSTR misses = 88, DATA misses = 73. Winner = DATA
[DUEL] Epoch ended. INSTR misses = 71, DATA misses = 72. Winner = INSTR
[DUEL] Epoch ended. INSTR misses = 56, DATA misses = 46. Winner = DATA
[DUEL] Epoch ended. INSTR misses = 48, DATA misses = 36. Winner = DATA
[DUEL] Epoch ended. INSTR misses = 46, DATA misses = 54. Winner = INSTR
[DUEL] Epoch ended. INSTR misses = 63, DATA misses = 66. Winner = INSTR
[DUEL] Epoch ended. INSTR misses = 41, DATA misses = 37. Winner = DATA
[DUEL] Epoch ended. INSTR misses = 51, DATA misses = 49. Winner = DATA
[DUEL] Epoch ended. INSTR misses = 46, DATA misses = 44. Winner = DATA
[DUEL] Epoch ended. INSTR misses = 39, DATA misses = 39. Winner = INSTR
[DUEL] Epoch ended. INSTR misses = 55, DATA misses = 66. Winner = INSTR
[DUEL] Epoch ended. INSTR misses = 74, DATA misses = 69. Winner = DATA
[DUEL] Epoch ended. INSTR misses = 43, DATA misses = 56. Winner = INSTR
[DUEL] Epoch ended. INSTR misses = 35, DATA misses = 55. Winner = INSTR
[DUEL] Epoch ended. INSTR misses = 49, DATA misses = 33. Winner = DATA
[DUEL] Epoch ended. INSTR misses = 34, DATA misses = 50. Winner = INSTR
[DUEL] Epoch ended. INSTR misses = 47, DATA misses = 50. Winner = INSTR
[DUEL] Epoch ended. INSTR misses = 66, DATA misses = 50. Winner = DATA
[DUEL] Epoch ended. INSTR misses = 76, DATA misses = 89. Winner = INSTR
[DUEL] Epoch ended. INSTR misses = 49, DATA misses = 75. Winner = INSTR
[DUEL] Epoch ended. INSTR misses = 47, DATA misses = 44. Winner = DATA
[DUEL] Epoch ended. INSTR misses = 51, DATA misses = 31. Winner = DATA
[DUEL] Epoch ended. INSTR misses = 32, DATA misses = 45. Winner = INSTR
[DUEL] Epoch ended. INSTR misses = 40, DATA misses = 60. Winner = INSTR
[DUEL] Epoch ended. INSTR misses = 70, DATA misses = 75. Winner = INSTR
[DUEL] Epoch ended. INSTR misses = 57, DATA misses = 43. Winner = DATA
[DUEL] Epoch ended. INSTR misses = 49, DATA misses = 46. Winner = DATA
[DUEL] Epoch ended. INSTR misses = 39, DATA misses = 30. Winner = DATA
[DUEL] Epoch ended. INSTR misses = 35, DATA misses = 42. Winner = INSTR
[DUEL] Epoch ended. INSTR misses = 90, DATA misses = 94. Winner = INSTR
[DUEL] Epoch ended. INSTR misses = 59, DATA misses = 46. Winner = DATA
Heartbeat CPU 0 instructions: 30000006 cycles: 5052387 heartbeat IPC: 5.998 cumulative IPC: 5.938 (Simulation time: 00 hr 01 min 29 sec)
Warmup finished CPU 0 instructions: 30000006 cycles: 5052388 cumulative IPC: 5.938 (Simulation time: 00 hr 01 min 29 sec)
Warmup complete CPU 0 instructions: 30000006 cycles: 5052388 cumulative IPC: 5.938 (Simulation time: 00 hr 01 min 29 sec)
[DUEL] Epoch ended. INSTR misses = 56, DATA misses = 73. Winner = INSTR
[DUEL] Epoch ended. INSTR misses = 60, DATA misses = 55. Winner = DATA
[DUEL] Epoch ended. INSTR misses = 64, DATA misses = 52. Winner = DATA
[DUEL] Epoch ended. INSTR misses = 38, DATA misses = 63. Winner = INSTR
[DUEL] Epoch ended. INSTR misses = 48, DATA misses = 43. Winner = DATA
[DUEL] Epoch ended. INSTR misses = 46, DATA misses = 50. Winner = INSTR
[DUEL] Epoch ended. INSTR misses = 55, DATA misses = 41. Winner = DATA
[DUEL] Epoch ended. INSTR misses = 72, DATA misses = 38. Winner = DATA
[DUEL] Epoch ended. INSTR misses = 56, DATA misses = 59. Winner = INSTR
[DUEL] Epoch ended. INSTR misses = 38, DATA misses = 61. Winner = INSTR
[DUEL] Epoch ended. INSTR misses = 80, DATA misses = 55. Winner = DATA
[DUEL] Epoch ended. INSTR misses = 67, DATA misses = 42. Winner = DATA
[DUEL] Epoch ended. INSTR misses = 64, DATA misses = 44. Winner = DATA
[DUEL] Epoch ended. INSTR misses = 51, DATA misses = 49. Winner = DATA
[DUEL] Epoch ended. INSTR misses = 40, DATA misses = 44. Winner = INSTR
[DUEL] Epoch ended. INSTR misses = 72, DATA misses = 53. Winner = DATA
[DUEL] Epoch ended. INSTR misses = 78, DATA misses = 39. Winner = DATA
[DUEL] Epoch ended. INSTR misses = 63, DATA misses = 73. Winner = INSTR
[DUEL] Epoch ended. INSTR misses = 58, DATA misses = 50. Winner = DATA
[DUEL] Epoch ended. INSTR misses = 58, DATA misses = 100. Winner = INSTR
[DUEL] Epoch ended. INSTR misses = 63, DATA misses = 75. Winner = INSTR
[DUEL] Epoch ended. INSTR misses = 88, DATA misses = 64. Winner = DATA
[DUEL] Epoch ended. INSTR misses = 68, DATA misses = 72. Winner = INSTR
[DUEL] Epoch ended. INSTR misses = 90, DATA misses = 62. Winner = DATA
[DUEL] Epoch ended. INSTR misses = 84, DATA misses = 63. Winner = DATA
[DUEL] Epoch ended. INSTR misses = 50, DATA misses = 85. Winner = INSTR
[DUEL] Epoch ended. INSTR misses = 73, DATA misses = 72. Winner = DATA
[DUEL] Epoch ended. INSTR misses = 50, DATA misses = 65. Winner = INSTR
[DUEL] Epoch ended. INSTR misses = 47, DATA misses = 43. Winner = DATA
[DUEL] Epoch ended. INSTR misses = 41, DATA misses = 46. Winner = INSTR
[DUEL] Epoch ended. INSTR misses = 61, DATA misses = 41. Winner = DATA
[DUEL] Epoch ended. INSTR misses = 52, DATA misses = 52. Winner = INSTR
[DUEL] Epoch ended. INSTR misses = 47, DATA misses = 53. Winner = INSTR
[DUEL] Epoch ended. INSTR misses = 66, DATA misses = 47. Winner = DATA
[DUEL] Epoch ended. INSTR misses = 67, DATA misses = 43. Winner = DATA
[DUEL] Epoch ended. INSTR misses = 45, DATA misses = 58. Winner = INSTR
[DUEL] Epoch ended. INSTR misses = 56, DATA misses = 46. Winner = DATA
[DUEL] Epoch ended. INSTR misses = 44, DATA misses = 46. Winner = INSTR
[DUEL] Epoch ended. INSTR misses = 57, DATA misses = 65. Winner = INSTR
Heartbeat CPU 0 instructions: 40000006 cycles: 19255147 heartbeat IPC: 0.7041 cumulative IPC: 0.7041 (Simulation time: 00 hr 03 min 31 sec)
[DUEL] Epoch ended. INSTR misses = 50, DATA misses = 51. Winner = INSTR
[DUEL] Epoch ended. INSTR misses = 51, DATA misses = 63. Winner = INSTR
[DUEL] Epoch ended. INSTR misses = 48, DATA misses = 46. Winner = DATA
[DUEL] Epoch ended. INSTR misses = 68, DATA misses = 66. Winner = DATA
[DUEL] Epoch ended. INSTR misses = 61, DATA misses = 58. Winner = DATA
[DUEL] Epoch ended. INSTR misses = 64, DATA misses = 91. Winner = INSTR
[DUEL] Epoch ended. INSTR misses = 75, DATA misses = 74. Winner = DATA
[DUEL] Epoch ended. INSTR misses = 83, DATA misses = 90. Winner = INSTR
[DUEL] Epoch ended. INSTR misses = 75, DATA misses = 40. Winner = DATA
[DUEL] Epoch ended. INSTR misses = 82, DATA misses = 47. Winner = DATA
[DUEL] Epoch ended. INSTR misses = 60, DATA misses = 62. Winner = INSTR
[DUEL] Epoch ended. INSTR misses = 51, DATA misses = 44. Winner = DATA
[DUEL] Epoch ended. INSTR misses = 46, DATA misses = 48. Winner = INSTR
[DUEL] Epoch ended. INSTR misses = 37, DATA misses = 65. Winner = INSTR
[DUEL] Epoch ended. INSTR misses = 34, DATA misses = 66. Winner = INSTR
[DUEL] Epoch ended. INSTR misses = 76, DATA misses = 79. Winner = INSTR
[DUEL] Epoch ended. INSTR misses = 60, DATA misses = 68. Winner = INSTR
[DUEL] Epoch ended. INSTR misses = 54, DATA misses = 57. Winner = INSTR
[DUEL] Epoch ended. INSTR misses = 57, DATA misses = 39. Winner = DATA
[DUEL] Epoch ended. INSTR misses = 58, DATA misses = 57. Winner = DATA
[DUEL] Epoch ended. INSTR misses = 41, DATA misses = 71. Winner = INSTR
[DUEL] Epoch ended. INSTR misses = 95, DATA misses = 84. Winner = DATA
[DUEL] Epoch ended. INSTR misses = 75, DATA misses = 70. Winner = DATA
[DUEL] Epoch ended. INSTR misses = 66, DATA misses = 56. Winner = DATA
[DUEL] Epoch ended. INSTR misses = 47, DATA misses = 36. Winner = DATA
[DUEL] Epoch ended. INSTR misses = 55, DATA misses = 61. Winner = INSTR
[DUEL] Epoch ended. INSTR misses = 73, DATA misses = 66. Winner = DATA
[DUEL] Epoch ended. INSTR misses = 75, DATA misses = 82. Winner = INSTR
[DUEL] Epoch ended. INSTR misses = 56, DATA misses = 54. Winner = DATA
[DUEL] Epoch ended. INSTR misses = 56, DATA misses = 59. Winner = INSTR
[DUEL] Epoch ended. INSTR misses = 46, DATA misses = 42. Winner = DATA
[DUEL] Epoch ended. INSTR misses = 37, DATA misses = 70. Winner = INSTR
[DUEL] Epoch ended. INSTR misses = 44, DATA misses = 56. Winner = INSTR
[DUEL] Epoch ended. INSTR misses = 64, DATA misses = 74. Winner = INSTR
[DUEL] Epoch ended. INSTR misses = 93, DATA misses = 58. Winner = DATA
[DUEL] Epoch ended. INSTR misses = 70, DATA misses = 60. Winner = DATA
[DUEL] Epoch ended. INSTR misses = 71, DATA misses = 59. Winner = DATA
[DUEL] Epoch ended. INSTR misses = 54, DATA misses = 62. Winner = INSTR
[DUEL] Epoch ended. INSTR misses = 54, DATA misses = 46. Winner = DATA
Heartbeat CPU 0 instructions: 50000008 cycles: 33300567 heartbeat IPC: 0.712 cumulative IPC: 0.708 (Simulation time: 00 hr 05 min 32 sec)
[DUEL] Epoch ended. INSTR misses = 80, DATA misses = 53. Winner = DATA
[DUEL] Epoch ended. INSTR misses = 62, DATA misses = 21. Winner = DATA
[DUEL] Epoch ended. INSTR misses = 66, DATA misses = 28. Winner = DATA
[DUEL] Epoch ended. INSTR misses = 66, DATA misses = 80. Winner = INSTR
[DUEL] Epoch ended. INSTR misses = 43, DATA misses = 60. Winner = INSTR
[DUEL] Epoch ended. INSTR misses = 78, DATA misses = 56. Winner = DATA
[DUEL] Epoch ended. INSTR misses = 110, DATA misses = 61. Winner = DATA
[DUEL] Epoch ended. INSTR misses = 46, DATA misses = 74. Winner = INSTR
[DUEL] Epoch ended. INSTR misses = 50, DATA misses = 66. Winner = INSTR
[DUEL] Epoch ended. INSTR misses = 78, DATA misses = 43. Winner = DATA
[DUEL] Epoch ended. INSTR misses = 68, DATA misses = 50. Winner = DATA
[DUEL] Epoch ended. INSTR misses = 66, DATA misses = 75. Winner = INSTR
[DUEL] Epoch ended. INSTR misses = 16, DATA misses = 75. Winner = INSTR
[DUEL] Epoch ended. INSTR misses = 59, DATA misses = 90. Winner = INSTR
[DUEL] Epoch ended. INSTR misses = 52, DATA misses = 65. Winner = INSTR
[DUEL] Epoch ended. INSTR misses = 68, DATA misses = 50. Winner = DATA
[DUEL] Epoch ended. INSTR misses = 60, DATA misses = 72. Winner = INSTR
[DUEL] Epoch ended. INSTR misses = 64, DATA misses = 44. Winner = DATA
[DUEL] Epoch ended. INSTR misses = 73, DATA misses = 43. Winner = DATA
[DUEL] Epoch ended. INSTR misses = 48, DATA misses = 51. Winner = INSTR
[DUEL] Epoch ended. INSTR misses = 140, DATA misses = 183. Winner = INSTR
[DUEL] Epoch ended. INSTR misses = 354, DATA misses = 339. Winner = DATA
[DUEL] Epoch ended. INSTR misses = 293, DATA misses = 268. Winner = DATA
[DUEL] Epoch ended. INSTR misses = 302, DATA misses = 303. Winner = INSTR
[DUEL] Epoch ended. INSTR misses = 310, DATA misses = 302. Winner = DATA
[DUEL] Epoch ended. INSTR misses = 360, DATA misses = 330. Winner = DATA
[DUEL] Epoch ended. INSTR misses = 73, DATA misses = 79. Winner = INSTR
[DUEL] Epoch ended. INSTR misses = 82, DATA misses = 31. Winner = DATA
[DUEL] Epoch ended. INSTR misses = 61, DATA misses = 73. Winner = INSTR
[DUEL] Epoch ended. INSTR misses = 61, DATA misses = 60. Winner = DATA
[DUEL] Epoch ended. INSTR misses = 62, DATA misses = 78. Winner = INSTR
[DUEL] Epoch ended. INSTR misses = 61, DATA misses = 72. Winner = INSTR
[DUEL] Epoch ended. INSTR misses = 65, DATA misses = 67. Winner = INSTR
[DUEL] Epoch ended. INSTR misses = 85, DATA misses = 65. Winner = DATA
[DUEL] Epoch ended. INSTR misses = 70, DATA misses = 78. Winner = INSTR
[DUEL] Epoch ended. INSTR misses = 72, DATA misses = 52. Winner = DATA
[DUEL] Epoch ended. INSTR misses = 75, DATA misses = 64. Winner = DATA
[DUEL] Epoch ended. INSTR misses = 70, DATA misses = 54. Winner = DATA
[DUEL] Epoch ended. INSTR misses = 88, DATA misses = 67. Winner = DATA
Heartbeat CPU 0 instructions: 60000011 cycles: 54551679 heartbeat IPC: 0.4706 cumulative IPC: 0.6061 (Simulation time: 00 hr 08 min 34 sec)
[DUEL] Epoch ended. INSTR misses = 49, DATA misses = 82. Winner = INSTR
[DUEL] Epoch ended. INSTR misses = 93, DATA misses = 65. Winner = DATA
[DUEL] Epoch ended. INSTR misses = 67, DATA misses = 46. Winner = DATA
[DUEL] Epoch ended. INSTR misses = 84, DATA misses = 76. Winner = DATA
[DUEL] Epoch ended. INSTR misses = 57, DATA misses = 63. Winner = INSTR
[DUEL] Epoch ended. INSTR misses = 88, DATA misses = 89. Winner = INSTR
[DUEL] Epoch ended. INSTR misses = 69, DATA misses = 51. Winner = DATA
[DUEL] Epoch ended. INSTR misses = 94, DATA misses = 78. Winner = DATA
[DUEL] Epoch ended. INSTR misses = 76, DATA misses = 53. Winner = DATA
[DUEL] Epoch ended. INSTR misses = 70, DATA misses = 85. Winner = INSTR
[DUEL] Epoch ended. INSTR misses = 40, DATA misses = 61. Winner = INSTR
[DUEL] Epoch ended. INSTR misses = 58, DATA misses = 69. Winner = INSTR
[DUEL] Epoch ended. INSTR misses = 77, DATA misses = 81. Winner = INSTR
[DUEL] Epoch ended. INSTR misses = 66, DATA misses = 69. Winner = INSTR
[DUEL] Epoch ended. INSTR misses = 85, DATA misses = 70. Winner = DATA
[DUEL] Epoch ended. INSTR misses = 61, DATA misses = 83. Winner = INSTR
[DUEL] Epoch ended. INSTR misses = 93, DATA misses = 56. Winner = DATA
[DUEL] Epoch ended. INSTR misses = 43, DATA misses = 60. Winner = INSTR
[DUEL] Epoch ended. INSTR misses = 84, DATA misses = 86. Winner = INSTR
[DUEL] Epoch ended. INSTR misses = 58, DATA misses = 62. Winner = INSTR
[DUEL] Epoch ended. INSTR misses = 77, DATA misses = 80. Winner = INSTR
[DUEL] Epoch ended. INSTR misses = 41, DATA misses = 101. Winner = INSTR
[DUEL] Epoch ended. INSTR misses = 83, DATA misses = 78. Winner = DATA
[DUEL] Epoch ended. INSTR misses = 85, DATA misses = 60. Winner = DATA
[DUEL] Epoch ended. INSTR misses = 78, DATA misses = 74. Winner = DATA
[DUEL] Epoch ended. INSTR misses = 74, DATA misses = 57. Winner = DATA
[DUEL] Epoch ended. INSTR misses = 57, DATA misses = 73. Winner = INSTR
[DUEL] Epoch ended. INSTR misses = 59, DATA misses = 48. Winner = DATA
[DUEL] Epoch ended. INSTR misses = 69, DATA misses = 97. Winner = INSTR
[DUEL] Epoch ended. INSTR misses = 73, DATA misses = 81. Winner = INSTR
[DUEL] Epoch ended. INSTR misses = 82, DATA misses = 79. Winner = DATA
[DUEL] Epoch ended. INSTR misses = 50, DATA misses = 56. Winner = INSTR
[DUEL] Epoch ended. INSTR misses = 77, DATA misses = 77. Winner = INSTR
[DUEL] Epoch ended. INSTR misses = 69, DATA misses = 57. Winner = DATA
[DUEL] Epoch ended. INSTR misses = 95, DATA misses = 77. Winner = DATA
[DUEL] Epoch ended. INSTR misses = 46, DATA misses = 42. Winner = DATA
[DUEL] Epoch ended. INSTR misses = 59, DATA misses = 65. Winner = INSTR
[DUEL] Epoch ended. INSTR misses = 84, DATA misses = 60. Winner = DATA
[DUEL] Epoch ended. INSTR misses = 81, DATA misses = 54. Winner = DATA
Heartbeat CPU 0 instructions: 70000002 cycles: 70799784 heartbeat IPC: 0.6155 cumulative IPC: 0.6084 (Simulation time: 00 hr 10 min 52 sec)
[DUEL] Epoch ended. INSTR misses = 91, DATA misses = 60. Winner = DATA
[DUEL] Epoch ended. INSTR misses = 59, DATA misses = 55. Winner = DATA
[DUEL] Epoch ended. INSTR misses = 79, DATA misses = 65. Winner = DATA
[DUEL] Epoch ended. INSTR misses = 81, DATA misses = 39. Winner = DATA
[DUEL] Epoch ended. INSTR misses = 69, DATA misses = 64. Winner = DATA
[DUEL] Epoch ended. INSTR misses = 55, DATA misses = 62. Winner = INSTR
[DUEL] Epoch ended. INSTR misses = 58, DATA misses = 92. Winner = INSTR
[DUEL] Epoch ended. INSTR misses = 57, DATA misses = 71. Winner = INSTR
[DUEL] Epoch ended. INSTR misses = 73, DATA misses = 80. Winner = INSTR
[DUEL] Epoch ended. INSTR misses = 71, DATA misses = 43. Winner = DATA
[DUEL] Epoch ended. INSTR misses = 77, DATA misses = 68. Winner = DATA
[DUEL] Epoch ended. INSTR misses = 67, DATA misses = 54. Winner = DATA
[DUEL] Epoch ended. INSTR misses = 56, DATA misses = 102. Winner = INSTR
[DUEL] Epoch ended. INSTR misses = 51, DATA misses = 63. Winner = INSTR
[DUEL] Epoch ended. INSTR misses = 75, DATA misses = 85. Winner = INSTR
[DUEL] Epoch ended. INSTR misses = 84, DATA misses = 50. Winner = DATA
[DUEL] Epoch ended. INSTR misses = 93, DATA misses = 54. Winner = DATA
[DUEL] Epoch ended. INSTR misses = 55, DATA misses = 62. Winner = INSTR
[DUEL] Epoch ended. INSTR misses = 71, DATA misses = 38. Winner = DATA
[DUEL] Epoch ended. INSTR misses = 59, DATA misses = 81. Winner = INSTR
[DUEL] Epoch ended. INSTR misses = 92, DATA misses = 66. Winner = DATA
[DUEL] Epoch ended. INSTR misses = 71, DATA misses = 73. Winner = INSTR
[DUEL] Epoch ended. INSTR misses = 63, DATA misses = 71. Winner = INSTR
[DUEL] Epoch ended. INSTR misses = 78, DATA misses = 74. Winner = DATA
[DUEL] Epoch ended. INSTR misses = 60, DATA misses = 60. Winner = INSTR
[DUEL] Epoch ended. INSTR misses = 62, DATA misses = 88. Winner = INSTR
[DUEL] Epoch ended. INSTR misses = 77, DATA misses = 43. Winner = DATA
[DUEL] Epoch ended. INSTR misses = 55, DATA misses = 87. Winner = INSTR
[DUEL] Epoch ended. INSTR misses = 53, DATA misses = 52. Winner = DATA
[DUEL] Epoch ended. INSTR misses = 84, DATA misses = 73. Winner = DATA
[DUEL] Epoch ended. INSTR misses = 91, DATA misses = 44. Winner = DATA
[DUEL] Epoch ended. INSTR misses = 105, DATA misses = 65. Winner = DATA
[DUEL] Epoch ended. INSTR misses = 54, DATA misses = 47. Winner = DATA
[DUEL] Epoch ended. INSTR misses = 78, DATA misses = 80. Winner = INSTR
[DUEL] Epoch ended. INSTR misses = 54, DATA misses = 54. Winner = INSTR
[DUEL] Epoch ended. INSTR misses = 74, DATA misses = 92. Winner = INSTR
[DUEL] Epoch ended. INSTR misses = 39, DATA misses = 63. Winner = INSTR
[DUEL] Epoch ended. INSTR misses = 72, DATA misses = 81. Winner = INSTR
[DUEL] Epoch ended. INSTR misses = 65, DATA misses = 52. Winner = DATA
Heartbeat CPU 0 instructions: 80000001 cycles: 86814140 heartbeat IPC: 0.6244 cumulative IPC: 0.6115 (Simulation time: 00 hr 13 min 09 sec)
[DUEL] Epoch ended. INSTR misses = 90, DATA misses = 60. Winner = DATA
[DUEL] Epoch ended. INSTR misses = 46, DATA misses = 78. Winner = INSTR
[DUEL] Epoch ended. INSTR misses = 53, DATA misses = 49. Winner = DATA
[DUEL] Epoch ended. INSTR misses = 87, DATA misses = 71. Winner = DATA
[DUEL] Epoch ended. INSTR misses = 79, DATA misses = 46. Winner = DATA
[DUEL] Epoch ended. INSTR misses = 63, DATA misses = 73. Winner = INSTR
[DUEL] Epoch ended. INSTR misses = 46, DATA misses = 66. Winner = INSTR
[DUEL] Epoch ended. INSTR misses = 76, DATA misses = 77. Winner = INSTR
[DUEL] Epoch ended. INSTR misses = 60, DATA misses = 62. Winner = INSTR
[DUEL] Epoch ended. INSTR misses = 86, DATA misses = 79. Winner = DATA
[DUEL] Epoch ended. INSTR misses = 60, DATA misses = 80. Winner = INSTR
[DUEL] Epoch ended. INSTR misses = 70, DATA misses = 99. Winner = INSTR
[DUEL] Epoch ended. INSTR misses = 52, DATA misses = 84. Winner = INSTR
[DUEL] Epoch ended. INSTR misses = 86, DATA misses = 49. Winner = DATA
[DUEL] Epoch ended. INSTR misses = 86, DATA misses = 44. Winner = DATA
[DUEL] Epoch ended. INSTR misses = 68, DATA misses = 86. Winner = INSTR
[DUEL] Epoch ended. INSTR misses = 51, DATA misses = 65. Winner = INSTR
[DUEL] Epoch ended. INSTR misses = 94, DATA misses = 74. Winner = DATA
[DUEL] Epoch ended. INSTR misses = 67, DATA misses = 46. Winner = DATA
[DUEL] Epoch ended. INSTR misses = 94, DATA misses = 44. Winner = DATA
[DUEL] Epoch ended. INSTR misses = 77, DATA misses = 55. Winner = DATA
[DUEL] Epoch ended. INSTR misses = 69, DATA misses = 94. Winner = INSTR
[DUEL] Epoch ended. INSTR misses = 64, DATA misses = 52. Winner = DATA
[DUEL] Epoch ended. INSTR misses = 102, DATA misses = 42. Winner = DATA
[DUEL] Epoch ended. INSTR misses = 38, DATA misses = 100. Winner = INSTR
[DUEL] Epoch ended. INSTR misses = 84, DATA misses = 78. Winner = DATA
[DUEL] Epoch ended. INSTR misses = 86, DATA misses = 28. Winner = DATA
[DUEL] Epoch ended. INSTR misses = 62, DATA misses = 54. Winner = DATA
[DUEL] Epoch ended. INSTR misses = 51, DATA misses = 106. Winner = INSTR
[DUEL] Epoch ended. INSTR misses = 45, DATA misses = 67. Winner = INSTR
[DUEL] Epoch ended. INSTR misses = 83, DATA misses = 101. Winner = INSTR
[DUEL] Epoch ended. INSTR misses = 76, DATA misses = 42. Winner = DATA
[DUEL] Epoch ended. INSTR misses = 82, DATA misses = 83. Winner = INSTR
[DUEL] Epoch ended. INSTR misses = 92, DATA misses = 70. Winner = DATA
[DUEL] Epoch ended. INSTR misses = 63, DATA misses = 51. Winner = DATA
[DUEL] Epoch ended. INSTR misses = 60, DATA misses = 98. Winner = INSTR
[DUEL] Epoch ended. INSTR misses = 42, DATA misses = 47. Winner = INSTR
[DUEL] Epoch ended. INSTR misses = 33, DATA misses = 45. Winner = INSTR
[DUEL] Epoch ended. INSTR misses = 20, DATA misses = 22. Winner = INSTR
Heartbeat CPU 0 instructions: 90000000 cycles: 102704786 heartbeat IPC: 0.6293 cumulative IPC: 0.6144 (Simulation time: 00 hr 15 min 24 sec)
[DUEL] Epoch ended. INSTR misses = 112, DATA misses = 106. Winner = DATA
[DUEL] Epoch ended. INSTR misses = 63, DATA misses = 82. Winner = INSTR
[DUEL] Epoch ended. INSTR misses = 89, DATA misses = 78. Winner = DATA
[DUEL] Epoch ended. INSTR misses = 101, DATA misses = 104. Winner = INSTR
[DUEL] Epoch ended. INSTR misses = 82, DATA misses = 75. Winner = DATA
[DUEL] Epoch ended. INSTR misses = 79, DATA misses = 78. Winner = DATA
[DUEL] Epoch ended. INSTR misses = 76, DATA misses = 80. Winner = INSTR
[DUEL] Epoch ended. INSTR misses = 66, DATA misses = 64. Winner = DATA
[DUEL] Epoch ended. INSTR misses = 48, DATA misses = 48. Winner = INSTR
[DUEL] Epoch ended. INSTR misses = 50, DATA misses = 43. Winner = DATA
[DUEL] Epoch ended. INSTR misses = 85, DATA misses = 69. Winner = DATA
[DUEL] Epoch ended. INSTR misses = 76, DATA misses = 70. Winner = DATA
[DUEL] Epoch ended. INSTR misses = 53, DATA misses = 64. Winner = INSTR
[DUEL] Epoch ended. INSTR misses = 54, DATA misses = 63. Winner = INSTR
[DUEL] Epoch ended. INSTR misses = 98, DATA misses = 110. Winner = INSTR
[DUEL] Epoch ended. INSTR misses = 18, DATA misses = 31. Winner = INSTR
[DUEL] Epoch ended. INSTR misses = 20, DATA misses = 17. Winner = DATA
[DUEL] Epoch ended. INSTR misses = 106, DATA misses = 94. Winner = DATA
[DUEL] Epoch ended. INSTR misses = 64, DATA misses = 78. Winner = INSTR
[DUEL] Epoch ended. INSTR misses = 99, DATA misses = 92. Winner = DATA
[DUEL] Epoch ended. INSTR misses = 71, DATA misses = 76. Winner = INSTR
[DUEL] Epoch ended. INSTR misses = 68, DATA misses = 87. Winner = INSTR
[DUEL] Epoch ended. INSTR misses = 91, DATA misses = 84. Winner = DATA
[DUEL] Epoch ended. INSTR misses = 94, DATA misses = 96. Winner = INSTR
[DUEL] Epoch ended. INSTR misses = 65, DATA misses = 64. Winner = DATA
[DUEL] Epoch ended. INSTR misses = 71, DATA misses = 48. Winner = DATA
[DUEL] Epoch ended. INSTR misses = 59, DATA misses = 62. Winner = INSTR
[DUEL] Epoch ended. INSTR misses = 54, DATA misses = 60. Winner = INSTR
[DUEL] Epoch ended. INSTR misses = 76, DATA misses = 84. Winner = INSTR
[DUEL] Epoch ended. INSTR misses = 68, DATA misses = 111. Winner = INSTR
[DUEL] Epoch ended. INSTR misses = 68, DATA misses = 42. Winner = DATA
[DUEL] Epoch ended. INSTR misses = 64, DATA misses = 64. Winner = INSTR
[DUEL] Epoch ended. INSTR misses = 59, DATA misses = 64. Winner = INSTR
[DUEL] Epoch ended. INSTR misses = 93, DATA misses = 63. Winner = DATA
[DUEL] Epoch ended. INSTR misses = 65, DATA misses = 57. Winner = DATA
[DUEL] Epoch ended. INSTR misses = 35, DATA misses = 66. Winner = INSTR
[DUEL] Epoch ended. INSTR misses = 53, DATA misses = 50. Winner = DATA
[DUEL] Epoch ended. INSTR misses = 73, DATA misses = 68. Winner = DATA
[DUEL] Epoch ended. INSTR misses = 79, DATA misses = 75. Winner = DATA
Heartbeat CPU 0 instructions: 100000009 cycles: 119466240 heartbeat IPC: 0.5966 cumulative IPC: 0.6118 (Simulation time: 00 hr 17 min 44 sec)
*** Reached end of trace: (0, "../traces/secret_traces/compute_fp/compute_fp_45.champsimtrace.xz")
[DUEL] Epoch ended. INSTR misses = 59, DATA misses = 59. Winner = INSTR
[DUEL] Epoch ended. INSTR misses = 42, DATA misses = 46. Winner = INSTR
[DUEL] Epoch ended. INSTR misses = 45, DATA misses = 35. Winner = DATA
[DUEL] Epoch ended. INSTR misses = 50, DATA misses = 34. Winner = DATA
[DUEL] Epoch ended. INSTR misses = 61, DATA misses = 59. Winner = DATA
[DUEL] Epoch ended. INSTR misses = 65, DATA misses = 64. Winner = DATA
[DUEL] Epoch ended. INSTR misses = 60, DATA misses = 59. Winner = DATA
[DUEL] Epoch ended. INSTR misses = 118, DATA misses = 126. Winner = INSTR
[DUEL] Epoch ended. INSTR misses = 71, DATA misses = 69. Winner = DATA
[DUEL] Epoch ended. INSTR misses = 77, DATA misses = 71. Winner = DATA
[DUEL] Epoch ended. INSTR misses = 107, DATA misses = 97. Winner = DATA
[DUEL] Epoch ended. INSTR misses = 87, DATA misses = 86. Winner = DATA
[DUEL] Epoch ended. INSTR misses = 71, DATA misses = 66. Winner = DATA
[DUEL] Epoch ended. INSTR misses = 88, DATA misses = 83. Winner = DATA
[DUEL] Epoch ended. INSTR misses = 104, DATA misses = 108. Winner = INSTR
[DUEL] Epoch ended. INSTR misses = 88, DATA misses = 94. Winner = INSTR
[DUEL] Epoch ended. INSTR misses = 72, DATA misses = 78. Winner = INSTR
[DUEL] Epoch ended. INSTR misses = 90, DATA misses = 95. Winner = INSTR
[DUEL] Epoch ended. INSTR misses = 95, DATA misses = 96. Winner = INSTR
[DUEL] Epoch ended. INSTR misses = 107, DATA misses = 109. Winner = INSTR
[DUEL] Epoch ended. INSTR misses = 76, DATA misses = 60. Winner = DATA
[DUEL] Epoch ended. INSTR misses = 55, DATA misses = 60. Winner = INSTR
[DUEL] Epoch ended. INSTR misses = 91, DATA misses = 92. Winner = INSTR
[DUEL] Epoch ended. INSTR misses = 80, DATA misses = 74. Winner = DATA
[DUEL] Epoch ended. INSTR misses = 62, DATA misses = 60. Winner = DATA
[DUEL] Epoch ended. INSTR misses = 80, DATA misses = 76. Winner = DATA
[DUEL] Epoch ended. INSTR misses = 80, DATA misses = 78. Winner = DATA
[DUEL] Epoch ended. INSTR misses = 95, DATA misses = 91. Winner = DATA
[DUEL] Epoch ended. INSTR misses = 81, DATA misses = 78. Winner = DATA
[DUEL] Epoch ended. INSTR misses = 93, DATA misses = 91. Winner = DATA
[DUEL] Epoch ended. INSTR misses = 79, DATA misses = 75. Winner = DATA
[DUEL] Epoch ended. INSTR misses = 92, DATA misses = 89. Winner = DATA
[DUEL] Epoch ended. INSTR misses = 92, DATA misses = 92. Winner = INSTR
[DUEL] Epoch ended. INSTR misses = 92, DATA misses = 92. Winner = INSTR
[DUEL] Epoch ended. INSTR misses = 83, DATA misses = 79. Winner = DATA
[DUEL] Epoch ended. INSTR misses = 92, DATA misses = 95. Winner = INSTR
[DUEL] Epoch ended. INSTR misses = 72, DATA misses = 79. Winner = INSTR
[DUEL] Epoch ended. INSTR misses = 63, DATA misses = 62. Winner = DATA
[DUEL] Epoch ended. INSTR misses = 77, DATA misses = 80. Winner = INSTR
Heartbeat CPU 0 instructions: 110000003 cycles: 137665319 heartbeat IPC: 0.5495 cumulative IPC: 0.6033 (Simulation time: 00 hr 20 min 16 sec)
[DUEL] Epoch ended. INSTR misses = 90, DATA misses = 95. Winner = INSTR
[DUEL] Epoch ended. INSTR misses = 80, DATA misses = 80. Winner = INSTR
[DUEL] Epoch ended. INSTR misses = 80, DATA misses = 76. Winner = DATA
[DUEL] Epoch ended. INSTR misses = 65, DATA misses = 62. Winner = DATA
[DUEL] Epoch ended. INSTR misses = 80, DATA misses = 78. Winner = DATA
[DUEL] Epoch ended. INSTR misses = 96, DATA misses = 92. Winner = DATA
[DUEL] Epoch ended. INSTR misses = 85, DATA misses = 78. Winner = DATA
[DUEL] Epoch ended. INSTR misses = 93, DATA misses = 92. Winner = DATA
[DUEL] Epoch ended. INSTR misses = 64, DATA misses = 64. Winner = INSTR
[DUEL] Epoch ended. INSTR misses = 121, DATA misses = 107. Winner = DATA
[DUEL] Epoch ended. INSTR misses = 93, DATA misses = 101. Winner = INSTR
[DUEL] Epoch ended. INSTR misses = 75, DATA misses = 75. Winner = INSTR
[DUEL] Epoch ended. INSTR misses = 65, DATA misses = 78. Winner = INSTR
[DUEL] Epoch ended. INSTR misses = 88, DATA misses = 80. Winner = DATA
[DUEL] Epoch ended. INSTR misses = 109, DATA misses = 124. Winner = INSTR
[DUEL] Epoch ended. INSTR misses = 88, DATA misses = 99. Winner = INSTR
[DUEL] Epoch ended. INSTR misses = 79, DATA misses = 78. Winner = DATA
[DUEL] Epoch ended. INSTR misses = 89, DATA misses = 79. Winner = DATA
[DUEL] Epoch ended. INSTR misses = 100, DATA misses = 110. Winner = INSTR
[DUEL] Epoch ended. INSTR misses = 80, DATA misses = 80. Winner = INSTR
[DUEL] Epoch ended. INSTR misses = 81, DATA misses = 78. Winner = DATA
[DUEL] Epoch ended. INSTR misses = 63, DATA misses = 62. Winner = DATA
[DUEL] Epoch ended. INSTR misses = 84, DATA misses = 85. Winner = INSTR
[DUEL] Epoch ended. INSTR misses = 96, DATA misses = 94. Winner = DATA
[DUEL] Epoch ended. INSTR misses = 91, DATA misses = 97. Winner = INSTR
[DUEL] Epoch ended. INSTR misses = 78, DATA misses = 78. Winner = INSTR
[DUEL] Epoch ended. INSTR misses = 85, DATA misses = 78. Winner = DATA
[DUEL] Epoch ended. INSTR misses = 110, DATA misses = 108. Winner = DATA
[DUEL] Epoch ended. INSTR misses = 79, DATA misses = 79. Winner = INSTR
[DUEL] Epoch ended. INSTR misses = 96, DATA misses = 97. Winner = INSTR
[DUEL] Epoch ended. INSTR misses = 82, DATA misses = 78. Winner = DATA
[DUEL] Epoch ended. INSTR misses = 87, DATA misses = 74. Winner = DATA
[DUEL] Epoch ended. INSTR misses = 112, DATA misses = 83. Winner = DATA
[DUEL] Epoch ended. INSTR misses = 65, DATA misses = 51. Winner = DATA
[DUEL] Epoch ended. INSTR misses = 66, DATA misses = 54. Winner = DATA
[DUEL] Epoch ended. INSTR misses = 35, DATA misses = 49. Winner = INSTR
[DUEL] Epoch ended. INSTR misses = 50, DATA misses = 44. Winner = DATA
[DUEL] Epoch ended. INSTR misses = 64, DATA misses = 76. Winner = INSTR
[DUEL] Epoch ended. INSTR misses = 44, DATA misses = 59. Winner = INSTR
Heartbeat CPU 0 instructions: 120000006 cycles: 154882666 heartbeat IPC: 0.5808 cumulative IPC: 0.6007 (Simulation time: 00 hr 22 min 44 sec)
[DUEL] Epoch ended. INSTR misses = 57, DATA misses = 50. Winner = DATA
[DUEL] Epoch ended. INSTR misses = 43, DATA misses = 62. Winner = INSTR
[DUEL] Epoch ended. INSTR misses = 54, DATA misses = 40. Winner = DATA
[DUEL] Epoch ended. INSTR misses = 95, DATA misses = 77. Winner = DATA
[DUEL] Epoch ended. INSTR misses = 101, DATA misses = 62. Winner = DATA
[DUEL] Epoch ended. INSTR misses = 49, DATA misses = 54. Winner = INSTR
[DUEL] Epoch ended. INSTR misses = 68, DATA misses = 53. Winner = DATA
[DUEL] Epoch ended. INSTR misses = 41, DATA misses = 59. Winner = INSTR
[DUEL] Epoch ended. INSTR misses = 83, DATA misses = 67. Winner = DATA
[DUEL] Epoch ended. INSTR misses = 92, DATA misses = 63. Winner = DATA
[DUEL] Epoch ended. INSTR misses = 68, DATA misses = 78. Winner = INSTR
[DUEL] Epoch ended. INSTR misses = 47, DATA misses = 50. Winner = INSTR
[DUEL] Epoch ended. INSTR misses = 68, DATA misses = 41. Winner = DATA
[DUEL] Epoch ended. INSTR misses = 50, DATA misses = 55. Winner = INSTR
[DUEL] Epoch ended. INSTR misses = 74, DATA misses = 69. Winner = DATA
[DUEL] Epoch ended. INSTR misses = 33, DATA misses = 49. Winner = INSTR
[DUEL] Epoch ended. INSTR misses = 62, DATA misses = 49. Winner = DATA
[DUEL] Epoch ended. INSTR misses = 48, DATA misses = 55. Winner = INSTR
[DUEL] Epoch ended. INSTR misses = 59, DATA misses = 58. Winner = DATA
[DUEL] Epoch ended. INSTR misses = 66, DATA misses = 77. Winner = INSTR
[DUEL] Epoch ended. INSTR misses = 60, DATA misses = 57. Winner = DATA
[DUEL] Epoch ended. INSTR misses = 55, DATA misses = 65. Winner = INSTR
[DUEL] Epoch ended. INSTR misses = 46, DATA misses = 53. Winner = INSTR
[DUEL] Epoch ended. INSTR misses = 42, DATA misses = 41. Winner = DATA
[DUEL] Epoch ended. INSTR misses = 46, DATA misses = 58. Winner = INSTR
[DUEL] Epoch ended. INSTR misses = 53, DATA misses = 41. Winner = DATA
[DUEL] Epoch ended. INSTR misses = 84, DATA misses = 72. Winner = DATA
[DUEL] Epoch ended. INSTR misses = 72, DATA misses = 92. Winner = INSTR
[DUEL] Epoch ended. INSTR misses = 64, DATA misses = 73. Winner = INSTR
[DUEL] Epoch ended. INSTR misses = 39, DATA misses = 53. Winner = INSTR
[DUEL] Epoch ended. INSTR misses = 61, DATA misses = 31. Winner = DATA
[DUEL] Epoch ended. INSTR misses = 31, DATA misses = 66. Winner = INSTR
[DUEL] Epoch ended. INSTR misses = 62, DATA misses = 79. Winner = INSTR
[DUEL] Epoch ended. INSTR misses = 85, DATA misses = 59. Winner = DATA
[DUEL] Epoch ended. INSTR misses = 54, DATA misses = 58. Winner = INSTR
[DUEL] Epoch ended. INSTR misses = 52, DATA misses = 39. Winner = DATA
[DUEL] Epoch ended. INSTR misses = 47, DATA misses = 38. Winner = DATA
[DUEL] Epoch ended. INSTR misses = 65, DATA misses = 67. Winner = INSTR
[DUEL] Epoch ended. INSTR misses = 94, DATA misses = 95. Winner = INSTR
Heartbeat CPU 0 instructions: 130000001 cycles: 169140558 heartbeat IPC: 0.7014 cumulative IPC: 0.6094 (Simulation time: 00 hr 24 min 46 sec)
Simulation finished CPU 0 instructions: 100000007 cycles: 164088172 cumulative IPC: 0.6094 (Simulation time: 00 hr 24 min 46 sec)
Simulation complete CPU 0 instructions: 100000007 cycles: 164088172 cumulative IPC: 0.6094 (Simulation time: 00 hr 24 min 46 sec)

ChampSim completed all CPUs

=== Simulation ===
CPU 0 runs ../traces/secret_traces/compute_fp/compute_fp_45.champsimtrace.xz
Region of Interest Statistics

CPU 0 cumulative IPC: 0.6094 instructions: 100000007 cycles: 164088172
CPU 0 Branch Prediction Accuracy: 99.37% MPKI: 0.1352 Average ROB Occupancy at Mispredict: 32.12
Branch type MPKI
BRANCH_DIRECT_JUMP: 0.00734
BRANCH_INDIRECT: 0.0665
BRANCH_CONDITIONAL: 0.0272
BRANCH_DIRECT_CALL: 0.0207
BRANCH_INDIRECT_CALL: 0.00222
BRANCH_RETURN: 0.0113

LLC TOTAL        ACCESS:    7205994 HIT:     305013 MISS:    6900981
LLC LOAD         ACCESS:     476531 HIT:       4394 MISS:     472137
LLC RFO          ACCESS:      31565 HIT:       1508 MISS:      30057
LLC PREFETCH     ACCESS:    4564864 HIT:      30987 MISS:    4533877
LLC WRITE        ACCESS:    2097495 HIT:     267938 MISS:    1829557
LLC TRANSLATION  ACCESS:      35539 HIT:        186 MISS:      35353
LLC PREFETCH REQUESTED:          0 ISSUED:          0 USEFUL:          0 USELESS:          0
LLC AVERAGE MISS LATENCY: 629.3 cycles
cpu0_DTLB TOTAL        ACCESS:   23426187 HIT:   22446507 MISS:     979680
cpu0_DTLB LOAD         ACCESS:   23426187 HIT:   22446507 MISS:     979680
cpu0_DTLB RFO          ACCESS:          0 HIT:          0 MISS:          0
cpu0_DTLB PREFETCH     ACCESS:          0 HIT:          0 MISS:          0
cpu0_DTLB WRITE        ACCESS:          0 HIT:          0 MISS:          0
cpu0_DTLB TRANSLATION  ACCESS:          0 HIT:          0 MISS:          0
cpu0_DTLB PREFETCH REQUESTED:          0 ISSUED:          0 USEFUL:          0 USELESS:          0
cpu0_DTLB AVERAGE MISS LATENCY: 61.65 cycles
cpu0_ITLB TOTAL        ACCESS:     120265 HIT:     118686 MISS:       1579
cpu0_ITLB LOAD         ACCESS:     120265 HIT:     118686 MISS:       1579
cpu0_ITLB RFO          ACCESS:          0 HIT:          0 MISS:          0
cpu0_ITLB PREFETCH     ACCESS:          0 HIT:          0 MISS:          0
cpu0_ITLB WRITE        ACCESS:          0 HIT:          0 MISS:          0
cpu0_ITLB TRANSLATION  ACCESS:          0 HIT:          0 MISS:          0
cpu0_ITLB PREFETCH REQUESTED:          0 ISSUED:          0 USEFUL:          0 USELESS:          0
cpu0_ITLB AVERAGE MISS LATENCY: 75.73 cycles
cpu0_L1D TOTAL        ACCESS:   38107953 HIT:   27026818 MISS:   11081135
cpu0_L1D LOAD         ACCESS:   15386924 HIT:   11477974 MISS:    3908950
cpu0_L1D RFO          ACCESS:          0 HIT:          0 MISS:          0
cpu0_L1D PREFETCH     ACCESS:    9716672 HIT:    3530915 MISS:    6185757
cpu0_L1D WRITE        ACCESS:   12607354 HIT:   11940285 MISS:     667069
cpu0_L1D TRANSLATION  ACCESS:     397003 HIT:      77644 MISS:     319359
cpu0_L1D PREFETCH REQUESTED:  162452575 ISSUED:    9716658 USEFUL:    1652133 USELESS:     220917
cpu0_L1D AVERAGE MISS LATENCY: 127.7 cycles
cpu0_L1I TOTAL        ACCESS:     173856 HIT:     136704 MISS:      37152
cpu0_L1I LOAD         ACCESS:      60975 HIT:      49288 MISS:      11687
cpu0_L1I RFO          ACCESS:          0 HIT:          0 MISS:          0
cpu0_L1I PREFETCH     ACCESS:     112881 HIT:      87416 MISS:      25465
cpu0_L1I WRITE        ACCESS:          0 HIT:          0 MISS:          0
cpu0_L1I TRANSLATION  ACCESS:          0 HIT:          0 MISS:          0
cpu0_L1I PREFETCH REQUESTED:     172545 ISSUED:     112881 USEFUL:      13817 USELESS:       9379
cpu0_L1I AVERAGE MISS LATENCY: 146.7 cycles
cpu0_L2C TOTAL        ACCESS:   19495564 HIT:    9435298 MISS:   10060266
cpu0_L2C LOAD         ACCESS:    2632937 HIT:    1407727 MISS:    1225210
cpu0_L2C RFO          ACCESS:     244356 HIT:     181541 MISS:      62815
cpu0_L2C PREFETCH     ACCESS:   14197680 HIT:    5461069 MISS:    8736611
cpu0_L2C WRITE        ACCESS:    2101328 HIT:    2101240 MISS:         88
cpu0_L2C TRANSLATION  ACCESS:     319263 HIT:     283721 MISS:      35542
cpu0_L2C PREFETCH REQUESTED:   12447920 ISSUED:    8574440 USEFUL:    1696470 USELESS:     876804
cpu0_L2C AVERAGE MISS LATENCY: 411 cycles
cpu0_STLB TOTAL        ACCESS:     639313 HIT:     243743 MISS:     395570
cpu0_STLB LOAD         ACCESS:     639313 HIT:     243743 MISS:     395570
cpu0_STLB RFO          ACCESS:          0 HIT:          0 MISS:          0
cpu0_STLB PREFETCH     ACCESS:          0 HIT:          0 MISS:          0
cpu0_STLB WRITE        ACCESS:          0 HIT:          0 MISS:          0
cpu0_STLB TRANSLATION  ACCESS:          0 HIT:          0 MISS:          0
cpu0_STLB PREFETCH REQUESTED:          0 ISSUED:          0 USEFUL:          0 USELESS:          0
cpu0_STLB AVERAGE MISS LATENCY: 199.1 cycles

DRAM Statistics

Channel 0 RQ ROW_BUFFER_HIT:    1104417
  ROW_BUFFER_MISS:    1444615
 AVG DBUS CONGESTED CYCLE: 3.955
WQ ROW_BUFFER_HIT: Channel 0 
  ROW_BUFFER_MISS:      58888
  FULL:     981008

Channel 1 RQ ROW_BUFFER_HIT:    1096762
  ROW_BUFFER_MISS:    1425566
 AVG DBUS CONGESTED CYCLE: 3.952
WQ ROW_BUFFER_HIT: Channel 1 
  ROW_BUFFER_MISS:      62910
  FULL:     976274
BERTI TO_L1: 52669504 TO_L2: 154740755 TO_L2_BC_MSHR: 78828122
BERTI AVG_LAT: 347.874 NUM_TRACK_LATENCY: 5615258 NUM_CANT_TRACK_LATENCY: 1700
BERTI CROSS_PAGE 74849790 NO_CROSS_PAGE: 132560469
BERTI FOUND_BERTI: 34944649 NO_FOUND_BERTI: 7103324
BERTI AVERAGE_ISSUED: 4.08561
CPU 0 L1I Entangling prefetcher final stats
IP accesses: 13b4 4ed00 955 / 88840
IP misses: 13b4 4ed00 952 / 39552
IP hits: 0 0 0 / 0
IP late: 1526 54980 14 / 6016
IP wrong: 2172 85c80 23 / 9325
miss rate: 0.445205
coverage: 0
coverage_late: 0.152104
accuracy: 0
accuracy_late: 0.392152
discarded: 0
evicts entangled j table: 0
evicts entangled k table: 1652
max bb size: 65
formats: 466 0 1388 750 293 709 0 
hist_lookups: 1139 1213 993 918 790 656 548 471 380 291 213 147 75 41 31 0 18 4056 
hist_lookups_evict: 0.150251 %
hist_lookups_shortlat: 33.8565 %
bb_found_hist: 0 14317 6599 2899 1070 662 250 72 47 24 13 4 22 0 3 0 19 0 0 0 0 0 0 0 0 0 0 0 2 0 0 0 0 0 0 0 0 0 0 0 0 0 0 2 0 0 0 0 0 2 0 0 0 0 0 0 0 0 0 0 0 0 0 0 
bb_found_summary: 47422 26007 1.82344
entangled_found_hist: 0 8595 5244 9766 1990 483 49 0 
entangled_found_summary: 59050 26127 2.26012
bb_ent_found_hist: 0 20139 10211 5614 2133 1760 739 297 129 10 35 2 11 0 0 0 3 0 0 0 0 0 0 0 0 0 0 0 2 0 0 0 0 0 0 0 0 0 0 0 0 0 0 11 0 0 0 0 0 2 0 0 0 0 0 0 0 0 0 0 0 0 0 0 
bb_ent_found_summary: 83549 41098 2.03293
