WARNING: physical memory size is smaller than virtual memory size.

*** ChampSim Multicore Out-of-Order Simulator ***
Warmup Instructions: 30000000
Simulation Instructions: 100000000
Number of CPUs: 1
Page size: 4096

BTB:
Basic BTB sets: 1024 ways: 8
Indirect:
history lengths: 0 0 10 16 27 44 60 96 109 219 449 487 714 1313 2146 3881 
ITTAGE tables: 64768 bytes;Region table: 240 bytes;IUM: 384 bytes;Total Storage= 65392 bytes;
RAS:
RAS size: 64
[LLC] INSTR Demand IPV: 1 2 2 1 4 Prefetch IPV: 1 2 1 1 4
[LLC] DATA  Demand IPV: 1 1 1 2 4 Prefetch IPV: 1 1 2 2 4
Berti Prefetcher
CPU 0 Entangling prefetcher
Off-chip DRAM Size: 8 GiB Channels: 2 Width: 64-bit Data Race: 6400 MT/s
[DUEL] Epoch ended. INSTR misses = 9, DATA misses = 5. Winner = DATA
[DUEL] Epoch ended. INSTR misses = 110, DATA misses = 98. Winner = DATA
[DUEL] Epoch ended. INSTR misses = 54, DATA misses = 48. Winner = DATA
[DUEL] Epoch ended. INSTR misses = 29, DATA misses = 28. Winner = DATA
[DUEL] Epoch ended. INSTR misses = 13, DATA misses = 4. Winner = DATA
[DUEL] Epoch ended. INSTR misses = 33, DATA misses = 32. Winner = DATA
[DUEL] Epoch ended. INSTR misses = 29, DATA misses = 17. Winner = DATA
[DUEL] Epoch ended. INSTR misses = 34, DATA misses = 32. Winner = DATA
[DUEL] Epoch ended. INSTR misses = 49, DATA misses = 83. Winner = INSTR
[DUEL] Epoch ended. INSTR misses = 51, DATA misses = 67. Winner = INSTR
[DUEL] Epoch ended. INSTR misses = 41, DATA misses = 21. Winner = DATA
[DUEL] Epoch ended. INSTR misses = 27, DATA misses = 10. Winner = DATA
[DUEL] Epoch ended. INSTR misses = 39, DATA misses = 25. Winner = DATA
[DUEL] Epoch ended. INSTR misses = 30, DATA misses = 19. Winner = DATA
[DUEL] Epoch ended. INSTR misses = 13, DATA misses = 5. Winner = DATA
[DUEL] Epoch ended. INSTR misses = 31, DATA misses = 32. Winner = INSTR
[DUEL] Epoch ended. INSTR misses = 29, DATA misses = 15. Winner = DATA
[DUEL] Epoch ended. INSTR misses = 33, DATA misses = 33. Winner = INSTR
[DUEL] Epoch ended. INSTR misses = 35, DATA misses = 33. Winner = DATA
[DUEL] Epoch ended. INSTR misses = 37, DATA misses = 50. Winner = INSTR
[DUEL] Epoch ended. INSTR misses = 37, DATA misses = 60. Winner = INSTR
[DUEL] Epoch ended. INSTR misses = 59, DATA misses = 28. Winner = DATA
[DUEL] Epoch ended. INSTR misses = 29, DATA misses = 24. Winner = DATA
[DUEL] Epoch ended. INSTR misses = 33, DATA misses = 25. Winner = DATA
[DUEL] Epoch ended. INSTR misses = 19, DATA misses = 6. Winner = DATA
[DUEL] Epoch ended. INSTR misses = 27, DATA misses = 16. Winner = DATA
[DUEL] Epoch ended. INSTR misses = 15, DATA misses = 15. Winner = INSTR
[DUEL] Epoch ended. INSTR misses = 25, DATA misses = 16. Winner = DATA
[DUEL] Epoch ended. INSTR misses = 35, DATA misses = 32. Winner = DATA
[DUEL] Epoch ended. INSTR misses = 35, DATA misses = 31. Winner = DATA
[DUEL] Epoch ended. INSTR misses = 41, DATA misses = 48. Winner = INSTR
[DUEL] Epoch ended. INSTR misses = 49, DATA misses = 43. Winner = DATA
[DUEL] Epoch ended. INSTR misses = 40, DATA misses = 17. Winner = DATA
[DUEL] Epoch ended. INSTR misses = 28, DATA misses = 31. Winner = INSTR
[DUEL] Epoch ended. INSTR misses = 42, DATA misses = 30. Winner = DATA
[DUEL] Epoch ended. INSTR misses = 19, DATA misses = 7. Winner = DATA
[DUEL] Epoch ended. INSTR misses = 27, DATA misses = 19. Winner = DATA
[DUEL] Epoch ended. INSTR misses = 30, DATA misses = 31. Winner = INSTR
Heartbeat CPU 0 instructions: 10000005 cycles: 1891218 heartbeat IPC: 5.288 cumulative IPC: 5.288 (Simulation time: 00 hr 00 min 27 sec)
[DUEL] Epoch ended. INSTR misses = 26, DATA misses = 15. Winner = DATA
[DUEL] Epoch ended. INSTR misses = 18, DATA misses = 17. Winner = DATA
[DUEL] Epoch ended. INSTR misses = 45, DATA misses = 40. Winner = DATA
[DUEL] Epoch ended. INSTR misses = 42, DATA misses = 46. Winner = INSTR
[DUEL] Epoch ended. INSTR misses = 56, DATA misses = 22. Winner = DATA
[DUEL] Epoch ended. INSTR misses = 38, DATA misses = 43. Winner = INSTR
[DUEL] Epoch ended. INSTR misses = 22, DATA misses = 20. Winner = DATA
[DUEL] Epoch ended. INSTR misses = 36, DATA misses = 23. Winner = DATA
[DUEL] Epoch ended. INSTR misses = 10, DATA misses = 1. Winner = DATA
[DUEL] Epoch ended. INSTR misses = 30, DATA misses = 31. Winner = INSTR
[DUEL] Epoch ended. INSTR misses = 27, DATA misses = 15. Winner = DATA
[DUEL] Epoch ended. INSTR misses = 32, DATA misses = 32. Winner = INSTR
[DUEL] Epoch ended. INSTR misses = 32, DATA misses = 40. Winner = INSTR
[DUEL] Epoch ended. INSTR misses = 57, DATA misses = 45. Winner = DATA
[DUEL] Epoch ended. INSTR misses = 55, DATA misses = 36. Winner = DATA
[DUEL] Epoch ended. INSTR misses = 36, DATA misses = 31. Winner = DATA
[DUEL] Epoch ended. INSTR misses = 28, DATA misses = 22. Winner = DATA
[DUEL] Epoch ended. INSTR misses = 33, DATA misses = 23. Winner = DATA
[DUEL] Epoch ended. INSTR misses = 9, DATA misses = 4. Winner = DATA
[DUEL] Epoch ended. INSTR misses = 30, DATA misses = 31. Winner = INSTR
[DUEL] Epoch ended. INSTR misses = 27, DATA misses = 15. Winner = DATA
[DUEL] Epoch ended. INSTR misses = 31, DATA misses = 30. Winner = DATA
[DUEL] Epoch ended. INSTR misses = 38, DATA misses = 50. Winner = INSTR
[DUEL] Epoch ended. INSTR misses = 44, DATA misses = 42. Winner = DATA
[DUEL] Epoch ended. INSTR misses = 58, DATA misses = 35. Winner = DATA
[DUEL] Epoch ended. INSTR misses = 18, DATA misses = 9. Winner = DATA
[DUEL] Epoch ended. INSTR misses = 37, DATA misses = 38. Winner = INSTR
[DUEL] Epoch ended. INSTR misses = 28, DATA misses = 13. Winner = DATA
[DUEL] Epoch ended. INSTR misses = 29, DATA misses = 21. Winner = DATA
[DUEL] Epoch ended. INSTR misses = 20, DATA misses = 15. Winner = DATA
[DUEL] Epoch ended. INSTR misses = 23, DATA misses = 19. Winner = DATA
[DUEL] Epoch ended. INSTR misses = 34, DATA misses = 31. Winner = DATA
[DUEL] Epoch ended. INSTR misses = 31, DATA misses = 29. Winner = DATA
[DUEL] Epoch ended. INSTR misses = 51, DATA misses = 47. Winner = DATA
[DUEL] Epoch ended. INSTR misses = 47, DATA misses = 34. Winner = DATA
[DUEL] Epoch ended. INSTR misses = 38, DATA misses = 31. Winner = DATA
[DUEL] Epoch ended. INSTR misses = 25, DATA misses = 25. Winner = INSTR
[DUEL] Epoch ended. INSTR misses = 23, DATA misses = 11. Winner = DATA
[DUEL] Epoch ended. INSTR misses = 22, DATA misses = 18. Winner = DATA
Heartbeat CPU 0 instructions: 20000005 cycles: 3741062 heartbeat IPC: 5.406 cumulative IPC: 5.346 (Simulation time: 00 hr 00 min 53 sec)
[DUEL] Epoch ended. INSTR misses = 33, DATA misses = 31. Winner = DATA
[DUEL] Epoch ended. INSTR misses = 27, DATA misses = 17. Winner = DATA
[DUEL] Epoch ended. INSTR misses = 31, DATA misses = 30. Winner = DATA
[DUEL] Epoch ended. INSTR misses = 32, DATA misses = 30. Winner = DATA
[DUEL] Epoch ended. INSTR misses = 54, DATA misses = 46. Winner = DATA
[DUEL] Epoch ended. INSTR misses = 72, DATA misses = 36. Winner = DATA
[DUEL] Epoch ended. INSTR misses = 15, DATA misses = 13. Winner = DATA
[DUEL] Epoch ended. INSTR misses = 42, DATA misses = 43. Winner = INSTR
[DUEL] Epoch ended. INSTR misses = 23, DATA misses = 8. Winner = DATA
[DUEL] Epoch ended. INSTR misses = 27, DATA misses = 21. Winner = DATA
[DUEL] Epoch ended. INSTR misses = 32, DATA misses = 32. Winner = INSTR
[DUEL] Epoch ended. INSTR misses = 11, DATA misses = 0. Winner = DATA
[DUEL] Epoch ended. INSTR misses = 34, DATA misses = 31. Winner = DATA
[DUEL] Epoch ended. INSTR misses = 38, DATA misses = 46. Winner = INSTR
[DUEL] Epoch ended. INSTR misses = 42, DATA misses = 45. Winner = INSTR
[DUEL] Epoch ended. INSTR misses = 38, DATA misses = 54. Winner = INSTR
[DUEL] Epoch ended. INSTR misses = 56, DATA misses = 43. Winner = DATA
[DUEL] Epoch ended. INSTR misses = 5, DATA misses = 0. Winner = DATA
[DUEL] Epoch ended. INSTR misses = 34, DATA misses = 28. Winner = DATA
[DUEL] Epoch ended. INSTR misses = 33, DATA misses = 20. Winner = DATA
[DUEL] Epoch ended. INSTR misses = 27, DATA misses = 13. Winner = DATA
[DUEL] Epoch ended. INSTR misses = 0, DATA misses = 0. Winner = INSTR
[DUEL] Epoch ended. INSTR misses = 0, DATA misses = 0. Winner = INSTR
[DUEL] Epoch ended. INSTR misses = 0, DATA misses = 0. Winner = INSTR
[DUEL] Epoch ended. INSTR misses = 6, DATA misses = 1. Winner = DATA
[DUEL] Epoch ended. INSTR misses = 18, DATA misses = 15. Winner = DATA
[DUEL] Epoch ended. INSTR misses = 32, DATA misses = 33. Winner = INSTR
[DUEL] Epoch ended. INSTR misses = 27, DATA misses = 16. Winner = DATA
[DUEL] Epoch ended. INSTR misses = 31, DATA misses = 30. Winner = DATA
[DUEL] Epoch ended. INSTR misses = 42, DATA misses = 45. Winner = INSTR
[DUEL] Epoch ended. INSTR misses = 35, DATA misses = 47. Winner = INSTR
[DUEL] Epoch ended. INSTR misses = 23, DATA misses = 44. Winner = INSTR
[DUEL] Epoch ended. INSTR misses = 56, DATA misses = 25. Winner = DATA
[DUEL] Epoch ended. INSTR misses = 24, DATA misses = 23. Winner = DATA
[DUEL] Epoch ended. INSTR misses = 26, DATA misses = 24. Winner = DATA
[DUEL] Epoch ended. INSTR misses = 32, DATA misses = 8. Winner = DATA
[DUEL] Epoch ended. INSTR misses = 24, DATA misses = 18. Winner = DATA
[DUEL] Epoch ended. INSTR misses = 15, DATA misses = 15. Winner = INSTR
Heartbeat CPU 0 instructions: 30000006 cycles: 5548112 heartbeat IPC: 5.534 cumulative IPC: 5.407 (Simulation time: 00 hr 01 min 19 sec)
Warmup finished CPU 0 instructions: 30000006 cycles: 5548113 cumulative IPC: 5.407 (Simulation time: 00 hr 01 min 19 sec)
Warmup complete CPU 0 instructions: 30000006 cycles: 5548113 cumulative IPC: 5.407 (Simulation time: 00 hr 01 min 19 sec)
[DUEL] Epoch ended. INSTR misses = 19, DATA misses = 17. Winner = DATA
[DUEL] Epoch ended. INSTR misses = 31, DATA misses = 16. Winner = DATA
[DUEL] Epoch ended. INSTR misses = 17, DATA misses = 30. Winner = INSTR
[DUEL] Epoch ended. INSTR misses = 41, DATA misses = 46. Winner = INSTR
[DUEL] Epoch ended. INSTR misses = 49, DATA misses = 49. Winner = INSTR
[DUEL] Epoch ended. INSTR misses = 41, DATA misses = 31. Winner = DATA
[DUEL] Epoch ended. INSTR misses = 17, DATA misses = 11. Winner = DATA
[DUEL] Epoch ended. INSTR misses = 31, DATA misses = 21. Winner = DATA
[DUEL] Epoch ended. INSTR misses = 38, DATA misses = 29. Winner = DATA
[DUEL] Epoch ended. INSTR misses = 20, DATA misses = 3. Winner = DATA
[DUEL] Epoch ended. INSTR misses = 20, DATA misses = 17. Winner = DATA
[DUEL] Epoch ended. INSTR misses = 15, DATA misses = 15. Winner = INSTR
[DUEL] Epoch ended. INSTR misses = 17, DATA misses = 16. Winner = DATA
[DUEL] Epoch ended. INSTR misses = 34, DATA misses = 31. Winner = DATA
[DUEL] Epoch ended. INSTR misses = 31, DATA misses = 30. Winner = DATA
[DUEL] Epoch ended. INSTR misses = 52, DATA misses = 63. Winner = INSTR
[DUEL] Epoch ended. INSTR misses = 17, DATA misses = 42. Winner = INSTR
[DUEL] Epoch ended. INSTR misses = 41, DATA misses = 27. Winner = DATA
[DUEL] Epoch ended. INSTR misses = 23, DATA misses = 14. Winner = DATA
[DUEL] Epoch ended. INSTR misses = 44, DATA misses = 31. Winner = DATA
[DUEL] Epoch ended. INSTR misses = 33, DATA misses = 17. Winner = DATA
[DUEL] Epoch ended. INSTR misses = 15, DATA misses = 3. Winner = DATA
[DUEL] Epoch ended. INSTR misses = 22, DATA misses = 16. Winner = DATA
[DUEL] Epoch ended. INSTR misses = 30, DATA misses = 31. Winner = INSTR
[DUEL] Epoch ended. INSTR misses = 18, DATA misses = 15. Winner = DATA
[DUEL] Epoch ended. INSTR misses = 32, DATA misses = 30. Winner = DATA
[DUEL] Epoch ended. INSTR misses = 35, DATA misses = 30. Winner = DATA
[DUEL] Epoch ended. INSTR misses = 41, DATA misses = 68. Winner = INSTR
[DUEL] Epoch ended. INSTR misses = 34, DATA misses = 41. Winner = INSTR
[DUEL] Epoch ended. INSTR misses = 28, DATA misses = 17. Winner = DATA
[DUEL] Epoch ended. INSTR misses = 19, DATA misses = 15. Winner = DATA
[DUEL] Epoch ended. INSTR misses = 45, DATA misses = 35. Winner = DATA
[DUEL] Epoch ended. INSTR misses = 40, DATA misses = 27. Winner = DATA
[DUEL] Epoch ended. INSTR misses = 15, DATA misses = 3. Winner = DATA
[DUEL] Epoch ended. INSTR misses = 27, DATA misses = 22. Winner = DATA
[DUEL] Epoch ended. INSTR misses = 16, DATA misses = 16. Winner = INSTR
[DUEL] Epoch ended. INSTR misses = 20, DATA misses = 16. Winner = DATA
[DUEL] Epoch ended. INSTR misses = 34, DATA misses = 31. Winner = DATA
[DUEL] Epoch ended. INSTR misses = 30, DATA misses = 29. Winner = DATA
Heartbeat CPU 0 instructions: 40000003 cycles: 9591218 heartbeat IPC: 2.473 cumulative IPC: 2.473 (Simulation time: 00 hr 02 min 01 sec)
[DUEL] Epoch ended. INSTR misses = 42, DATA misses = 29. Winner = DATA
[DUEL] Epoch ended. INSTR misses = 47, DATA misses = 65. Winner = INSTR
[DUEL] Epoch ended. INSTR misses = 52, DATA misses = 44. Winner = DATA
[DUEL] Epoch ended. INSTR misses = 29, DATA misses = 19. Winner = DATA
[DUEL] Epoch ended. INSTR misses = 11, DATA misses = 18. Winner = INSTR
[DUEL] Epoch ended. INSTR misses = 75, DATA misses = 42. Winner = DATA
[DUEL] Epoch ended. INSTR misses = 36, DATA misses = 25. Winner = DATA
[DUEL] Epoch ended. INSTR misses = 20, DATA misses = 2. Winner = DATA
[DUEL] Epoch ended. INSTR misses = 28, DATA misses = 20. Winner = DATA
[DUEL] Epoch ended. INSTR misses = 9, DATA misses = 1. Winner = DATA
[DUEL] Epoch ended. INSTR misses = 30, DATA misses = 31. Winner = INSTR
[DUEL] Epoch ended. INSTR misses = 19, DATA misses = 15. Winner = DATA
[DUEL] Epoch ended. INSTR misses = 31, DATA misses = 30. Winner = DATA
[DUEL] Epoch ended. INSTR misses = 33, DATA misses = 30. Winner = DATA
[DUEL] Epoch ended. INSTR misses = 38, DATA misses = 60. Winner = INSTR
[DUEL] Epoch ended. INSTR misses = 36, DATA misses = 34. Winner = DATA
[DUEL] Epoch ended. INSTR misses = 39, DATA misses = 20. Winner = DATA
[DUEL] Epoch ended. INSTR misses = 33, DATA misses = 24. Winner = DATA
[DUEL] Epoch ended. INSTR misses = 66, DATA misses = 48. Winner = DATA
[DUEL] Epoch ended. INSTR misses = 38, DATA misses = 27. Winner = DATA
[DUEL] Epoch ended. INSTR misses = 16, DATA misses = 5. Winner = DATA
[DUEL] Epoch ended. INSTR misses = 24, DATA misses = 18. Winner = DATA
[DUEL] Epoch ended. INSTR misses = 30, DATA misses = 31. Winner = INSTR
[DUEL] Epoch ended. INSTR misses = 19, DATA misses = 15. Winner = DATA
[DUEL] Epoch ended. INSTR misses = 18, DATA misses = 16. Winner = DATA
[DUEL] Epoch ended. INSTR misses = 38, DATA misses = 38. Winner = INSTR
[DUEL] Epoch ended. INSTR misses = 57, DATA misses = 70. Winner = INSTR
[DUEL] Epoch ended. INSTR misses = 18, DATA misses = 23. Winner = INSTR
[DUEL] Epoch ended. INSTR misses = 28, DATA misses = 22. Winner = DATA
[DUEL] Epoch ended. INSTR misses = 32, DATA misses = 18. Winner = DATA
[DUEL] Epoch ended. INSTR misses = 32, DATA misses = 29. Winner = DATA
[DUEL] Epoch ended. INSTR misses = 27, DATA misses = 16. Winner = DATA
[DUEL] Epoch ended. INSTR misses = 19, DATA misses = 8. Winner = DATA
[DUEL] Epoch ended. INSTR misses = 26, DATA misses = 18. Winner = DATA
[DUEL] Epoch ended. INSTR misses = 30, DATA misses = 31. Winner = INSTR
[DUEL] Epoch ended. INSTR misses = 19, DATA misses = 15. Winner = DATA
[DUEL] Epoch ended. INSTR misses = 32, DATA misses = 30. Winner = DATA
[DUEL] Epoch ended. INSTR misses = 34, DATA misses = 29. Winner = DATA
[DUEL] Epoch ended. INSTR misses = 28, DATA misses = 43. Winner = INSTR
Heartbeat CPU 0 instructions: 50000006 cycles: 13946057 heartbeat IPC: 2.296 cumulative IPC: 2.382 (Simulation time: 00 hr 02 min 45 sec)
[DUEL] Epoch ended. INSTR misses = 43, DATA misses = 55. Winner = INSTR
[DUEL] Epoch ended. INSTR misses = 14, DATA misses = 14. Winner = INSTR
[DUEL] Epoch ended. INSTR misses = 58, DATA misses = 42. Winner = DATA
[DUEL] Epoch ended. INSTR misses = 45, DATA misses = 25. Winner = DATA
[DUEL] Epoch ended. INSTR misses = 15, DATA misses = 6. Winner = DATA
[DUEL] Epoch ended. INSTR misses = 29, DATA misses = 20. Winner = DATA
[DUEL] Epoch ended. INSTR misses = 30, DATA misses = 31. Winner = INSTR
[DUEL] Epoch ended. INSTR misses = 21, DATA misses = 15. Winner = DATA
[DUEL] Epoch ended. INSTR misses = 19, DATA misses = 16. Winner = DATA
[DUEL] Epoch ended. INSTR misses = 46, DATA misses = 43. Winner = DATA
[DUEL] Epoch ended. INSTR misses = 26, DATA misses = 40. Winner = INSTR
[DUEL] Epoch ended. INSTR misses = 39, DATA misses = 62. Winner = INSTR
[DUEL] Epoch ended. INSTR misses = 20, DATA misses = 9. Winner = DATA
[DUEL] Epoch ended. INSTR misses = 60, DATA misses = 43. Winner = DATA
[DUEL] Epoch ended. INSTR misses = 28, DATA misses = 25. Winner = DATA
[DUEL] Epoch ended. INSTR misses = 15, DATA misses = 0. Winner = DATA
[DUEL] Epoch ended. INSTR misses = 36, DATA misses = 22. Winner = DATA
[DUEL] Epoch ended. INSTR misses = 18, DATA misses = 9. Winner = DATA
[DUEL] Epoch ended. INSTR misses = 31, DATA misses = 32. Winner = INSTR
[DUEL] Epoch ended. INSTR misses = 21, DATA misses = 15. Winner = DATA
[DUEL] Epoch ended. INSTR misses = 31, DATA misses = 30. Winner = DATA
[DUEL] Epoch ended. INSTR misses = 32, DATA misses = 30. Winner = DATA
[DUEL] Epoch ended. INSTR misses = 44, DATA misses = 57. Winner = INSTR
[DUEL] Epoch ended. INSTR misses = 41, DATA misses = 45. Winner = INSTR
[DUEL] Epoch ended. INSTR misses = 18, DATA misses = 9. Winner = DATA
[DUEL] Epoch ended. INSTR misses = 43, DATA misses = 34. Winner = DATA
[DUEL] Epoch ended. INSTR misses = 32, DATA misses = 36. Winner = INSTR
[DUEL] Epoch ended. INSTR misses = 32, DATA misses = 10. Winner = DATA
[DUEL] Epoch ended. INSTR misses = 21, DATA misses = 6. Winner = DATA
[DUEL] Epoch ended. INSTR misses = 32, DATA misses = 24. Winner = DATA
[DUEL] Epoch ended. INSTR misses = 32, DATA misses = 32. Winner = INSTR
[DUEL] Epoch ended. INSTR misses = 20, DATA misses = 15. Winner = DATA
[DUEL] Epoch ended. INSTR misses = 31, DATA misses = 30. Winner = DATA
[DUEL] Epoch ended. INSTR misses = 36, DATA misses = 29. Winner = DATA
[DUEL] Epoch ended. INSTR misses = 37, DATA misses = 61. Winner = INSTR
[DUEL] Epoch ended. INSTR misses = 41, DATA misses = 48. Winner = INSTR
[DUEL] Epoch ended. INSTR misses = 25, DATA misses = 14. Winner = DATA
[DUEL] Epoch ended. INSTR misses = 28, DATA misses = 22. Winner = DATA
Heartbeat CPU 0 instructions: 60000007 cycles: 18217723 heartbeat IPC: 2.341 cumulative IPC: 2.368 (Simulation time: 00 hr 03 min 28 sec)
[DUEL] Epoch ended. INSTR misses = 44, DATA misses = 39. Winner = DATA
[DUEL] Epoch ended. INSTR misses = 16, DATA misses = 8. Winner = DATA
[DUEL] Epoch ended. INSTR misses = 19, DATA misses = 8. Winner = DATA
[DUEL] Epoch ended. INSTR misses = 29, DATA misses = 21. Winner = DATA
[DUEL] Epoch ended. INSTR misses = 32, DATA misses = 32. Winner = INSTR
[DUEL] Epoch ended. INSTR misses = 21, DATA misses = 15. Winner = DATA
[DUEL] Epoch ended. INSTR misses = 30, DATA misses = 30. Winner = INSTR
[DUEL] Epoch ended. INSTR misses = 35, DATA misses = 29. Winner = DATA
[DUEL] Epoch ended. INSTR misses = 45, DATA misses = 46. Winner = INSTR
[DUEL] Epoch ended. INSTR misses = 47, DATA misses = 46. Winner = DATA
[DUEL] Epoch ended. INSTR misses = 24, DATA misses = 11. Winner = DATA
[DUEL] Epoch ended. INSTR misses = 38, DATA misses = 38. Winner = INSTR
[DUEL] Epoch ended. INSTR misses = 27, DATA misses = 20. Winner = DATA
[DUEL] Epoch ended. INSTR misses = 14, DATA misses = 6. Winner = DATA
[DUEL] Epoch ended. INSTR misses = 0, DATA misses = 0. Winner = INSTR
[DUEL] Epoch ended. INSTR misses = 1, DATA misses = 1. Winner = INSTR
[DUEL] Epoch ended. INSTR misses = 17, DATA misses = 16. Winner = DATA
[DUEL] Epoch ended. INSTR misses = 30, DATA misses = 31. Winner = INSTR
[DUEL] Epoch ended. INSTR misses = 21, DATA misses = 16. Winner = DATA
[DUEL] Epoch ended. INSTR misses = 30, DATA misses = 30. Winner = INSTR
[DUEL] Epoch ended. INSTR misses = 32, DATA misses = 30. Winner = DATA
[DUEL] Epoch ended. INSTR misses = 43, DATA misses = 60. Winner = INSTR
[DUEL] Epoch ended. INSTR misses = 45, DATA misses = 51. Winner = INSTR
[DUEL] Epoch ended. INSTR misses = 32, DATA misses = 12. Winner = DATA
[DUEL] Epoch ended. INSTR misses = 28, DATA misses = 21. Winner = DATA
[DUEL] Epoch ended. INSTR misses = 27, DATA misses = 37. Winner = INSTR
[DUEL] Epoch ended. INSTR misses = 15, DATA misses = 7. Winner = DATA
[DUEL] Epoch ended. INSTR misses = 20, DATA misses = 17. Winner = DATA
[DUEL] Epoch ended. INSTR misses = 30, DATA misses = 32. Winner = INSTR
[DUEL] Epoch ended. INSTR misses = 19, DATA misses = 15. Winner = DATA
[DUEL] Epoch ended. INSTR misses = 16, DATA misses = 16. Winner = INSTR
[DUEL] Epoch ended. INSTR misses = 32, DATA misses = 29. Winner = DATA
[DUEL] Epoch ended. INSTR misses = 42, DATA misses = 58. Winner = INSTR
[DUEL] Epoch ended. INSTR misses = 34, DATA misses = 50. Winner = INSTR
[DUEL] Epoch ended. INSTR misses = 54, DATA misses = 32. Winner = DATA
[DUEL] Epoch ended. INSTR misses = 0, DATA misses = 0. Winner = INSTR
[DUEL] Epoch ended. INSTR misses = 32, DATA misses = 30. Winner = DATA
[DUEL] Epoch ended. INSTR misses = 17, DATA misses = 16. Winner = DATA
Heartbeat CPU 0 instructions: 70000011 cycles: 21975078 heartbeat IPC: 2.661 cumulative IPC: 2.435 (Simulation time: 00 hr 04 min 08 sec)
[DUEL] Epoch ended. INSTR misses = 33, DATA misses = 27. Winner = DATA
[DUEL] Epoch ended. INSTR misses = 7, DATA misses = 0. Winner = DATA
[DUEL] Epoch ended. INSTR misses = 31, DATA misses = 33. Winner = INSTR
[DUEL] Epoch ended. INSTR misses = 19, DATA misses = 15. Winner = DATA
[DUEL] Epoch ended. INSTR misses = 30, DATA misses = 30. Winner = INSTR
[DUEL] Epoch ended. INSTR misses = 36, DATA misses = 29. Winner = DATA
[DUEL] Epoch ended. INSTR misses = 46, DATA misses = 51. Winner = INSTR
[DUEL] Epoch ended. INSTR misses = 22, DATA misses = 36. Winner = INSTR
[DUEL] Epoch ended. INSTR misses = 50, DATA misses = 26. Winner = DATA
[DUEL] Epoch ended. INSTR misses = 6, DATA misses = 1. Winner = DATA
[DUEL] Epoch ended. INSTR misses = 45, DATA misses = 39. Winner = DATA
[DUEL] Epoch ended. INSTR misses = 33, DATA misses = 21. Winner = DATA
[DUEL] Epoch ended. INSTR misses = 17, DATA misses = 9. Winner = DATA
[DUEL] Epoch ended. INSTR misses = 23, DATA misses = 15. Winner = DATA
[DUEL] Epoch ended. INSTR misses = 30, DATA misses = 32. Winner = INSTR
[DUEL] Epoch ended. INSTR misses = 20, DATA misses = 15. Winner = DATA
[DUEL] Epoch ended. INSTR misses = 30, DATA misses = 30. Winner = INSTR
[DUEL] Epoch ended. INSTR misses = 34, DATA misses = 32. Winner = DATA
[DUEL] Epoch ended. INSTR misses = 42, DATA misses = 45. Winner = INSTR
[DUEL] Epoch ended. INSTR misses = 25, DATA misses = 40. Winner = INSTR
[DUEL] Epoch ended. INSTR misses = 36, DATA misses = 29. Winner = DATA
[DUEL] Epoch ended. INSTR misses = 27, DATA misses = 31. Winner = INSTR
[DUEL] Epoch ended. INSTR misses = 45, DATA misses = 44. Winner = DATA
[DUEL] Epoch ended. INSTR misses = 46, DATA misses = 27. Winner = DATA
[DUEL] Epoch ended. INSTR misses = 47, DATA misses = 23. Winner = DATA
[DUEL] Epoch ended. INSTR misses = 33, DATA misses = 22. Winner = DATA
[DUEL] Epoch ended. INSTR misses = 15, DATA misses = 7. Winner = DATA
[DUEL] Epoch ended. INSTR misses = 31, DATA misses = 20. Winner = DATA
[DUEL] Epoch ended. INSTR misses = 30, DATA misses = 31. Winner = INSTR
[DUEL] Epoch ended. INSTR misses = 20, DATA misses = 16. Winner = DATA
[DUEL] Epoch ended. INSTR misses = 17, DATA misses = 16. Winner = DATA
[DUEL] Epoch ended. INSTR misses = 34, DATA misses = 29. Winner = DATA
[DUEL] Epoch ended. INSTR misses = 41, DATA misses = 59. Winner = INSTR
[DUEL] Epoch ended. INSTR misses = 34, DATA misses = 43. Winner = INSTR
[DUEL] Epoch ended. INSTR misses = 55, DATA misses = 29. Winner = DATA
[DUEL] Epoch ended. INSTR misses = 28, DATA misses = 31. Winner = INSTR
[DUEL] Epoch ended. INSTR misses = 15, DATA misses = 17. Winner = INSTR
[DUEL] Epoch ended. INSTR misses = 49, DATA misses = 25. Winner = DATA
[DUEL] Epoch ended. INSTR misses = 58, DATA misses = 33. Winner = DATA
Heartbeat CPU 0 instructions: 80000011 cycles: 26122014 heartbeat IPC: 2.411 cumulative IPC: 2.43 (Simulation time: 00 hr 04 min 51 sec)
[DUEL] Epoch ended. INSTR misses = 26, DATA misses = 6. Winner = DATA
[DUEL] Epoch ended. INSTR misses = 16, DATA misses = 6. Winner = DATA
[DUEL] Epoch ended. INSTR misses = 30, DATA misses = 18. Winner = DATA
[DUEL] Epoch ended. INSTR misses = 30, DATA misses = 31. Winner = INSTR
[DUEL] Epoch ended. INSTR misses = 19, DATA misses = 15. Winner = DATA
[DUEL] Epoch ended. INSTR misses = 17, DATA misses = 16. Winner = DATA
[DUEL] Epoch ended. INSTR misses = 34, DATA misses = 29. Winner = DATA
[DUEL] Epoch ended. INSTR misses = 58, DATA misses = 64. Winner = INSTR
[DUEL] Epoch ended. INSTR misses = 34, DATA misses = 38. Winner = INSTR
[DUEL] Epoch ended. INSTR misses = 32, DATA misses = 30. Winner = DATA
[DUEL] Epoch ended. INSTR misses = 38, DATA misses = 24. Winner = DATA
[DUEL] Epoch ended. INSTR misses = 27, DATA misses = 32. Winner = INSTR
[DUEL] Epoch ended. INSTR misses = 48, DATA misses = 23. Winner = DATA
[DUEL] Epoch ended. INSTR misses = 47, DATA misses = 36. Winner = DATA
[DUEL] Epoch ended. INSTR misses = 40, DATA misses = 22. Winner = DATA
[DUEL] Epoch ended. INSTR misses = 15, DATA misses = 6. Winner = DATA
[DUEL] Epoch ended. INSTR misses = 31, DATA misses = 17. Winner = DATA
[DUEL] Epoch ended. INSTR misses = 15, DATA misses = 15. Winner = INSTR
[DUEL] Epoch ended. INSTR misses = 18, DATA misses = 16. Winner = DATA
[DUEL] Epoch ended. INSTR misses = 33, DATA misses = 31. Winner = DATA
[DUEL] Epoch ended. INSTR misses = 30, DATA misses = 29. Winner = DATA
[DUEL] Epoch ended. INSTR misses = 17, DATA misses = 28. Winner = INSTR
[DUEL] Epoch ended. INSTR misses = 50, DATA misses = 30. Winner = DATA
[DUEL] Epoch ended. INSTR misses = 30, DATA misses = 45. Winner = INSTR
[DUEL] Epoch ended. INSTR misses = 27, DATA misses = 15. Winner = DATA
[DUEL] Epoch ended. INSTR misses = 12, DATA misses = 26. Winner = INSTR
[DUEL] Epoch ended. INSTR misses = 42, DATA misses = 31. Winner = DATA
[DUEL] Epoch ended. INSTR misses = 43, DATA misses = 29. Winner = DATA
[DUEL] Epoch ended. INSTR misses = 39, DATA misses = 29. Winner = DATA
[DUEL] Epoch ended. INSTR misses = 9, DATA misses = 2. Winner = DATA
[DUEL] Epoch ended. INSTR misses = 27, DATA misses = 20. Winner = DATA
[DUEL] Epoch ended. INSTR misses = 31, DATA misses = 19. Winner = DATA
[DUEL] Epoch ended. INSTR misses = 15, DATA misses = 16. Winner = INSTR
[DUEL] Epoch ended. INSTR misses = 19, DATA misses = 15. Winner = DATA
[DUEL] Epoch ended. INSTR misses = 33, DATA misses = 30. Winner = DATA
[DUEL] Epoch ended. INSTR misses = 34, DATA misses = 43. Winner = INSTR
[DUEL] Epoch ended. INSTR misses = 63, DATA misses = 35. Winner = DATA
[DUEL] Epoch ended. INSTR misses = 22, DATA misses = 42. Winner = INSTR
[DUEL] Epoch ended. INSTR misses = 42, DATA misses = 30. Winner = DATA
Heartbeat CPU 0 instructions: 90000011 cycles: 30299788 heartbeat IPC: 2.394 cumulative IPC: 2.424 (Simulation time: 00 hr 05 min 34 sec)
[DUEL] Epoch ended. INSTR misses = 21, DATA misses = 32. Winner = INSTR
[DUEL] Epoch ended. INSTR misses = 35, DATA misses = 16. Winner = DATA
[DUEL] Epoch ended. INSTR misses = 47, DATA misses = 21. Winner = DATA
[DUEL] Epoch ended. INSTR misses = 35, DATA misses = 33. Winner = DATA
[DUEL] Epoch ended. INSTR misses = 17, DATA misses = 6. Winner = DATA
[DUEL] Epoch ended. INSTR misses = 32, DATA misses = 25. Winner = DATA
[DUEL] Epoch ended. INSTR misses = 15, DATA misses = 15. Winner = INSTR
[DUEL] Epoch ended. INSTR misses = 19, DATA misses = 16. Winner = DATA
[DUEL] Epoch ended. INSTR misses = 32, DATA misses = 31. Winner = DATA
[DUEL] Epoch ended. INSTR misses = 30, DATA misses = 29. Winner = DATA
[DUEL] Epoch ended. INSTR misses = 19, DATA misses = 31. Winner = INSTR
[DUEL] Epoch ended. INSTR misses = 56, DATA misses = 39. Winner = DATA
[DUEL] Epoch ended. INSTR misses = 23, DATA misses = 46. Winner = INSTR
[DUEL] Epoch ended. INSTR misses = 40, DATA misses = 24. Winner = DATA
[DUEL] Epoch ended. INSTR misses = 30, DATA misses = 32. Winner = INSTR
[DUEL] Epoch ended. INSTR misses = 52, DATA misses = 36. Winner = DATA
[DUEL] Epoch ended. INSTR misses = 41, DATA misses = 27. Winner = DATA
[DUEL] Epoch ended. INSTR misses = 14, DATA misses = 7. Winner = DATA
[DUEL] Epoch ended. INSTR misses = 30, DATA misses = 24. Winner = DATA
[DUEL] Epoch ended. INSTR misses = 15, DATA misses = 15. Winner = INSTR
[DUEL] Epoch ended. INSTR misses = 17, DATA misses = 17. Winner = INSTR
[DUEL] Epoch ended. INSTR misses = 32, DATA misses = 31. Winner = DATA
[DUEL] Epoch ended. INSTR misses = 15, DATA misses = 14. Winner = DATA
[DUEL] Epoch ended. INSTR misses = 34, DATA misses = 46. Winner = INSTR
[DUEL] Epoch ended. INSTR misses = 52, DATA misses = 34. Winner = DATA
[DUEL] Epoch ended. INSTR misses = 35, DATA misses = 60. Winner = INSTR
[DUEL] Epoch ended. INSTR misses = 40, DATA misses = 21. Winner = DATA
[DUEL] Epoch ended. INSTR misses = 22, DATA misses = 32. Winner = INSTR
[DUEL] Epoch ended. INSTR misses = 36, DATA misses = 32. Winner = DATA
[DUEL] Epoch ended. INSTR misses = 33, DATA misses = 25. Winner = DATA
[DUEL] Epoch ended. INSTR misses = 14, DATA misses = 6. Winner = DATA
[DUEL] Epoch ended. INSTR misses = 25, DATA misses = 20. Winner = DATA
[DUEL] Epoch ended. INSTR misses = 30, DATA misses = 32. Winner = INSTR
[DUEL] Epoch ended. INSTR misses = 18, DATA misses = 15. Winner = DATA
[DUEL] Epoch ended. INSTR misses = 30, DATA misses = 30. Winner = INSTR
[DUEL] Epoch ended. INSTR misses = 46, DATA misses = 50. Winner = INSTR
[DUEL] Epoch ended. INSTR misses = 50, DATA misses = 59. Winner = INSTR
[DUEL] Epoch ended. INSTR misses = 42, DATA misses = 12. Winner = DATA
Heartbeat CPU 0 instructions: 100000001 cycles: 34379000 heartbeat IPC: 2.451 cumulative IPC: 2.428 (Simulation time: 00 hr 06 min 16 sec)
[DUEL] Epoch ended. INSTR misses = 31, DATA misses = 23. Winner = DATA
[DUEL] Epoch ended. INSTR misses = 31, DATA misses = 26. Winner = DATA
[DUEL] Epoch ended. INSTR misses = 20, DATA misses = 13. Winner = DATA
*** Reached end of trace: (0, "../traces/secret_traces/compute_fp/compute_fp_84.champsimtrace.xz")
[DUEL] Epoch ended. INSTR misses = 36, DATA misses = 37. Winner = INSTR
[DUEL] Epoch ended. INSTR misses = 16, DATA misses = 20. Winner = INSTR
[DUEL] Epoch ended. INSTR misses = 52, DATA misses = 33. Winner = DATA
[DUEL] Epoch ended. INSTR misses = 5, DATA misses = 3. Winner = DATA
[DUEL] Epoch ended. INSTR misses = 31, DATA misses = 15. Winner = DATA
[DUEL] Epoch ended. INSTR misses = 31, DATA misses = 31. Winner = INSTR
[DUEL] Epoch ended. INSTR misses = 21, DATA misses = 16. Winner = DATA
[DUEL] Epoch ended. INSTR misses = 31, DATA misses = 30. Winner = DATA
[DUEL] Epoch ended. INSTR misses = 31, DATA misses = 45. Winner = INSTR
[DUEL] Epoch ended. INSTR misses = 41, DATA misses = 66. Winner = INSTR
[DUEL] Epoch ended. INSTR misses = 55, DATA misses = 19. Winner = DATA
[DUEL] Epoch ended. INSTR misses = 18, DATA misses = 7. Winner = DATA
[DUEL] Epoch ended. INSTR misses = 25, DATA misses = 22. Winner = DATA
[DUEL] Epoch ended. INSTR misses = 10, DATA misses = 2. Winner = DATA
[DUEL] Epoch ended. INSTR misses = 26, DATA misses = 17. Winner = DATA
[DUEL] Epoch ended. INSTR misses = 31, DATA misses = 31. Winner = INSTR
[DUEL] Epoch ended. INSTR misses = 21, DATA misses = 15. Winner = DATA
[DUEL] Epoch ended. INSTR misses = 31, DATA misses = 30. Winner = DATA
[DUEL] Epoch ended. INSTR misses = 33, DATA misses = 29. Winner = DATA
[DUEL] Epoch ended. INSTR misses = 36, DATA misses = 44. Winner = INSTR
[DUEL] Epoch ended. INSTR misses = 33, DATA misses = 51. Winner = INSTR
[DUEL] Epoch ended. INSTR misses = 35, DATA misses = 25. Winner = DATA
[DUEL] Epoch ended. INSTR misses = 24, DATA misses = 7. Winner = DATA
[DUEL] Epoch ended. INSTR misses = 38, DATA misses = 38. Winner = INSTR
[DUEL] Epoch ended. INSTR misses = 14, DATA misses = 4. Winner = DATA
[DUEL] Epoch ended. INSTR misses = 27, DATA misses = 15. Winner = DATA
[DUEL] Epoch ended. INSTR misses = 15, DATA misses = 15. Winner = INSTR
[DUEL] Epoch ended. INSTR misses = 20, DATA misses = 16. Winner = DATA
[DUEL] Epoch ended. INSTR misses = 33, DATA misses = 31. Winner = DATA
[DUEL] Epoch ended. INSTR misses = 31, DATA misses = 29. Winner = DATA
[DUEL] Epoch ended. INSTR misses = 43, DATA misses = 35. Winner = DATA
[DUEL] Epoch ended. INSTR misses = 27, DATA misses = 33. Winner = INSTR
[DUEL] Epoch ended. INSTR misses = 45, DATA misses = 19. Winner = DATA
[DUEL] Epoch ended. INSTR misses = 28, DATA misses = 20. Winner = DATA
[DUEL] Epoch ended. INSTR misses = 27, DATA misses = 25. Winner = DATA
[DUEL] Epoch ended. INSTR misses = 15, DATA misses = 4. Winner = DATA
Heartbeat CPU 0 instructions: 110000003 cycles: 40439642 heartbeat IPC: 1.65 cumulative IPC: 2.293 (Simulation time: 00 hr 07 min 09 sec)
[DUEL] Epoch ended. INSTR misses = 27, DATA misses = 17. Winner = DATA
[DUEL] Epoch ended. INSTR misses = 15, DATA misses = 15. Winner = INSTR
[DUEL] Epoch ended. INSTR misses = 18, DATA misses = 16. Winner = DATA
[DUEL] Epoch ended. INSTR misses = 33, DATA misses = 31. Winner = DATA
[DUEL] Epoch ended. INSTR misses = 30, DATA misses = 29. Winner = DATA
[DUEL] Epoch ended. INSTR misses = 49, DATA misses = 41. Winner = DATA
[DUEL] Epoch ended. INSTR misses = 46, DATA misses = 22. Winner = DATA
[DUEL] Epoch ended. INSTR misses = 28, DATA misses = 37. Winner = INSTR
[DUEL] Epoch ended. INSTR misses = 24, DATA misses = 25. Winner = INSTR
[DUEL] Epoch ended. INSTR misses = 15, DATA misses = 4. Winner = DATA
[DUEL] Epoch ended. INSTR misses = 27, DATA misses = 16. Winner = DATA
[DUEL] Epoch ended. INSTR misses = 30, DATA misses = 31. Winner = INSTR
[DUEL] Epoch ended. INSTR misses = 19, DATA misses = 15. Winner = DATA
[DUEL] Epoch ended. INSTR misses = 31, DATA misses = 30. Winner = DATA
[DUEL] Epoch ended. INSTR misses = 31, DATA misses = 29. Winner = DATA
[DUEL] Epoch ended. INSTR misses = 53, DATA misses = 62. Winner = INSTR
[DUEL] Epoch ended. INSTR misses = 46, DATA misses = 23. Winner = DATA
[DUEL] Epoch ended. INSTR misses = 32, DATA misses = 37. Winner = INSTR
[DUEL] Epoch ended. INSTR misses = 26, DATA misses = 24. Winner = DATA
[DUEL] Epoch ended. INSTR misses = 15, DATA misses = 4. Winner = DATA
[DUEL] Epoch ended. INSTR misses = 24, DATA misses = 21. Winner = DATA
[DUEL] Epoch ended. INSTR misses = 30, DATA misses = 31. Winner = INSTR
[DUEL] Epoch ended. INSTR misses = 18, DATA misses = 15. Winner = DATA
[DUEL] Epoch ended. INSTR misses = 31, DATA misses = 30. Winner = DATA
[DUEL] Epoch ended. INSTR misses = 35, DATA misses = 29. Winner = DATA
[DUEL] Epoch ended. INSTR misses = 53, DATA misses = 39. Winner = DATA
[DUEL] Epoch ended. INSTR misses = 47, DATA misses = 37. Winner = DATA
[DUEL] Epoch ended. INSTR misses = 24, DATA misses = 13. Winner = DATA
[DUEL] Epoch ended. INSTR misses = 46, DATA misses = 46. Winner = INSTR
[DUEL] Epoch ended. INSTR misses = 11, DATA misses = 7. Winner = DATA
[DUEL] Epoch ended. INSTR misses = 24, DATA misses = 18. Winner = DATA
[DUEL] Epoch ended. INSTR misses = 23, DATA misses = 20. Winner = DATA
[DUEL] Epoch ended. INSTR misses = 19, DATA misses = 17. Winner = DATA
[DUEL] Epoch ended. INSTR misses = 16, DATA misses = 15. Winner = DATA
[DUEL] Epoch ended. INSTR misses = 31, DATA misses = 30. Winner = DATA
[DUEL] Epoch ended. INSTR misses = 43, DATA misses = 34. Winner = DATA
[DUEL] Epoch ended. INSTR misses = 42, DATA misses = 44. Winner = INSTR
[DUEL] Epoch ended. INSTR misses = 52, DATA misses = 26. Winner = DATA
[DUEL] Epoch ended. INSTR misses = 49, DATA misses = 45. Winner = DATA
Heartbeat CPU 0 instructions: 120000011 cycles: 44848614 heartbeat IPC: 2.268 cumulative IPC: 2.29 (Simulation time: 00 hr 07 min 52 sec)
[DUEL] Epoch ended. INSTR misses = 18, DATA misses = 6. Winner = DATA
[DUEL] Epoch ended. INSTR misses = 22, DATA misses = 18. Winner = DATA
[DUEL] Epoch ended. INSTR misses = 15, DATA misses = 15. Winner = INSTR
[DUEL] Epoch ended. INSTR misses = 18, DATA misses = 17. Winner = DATA
[DUEL] Epoch ended. INSTR misses = 33, DATA misses = 31. Winner = DATA
[DUEL] Epoch ended. INSTR misses = 30, DATA misses = 29. Winner = DATA
[DUEL] Epoch ended. INSTR misses = 41, DATA misses = 53. Winner = INSTR
[DUEL] Epoch ended. INSTR misses = 28, DATA misses = 40. Winner = INSTR
[DUEL] Epoch ended. INSTR misses = 48, DATA misses = 17. Winner = DATA
[DUEL] Epoch ended. INSTR misses = 31, DATA misses = 27. Winner = DATA
[DUEL] Epoch ended. INSTR misses = 26, DATA misses = 20. Winner = DATA
[DUEL] Epoch ended. INSTR misses = 28, DATA misses = 17. Winner = DATA
[DUEL] Epoch ended. INSTR misses = 19, DATA misses = 18. Winner = DATA
[DUEL] Epoch ended. INSTR misses = 18, DATA misses = 17. Winner = DATA
[DUEL] Epoch ended. INSTR misses = 17, DATA misses = 15. Winner = DATA
[DUEL] Epoch ended. INSTR misses = 31, DATA misses = 30. Winner = DATA
[DUEL] Epoch ended. INSTR misses = 32, DATA misses = 55. Winner = INSTR
[DUEL] Epoch ended. INSTR misses = 42, DATA misses = 46. Winner = INSTR
[DUEL] Epoch ended. INSTR misses = 38, DATA misses = 32. Winner = DATA
[DUEL] Epoch ended. INSTR misses = 21, DATA misses = 12. Winner = DATA
[DUEL] Epoch ended. INSTR misses = 32, DATA misses = 20. Winner = DATA
[DUEL] Epoch ended. INSTR misses = 47, DATA misses = 32. Winner = DATA
[DUEL] Epoch ended. INSTR misses = 22, DATA misses = 8. Winner = DATA
[DUEL] Epoch ended. INSTR misses = 2, DATA misses = 2. Winner = INSTR
[DUEL] Epoch ended. INSTR misses = 0, DATA misses = 0. Winner = INSTR
[DUEL] Epoch ended. INSTR misses = 0, DATA misses = 0. Winner = INSTR
[DUEL] Epoch ended. INSTR misses = 0, DATA misses = 0. Winner = INSTR
[DUEL] Epoch ended. INSTR misses = 20, DATA misses = 15. Winner = DATA
[DUEL] Epoch ended. INSTR misses = 15, DATA misses = 15. Winner = INSTR
[DUEL] Epoch ended. INSTR misses = 19, DATA misses = 18. Winner = DATA
[DUEL] Epoch ended. INSTR misses = 34, DATA misses = 31. Winner = DATA
[DUEL] Epoch ended. INSTR misses = 30, DATA misses = 29. Winner = DATA
[DUEL] Epoch ended. INSTR misses = 34, DATA misses = 44. Winner = INSTR
[DUEL] Epoch ended. INSTR misses = 35, DATA misses = 60. Winner = INSTR
[DUEL] Epoch ended. INSTR misses = 51, DATA misses = 24. Winner = DATA
[DUEL] Epoch ended. INSTR misses = 19, DATA misses = 10. Winner = DATA
[DUEL] Epoch ended. INSTR misses = 47, DATA misses = 33. Winner = DATA
[DUEL] Epoch ended. INSTR misses = 34, DATA misses = 18. Winner = DATA
Heartbeat CPU 0 instructions: 130000009 cycles: 48604852 heartbeat IPC: 2.662 cumulative IPC: 2.323 (Simulation time: 00 hr 08 min 32 sec)
Simulation finished CPU 0 instructions: 100000003 cycles: 43056740 cumulative IPC: 2.323 (Simulation time: 00 hr 08 min 32 sec)
Simulation complete CPU 0 instructions: 100000003 cycles: 43056740 cumulative IPC: 2.323 (Simulation time: 00 hr 08 min 32 sec)

ChampSim completed all CPUs

=== Simulation ===
CPU 0 runs ../traces/secret_traces/compute_fp/compute_fp_84.champsimtrace.xz
Region of Interest Statistics

CPU 0 cumulative IPC: 2.323 instructions: 100000003 cycles: 43056740
CPU 0 Branch Prediction Accuracy: 98.08% MPKI: 2.167 Average ROB Occupancy at Mispredict: 101.9
Branch type MPKI
BRANCH_DIRECT_JUMP: 0.0119
BRANCH_INDIRECT: 0.88
BRANCH_CONDITIONAL: 1.23
BRANCH_DIRECT_CALL: 0.0248
BRANCH_INDIRECT_CALL: 0.00333
BRANCH_RETURN: 0.0137

LLC TOTAL        ACCESS:    3020548 HIT:    1297688 MISS:    1722860
LLC LOAD         ACCESS:     353814 HIT:     173979 MISS:     179835
LLC RFO          ACCESS:     144410 HIT:      54638 MISS:      89772
LLC PREFETCH     ACCESS:    2299969 HIT:     964618 MISS:    1335351
LLC WRITE        ACCESS:     199197 HIT:      95022 MISS:     104175
LLC TRANSLATION  ACCESS:      23158 HIT:       9431 MISS:      13727
LLC PREFETCH REQUESTED:          0 ISSUED:          0 USEFUL:          0 USELESS:          0
LLC AVERAGE MISS LATENCY: 234.4 cycles
cpu0_DTLB TOTAL        ACCESS:   20021535 HIT:   19663885 MISS:     357650
cpu0_DTLB LOAD         ACCESS:   20021535 HIT:   19663885 MISS:     357650
cpu0_DTLB RFO          ACCESS:          0 HIT:          0 MISS:          0
cpu0_DTLB PREFETCH     ACCESS:          0 HIT:          0 MISS:          0
cpu0_DTLB WRITE        ACCESS:          0 HIT:          0 MISS:          0
cpu0_DTLB TRANSLATION  ACCESS:          0 HIT:          0 MISS:          0
cpu0_DTLB PREFETCH REQUESTED:          0 ISSUED:          0 USEFUL:          0 USELESS:          0
cpu0_DTLB AVERAGE MISS LATENCY: 12.88 cycles
cpu0_ITLB TOTAL        ACCESS:     193107 HIT:     191425 MISS:       1682
cpu0_ITLB LOAD         ACCESS:     193107 HIT:     191425 MISS:       1682
cpu0_ITLB RFO          ACCESS:          0 HIT:          0 MISS:          0
cpu0_ITLB PREFETCH     ACCESS:          0 HIT:          0 MISS:          0
cpu0_ITLB WRITE        ACCESS:          0 HIT:          0 MISS:          0
cpu0_ITLB TRANSLATION  ACCESS:          0 HIT:          0 MISS:          0
cpu0_ITLB PREFETCH REQUESTED:          0 ISSUED:          0 USEFUL:          0 USELESS:          0
cpu0_ITLB AVERAGE MISS LATENCY: 61.1 cycles
cpu0_L1D TOTAL        ACCESS:   40102761 HIT:   30662153 MISS:    9440608
cpu0_L1D LOAD         ACCESS:   19990326 HIT:   16305099 MISS:    3685227
cpu0_L1D RFO          ACCESS:          0 HIT:          0 MISS:          0
cpu0_L1D PREFETCH     ACCESS:   17349592 HIT:   12047164 MISS:    5302428
cpu0_L1D WRITE        ACCESS:    2684654 HIT:    2281084 MISS:     403570
cpu0_L1D TRANSLATION  ACCESS:      78189 HIT:      28806 MISS:      49383
cpu0_L1D PREFETCH REQUESTED:   72300798 ISSUED:   17349573 USEFUL:    1325023 USELESS:     160806
cpu0_L1D AVERAGE MISS LATENCY: 21.88 cycles
cpu0_L1I TOTAL        ACCESS:     283363 HIT:     240578 MISS:      42785
cpu0_L1I LOAD         ACCESS:     101409 HIT:      89014 MISS:      12395
cpu0_L1I RFO          ACCESS:          0 HIT:          0 MISS:          0
cpu0_L1I PREFETCH     ACCESS:     181954 HIT:     151564 MISS:      30390
cpu0_L1I WRITE        ACCESS:          0 HIT:          0 MISS:          0
cpu0_L1I TRANSLATION  ACCESS:          0 HIT:          0 MISS:          0
cpu0_L1I PREFETCH REQUESTED:     270248 ISSUED:     181954 USEFUL:      17332 USELESS:      10569
cpu0_L1I AVERAGE MISS LATENCY: 113.5 cycles
cpu0_L2C TOTAL        ACCESS:   12115445 HIT:    5539601 MISS:    6575844
cpu0_L2C LOAD         ACCESS:    1327896 HIT:     801974 MISS:     525922
cpu0_L2C RFO          ACCESS:     184202 HIT:      39720 MISS:     144482
cpu0_L2C PREFETCH     ACCESS:   10318227 HIT:    4436268 MISS:    5881959
cpu0_L2C WRITE        ACCESS:     236324 HIT:     236001 MISS:        323
cpu0_L2C TRANSLATION  ACCESS:      48796 HIT:      25638 MISS:      23158
cpu0_L2C PREFETCH REQUESTED:    6012154 ISSUED:    5666252 USEFUL:     755142 USELESS:     419561
cpu0_L2C AVERAGE MISS LATENCY: 67.68 cycles
cpu0_STLB TOTAL        ACCESS:     131155 HIT:      53296 MISS:      77859
cpu0_STLB LOAD         ACCESS:     131155 HIT:      53296 MISS:      77859
cpu0_STLB RFO          ACCESS:          0 HIT:          0 MISS:          0
cpu0_STLB PREFETCH     ACCESS:          0 HIT:          0 MISS:          0
cpu0_STLB WRITE        ACCESS:          0 HIT:          0 MISS:          0
cpu0_STLB TRANSLATION  ACCESS:          0 HIT:          0 MISS:          0
cpu0_STLB PREFETCH REQUESTED:          0 ISSUED:          0 USEFUL:          0 USELESS:          0
cpu0_STLB AVERAGE MISS LATENCY: 75.06 cycles

DRAM Statistics

Channel 0 RQ ROW_BUFFER_HIT:     549015
  ROW_BUFFER_MISS:     265995
 AVG DBUS CONGESTED CYCLE: 3.911
WQ ROW_BUFFER_HIT: Channel 0 
  ROW_BUFFER_MISS:      15390
  FULL:      39265

Channel 1 RQ ROW_BUFFER_HIT:     542939
  ROW_BUFFER_MISS:     260653
 AVG DBUS CONGESTED CYCLE: 3.907
WQ ROW_BUFFER_HIT: Channel 1 
  ROW_BUFFER_MISS:      13407
  FULL:      39587
BERTI TO_L1: 64744380 TO_L2: 35248294 TO_L2_BC_MSHR: 5913719
BERTI AVG_LAT: 83.6352 NUM_TRACK_LATENCY: 3638103 NUM_CANT_TRACK_LATENCY: 5
BERTI CROSS_PAGE 20295445 NO_CROSS_PAGE: 79697229
BERTI FOUND_BERTI: 16548739 NO_FOUND_BERTI: 10465508
BERTI AVERAGE_ISSUED: 3.56621
CPU 0 L1I Entangling prefetcher final stats
IP accesses: 1bd 6f40 907 / 125259
IP misses: 44e6 113980 627 / 36245
IP hits: 0 0 0 / 0
IP late: 2609 98240 17 / 6251
IP wrong: eac1 3ab040 28 / 10515
miss rate: 0.289361
coverage: 0
coverage_late: 0.172466
accuracy: 0
accuracy_late: 0.372838
discarded: 0
evicts entangled j table: 0
evicts entangled k table: 1649
max bb size: 65
formats: 458 0 1437 789 358 839 0 
hist_lookups: 1370 1405 1000 843 811 708 549 442 359 287 206 138 112 66 32 0 0 3948 
hist_lookups_evict: 0 %
hist_lookups_shortlat: 32.1604 %
bb_found_hist: 0 21791 8867 4040 2182 1305 1106 139 109 282 22 20 12 39 3 0 19 0 32 0 0 0 0 0 0 0 0 0 0 0 0 0 0 0 0 0 0 0 0 0 0 0 0 0 0 0 0 0 0 2 0 0 0 0 0 0 0 0 0 0 0 0 0 0 
bb_found_summary: 80028 39970 2.00221
entangled_found_hist: 0 12662 8044 12748 2593 1007 130 0 
entangled_found_summary: 83181 37184 2.23702
bb_ent_found_hist: 0 28750 13003 7264 4818 2972 711 350 317 321 57 6 0 174 0 0 5 0 130 0 0 0 0 0 0 0 0 0 0 0 0 0 0 0 0 0 0 0 0 0 0 0 0 0 0 0 0 0 0 2 0 0 0 0 0 0 0 0 0 0 0 0 0 0 
bb_ent_found_summary: 128237 58880 2.17794
