WARNING: physical memory size is smaller than virtual memory size.

*** ChampSim Multicore Out-of-Order Simulator ***
Warmup Instructions: 30000000
Simulation Instructions: 100000000
Number of CPUs: 1
Page size: 4096

BTB:
Basic BTB sets: 1024 ways: 8
Indirect:
history lengths: 0 0 10 16 27 44 60 96 109 219 449 487 714 1313 2146 3881 
ITTAGE tables: 64768 bytes;Region table: 240 bytes;IUM: 384 bytes;Total Storage= 65392 bytes;
RAS:
RAS size: 64
[LLC] INSTR Demand IPV: 1 2 2 1 4 Prefetch IPV: 1 2 1 1 4
[LLC] DATA  Demand IPV: 1 1 1 2 4 Prefetch IPV: 1 1 2 2 4
Berti Prefetcher
CPU 0 Entangling prefetcher
Off-chip DRAM Size: 8 GiB Channels: 2 Width: 64-bit Data Race: 6400 MT/s
[DUEL] Epoch ended. INSTR misses = 11, DATA misses = 5. Winner = DATA
[DUEL] Epoch ended. INSTR misses = 103, DATA misses = 96. Winner = DATA
[DUEL] Epoch ended. INSTR misses = 62, DATA misses = 64. Winner = INSTR
[DUEL] Epoch ended. INSTR misses = 35, DATA misses = 38. Winner = INSTR
[DUEL] Epoch ended. INSTR misses = 48, DATA misses = 49. Winner = INSTR
[DUEL] Epoch ended. INSTR misses = 55, DATA misses = 51. Winner = DATA
[DUEL] Epoch ended. INSTR misses = 75, DATA misses = 69. Winner = DATA
[DUEL] Epoch ended. INSTR misses = 16, DATA misses = 20. Winner = INSTR
[DUEL] Epoch ended. INSTR misses = 43, DATA misses = 44. Winner = INSTR
[DUEL] Epoch ended. INSTR misses = 37, DATA misses = 31. Winner = DATA
[DUEL] Epoch ended. INSTR misses = 27, DATA misses = 32. Winner = INSTR
[DUEL] Epoch ended. INSTR misses = 16, DATA misses = 16. Winner = INSTR
[DUEL] Epoch ended. INSTR misses = 47, DATA misses = 48. Winner = INSTR
[DUEL] Epoch ended. INSTR misses = 27, DATA misses = 28. Winner = INSTR
[DUEL] Epoch ended. INSTR misses = 47, DATA misses = 44. Winner = DATA
[DUEL] Epoch ended. INSTR misses = 101, DATA misses = 105. Winner = INSTR
[DUEL] Epoch ended. INSTR misses = 47, DATA misses = 55. Winner = INSTR
[DUEL] Epoch ended. INSTR misses = 17, DATA misses = 16. Winner = DATA
[DUEL] Epoch ended. INSTR misses = 58, DATA misses = 49. Winner = DATA
[DUEL] Epoch ended. INSTR misses = 16, DATA misses = 24. Winner = INSTR
[DUEL] Epoch ended. INSTR misses = 32, DATA misses = 32. Winner = INSTR
[DUEL] Epoch ended. INSTR misses = 18, DATA misses = 17. Winner = DATA
[DUEL] Epoch ended. INSTR misses = 16, DATA misses = 16. Winner = INSTR
[DUEL] Epoch ended. INSTR misses = 61, DATA misses = 58. Winner = DATA
[DUEL] Epoch ended. INSTR misses = 21, DATA misses = 19. Winner = DATA
[DUEL] Epoch ended. INSTR misses = 59, DATA misses = 60. Winner = INSTR
[DUEL] Epoch ended. INSTR misses = 16, DATA misses = 16. Winner = INSTR
[DUEL] Epoch ended. INSTR misses = 59, DATA misses = 59. Winner = INSTR
[DUEL] Epoch ended. INSTR misses = 48, DATA misses = 46. Winner = DATA
[DUEL] Epoch ended. INSTR misses = 32, DATA misses = 20. Winner = DATA
[DUEL] Epoch ended. INSTR misses = 16, DATA misses = 28. Winner = INSTR
[DUEL] Epoch ended. INSTR misses = 17, DATA misses = 16. Winner = DATA
[DUEL] Epoch ended. INSTR misses = 27, DATA misses = 27. Winner = INSTR
[DUEL] Epoch ended. INSTR misses = 49, DATA misses = 46. Winner = DATA
[DUEL] Epoch ended. INSTR misses = 35, DATA misses = 24. Winner = DATA
[DUEL] Epoch ended. INSTR misses = 33, DATA misses = 50. Winner = INSTR
[DUEL] Epoch ended. INSTR misses = 48, DATA misses = 44. Winner = DATA
[DUEL] Epoch ended. INSTR misses = 49, DATA misses = 38. Winner = DATA
[DUEL] Epoch ended. INSTR misses = 23, DATA misses = 32. Winner = INSTR
Heartbeat CPU 0 instructions: 10000007 cycles: 1717100 heartbeat IPC: 5.824 cumulative IPC: 5.824 (Simulation time: 00 hr 00 min 26 sec)
[DUEL] Epoch ended. INSTR misses = 32, DATA misses = 32. Winner = INSTR
[DUEL] Epoch ended. INSTR misses = 16, DATA misses = 16. Winner = INSTR
[DUEL] Epoch ended. INSTR misses = 16, DATA misses = 16. Winner = INSTR
[DUEL] Epoch ended. INSTR misses = 25, DATA misses = 26. Winner = INSTR
[DUEL] Epoch ended. INSTR misses = 66, DATA misses = 61. Winner = DATA
[DUEL] Epoch ended. INSTR misses = 28, DATA misses = 34. Winner = INSTR
[DUEL] Epoch ended. INSTR misses = 48, DATA misses = 39. Winner = DATA
[DUEL] Epoch ended. INSTR misses = 48, DATA misses = 50. Winner = INSTR
[DUEL] Epoch ended. INSTR misses = 48, DATA misses = 36. Winner = DATA
[DUEL] Epoch ended. INSTR misses = 8, DATA misses = 16. Winner = INSTR
[DUEL] Epoch ended. INSTR misses = 32, DATA misses = 32. Winner = INSTR
[DUEL] Epoch ended. INSTR misses = 32, DATA misses = 32. Winner = INSTR
[DUEL] Epoch ended. INSTR misses = 25, DATA misses = 25. Winner = INSTR
[DUEL] Epoch ended. INSTR misses = 32, DATA misses = 29. Winner = DATA
[DUEL] Epoch ended. INSTR misses = 51, DATA misses = 57. Winner = INSTR
[DUEL] Epoch ended. INSTR misses = 73, DATA misses = 70. Winner = DATA
[DUEL] Epoch ended. INSTR misses = 0, DATA misses = 0. Winner = INSTR
[DUEL] Epoch ended. INSTR misses = 57, DATA misses = 54. Winner = DATA
[DUEL] Epoch ended. INSTR misses = 17, DATA misses = 16. Winner = DATA
[DUEL] Epoch ended. INSTR misses = 48, DATA misses = 48. Winner = INSTR
[DUEL] Epoch ended. INSTR misses = 32, DATA misses = 32. Winner = INSTR
[DUEL] Epoch ended. INSTR misses = 0, DATA misses = 0. Winner = INSTR
[DUEL] Epoch ended. INSTR misses = 57, DATA misses = 57. Winner = INSTR
[DUEL] Epoch ended. INSTR misses = 44, DATA misses = 38. Winner = DATA
[DUEL] Epoch ended. INSTR misses = 85, DATA misses = 80. Winner = DATA
[DUEL] Epoch ended. INSTR misses = 37, DATA misses = 38. Winner = INSTR
[DUEL] Epoch ended. INSTR misses = 27, DATA misses = 18. Winner = DATA
[DUEL] Epoch ended. INSTR misses = 31, DATA misses = 36. Winner = INSTR
[DUEL] Epoch ended. INSTR misses = 16, DATA misses = 16. Winner = INSTR
[DUEL] Epoch ended. INSTR misses = 16, DATA misses = 16. Winner = INSTR
[DUEL] Epoch ended. INSTR misses = 32, DATA misses = 33. Winner = INSTR
[DUEL] Epoch ended. INSTR misses = 32, DATA misses = 32. Winner = INSTR
[DUEL] Epoch ended. INSTR misses = 57, DATA misses = 54. Winner = DATA
[DUEL] Epoch ended. INSTR misses = 65, DATA misses = 65. Winner = INSTR
[DUEL] Epoch ended. INSTR misses = 72, DATA misses = 69. Winner = DATA
[DUEL] Epoch ended. INSTR misses = 32, DATA misses = 32. Winner = INSTR
[DUEL] Epoch ended. INSTR misses = 42, DATA misses = 34. Winner = DATA
[DUEL] Epoch ended. INSTR misses = 0, DATA misses = 4. Winner = INSTR
[DUEL] Epoch ended. INSTR misses = 32, DATA misses = 32. Winner = INSTR
Heartbeat CPU 0 instructions: 20000010 cycles: 3384472 heartbeat IPC: 5.997 cumulative IPC: 5.909 (Simulation time: 00 hr 00 min 52 sec)
[DUEL] Epoch ended. INSTR misses = 32, DATA misses = 33. Winner = INSTR
[DUEL] Epoch ended. INSTR misses = 16, DATA misses = 16. Winner = INSTR
[DUEL] Epoch ended. INSTR misses = 47, DATA misses = 41. Winner = DATA
[DUEL] Epoch ended. INSTR misses = 33, DATA misses = 29. Winner = DATA
[DUEL] Epoch ended. INSTR misses = 117, DATA misses = 137. Winner = INSTR
[DUEL] Epoch ended. INSTR misses = 56, DATA misses = 41. Winner = DATA
[DUEL] Epoch ended. INSTR misses = 79, DATA misses = 80. Winner = INSTR
[DUEL] Epoch ended. INSTR misses = 49, DATA misses = 48. Winner = DATA
[DUEL] Epoch ended. INSTR misses = 80, DATA misses = 80. Winner = INSTR
[DUEL] Epoch ended. INSTR misses = 64, DATA misses = 64. Winner = INSTR
[DUEL] Epoch ended. INSTR misses = 112, DATA misses = 112. Winner = INSTR
[DUEL] Epoch ended. INSTR misses = 49, DATA misses = 48. Winner = DATA
[DUEL] Epoch ended. INSTR misses = 111, DATA misses = 112. Winner = INSTR
[DUEL] Epoch ended. INSTR misses = 47, DATA misses = 48. Winner = INSTR
[DUEL] Epoch ended. INSTR misses = 33, DATA misses = 32. Winner = DATA
[DUEL] Epoch ended. INSTR misses = 48, DATA misses = 48. Winner = INSTR
[DUEL] Epoch ended. INSTR misses = 64, DATA misses = 64. Winner = INSTR
[DUEL] Epoch ended. INSTR misses = 64, DATA misses = 62. Winner = DATA
[DUEL] Epoch ended. INSTR misses = 79, DATA misses = 80. Winner = INSTR
[DUEL] Epoch ended. INSTR misses = 32, DATA misses = 32. Winner = INSTR
[DUEL] Epoch ended. INSTR misses = 62, DATA misses = 50. Winner = DATA
[DUEL] Epoch ended. INSTR misses = 132, DATA misses = 130. Winner = DATA
[DUEL] Epoch ended. INSTR misses = 30, DATA misses = 30. Winner = INSTR
[DUEL] Epoch ended. INSTR misses = 80, DATA misses = 80. Winner = INSTR
[DUEL] Epoch ended. INSTR misses = 64, DATA misses = 64. Winner = INSTR
[DUEL] Epoch ended. INSTR misses = 80, DATA misses = 80. Winner = INSTR
[DUEL] Epoch ended. INSTR misses = 34, DATA misses = 32. Winner = DATA
[DUEL] Epoch ended. INSTR misses = 79, DATA misses = 80. Winner = INSTR
[DUEL] Epoch ended. INSTR misses = 64, DATA misses = 64. Winner = INSTR
[DUEL] Epoch ended. INSTR misses = 48, DATA misses = 48. Winner = INSTR
[DUEL] Epoch ended. INSTR misses = 47, DATA misses = 48. Winner = INSTR
[DUEL] Epoch ended. INSTR misses = 33, DATA misses = 32. Winner = DATA
[DUEL] Epoch ended. INSTR misses = 48, DATA misses = 48. Winner = INSTR
[DUEL] Epoch ended. INSTR misses = 160, DATA misses = 160. Winner = INSTR
[DUEL] Epoch ended. INSTR misses = 131, DATA misses = 130. Winner = DATA
[DUEL] Epoch ended. INSTR misses = 97, DATA misses = 96. Winner = DATA
[DUEL] Epoch ended. INSTR misses = 70, DATA misses = 68. Winner = DATA
[DUEL] Epoch ended. INSTR misses = 160, DATA misses = 154. Winner = DATA
[DUEL] Epoch ended. INSTR misses = 126, DATA misses = 126. Winner = INSTR
Heartbeat CPU 0 instructions: 30000004 cycles: 5053449 heartbeat IPC: 5.992 cumulative IPC: 5.937 (Simulation time: 00 hr 01 min 21 sec)
Warmup finished CPU 0 instructions: 30000004 cycles: 5053450 cumulative IPC: 5.937 (Simulation time: 00 hr 01 min 21 sec)
Warmup complete CPU 0 instructions: 30000004 cycles: 5053450 cumulative IPC: 5.937 (Simulation time: 00 hr 01 min 21 sec)
[DUEL] Epoch ended. INSTR misses = 82, DATA misses = 80. Winner = DATA
[DUEL] Epoch ended. INSTR misses = 242, DATA misses = 240. Winner = DATA
[DUEL] Epoch ended. INSTR misses = 145, DATA misses = 144. Winner = DATA
[DUEL] Epoch ended. INSTR misses = 149, DATA misses = 144. Winner = DATA
[DUEL] Epoch ended. INSTR misses = 163, DATA misses = 160. Winner = DATA
[DUEL] Epoch ended. INSTR misses = 66, DATA misses = 64. Winner = DATA
[DUEL] Epoch ended. INSTR misses = 97, DATA misses = 96. Winner = DATA
[DUEL] Epoch ended. INSTR misses = 193, DATA misses = 192. Winner = DATA
[DUEL] Epoch ended. INSTR misses = 128, DATA misses = 128. Winner = INSTR
[DUEL] Epoch ended. INSTR misses = 128, DATA misses = 128. Winner = INSTR
[DUEL] Epoch ended. INSTR misses = 97, DATA misses = 96. Winner = DATA
[DUEL] Epoch ended. INSTR misses = 113, DATA misses = 114. Winner = INSTR
[DUEL] Epoch ended. INSTR misses = 129, DATA misses = 126. Winner = DATA
[DUEL] Epoch ended. INSTR misses = 144, DATA misses = 144. Winner = INSTR
[DUEL] Epoch ended. INSTR misses = 97, DATA misses = 96. Winner = DATA
[DUEL] Epoch ended. INSTR misses = 114, DATA misses = 112. Winner = DATA
[DUEL] Epoch ended. INSTR misses = 146, DATA misses = 144. Winner = DATA
[DUEL] Epoch ended. INSTR misses = 44, DATA misses = 41. Winner = DATA
[DUEL] Epoch ended. INSTR misses = 39, DATA misses = 11. Winner = DATA
[DUEL] Epoch ended. INSTR misses = 7, DATA misses = 30. Winner = INSTR
[DUEL] Epoch ended. INSTR misses = 3, DATA misses = 7. Winner = INSTR
[DUEL] Epoch ended. INSTR misses = 13, DATA misses = 3. Winner = DATA
[DUEL] Epoch ended. INSTR misses = 42, DATA misses = 13. Winner = DATA
[DUEL] Epoch ended. INSTR misses = 26, DATA misses = 36. Winner = INSTR
[DUEL] Epoch ended. INSTR misses = 0, DATA misses = 28. Winner = INSTR
[DUEL] Epoch ended. INSTR misses = 5, DATA misses = 0. Winner = DATA
[DUEL] Epoch ended. INSTR misses = 15, DATA misses = 3. Winner = DATA
[DUEL] Epoch ended. INSTR misses = 17, DATA misses = 11. Winner = DATA
[DUEL] Epoch ended. INSTR misses = 0, DATA misses = 2. Winner = INSTR
[DUEL] Epoch ended. INSTR misses = 2, DATA misses = 14. Winner = INSTR
[DUEL] Epoch ended. INSTR misses = 14, DATA misses = 2. Winner = DATA
[DUEL] Epoch ended. INSTR misses = 26, DATA misses = 18. Winner = DATA
[DUEL] Epoch ended. INSTR misses = 21, DATA misses = 18. Winner = DATA
[DUEL] Epoch ended. INSTR misses = 7, DATA misses = 24. Winner = INSTR
[DUEL] Epoch ended. INSTR misses = 14, DATA misses = 11. Winner = DATA
[DUEL] Epoch ended. INSTR misses = 24, DATA misses = 7. Winner = DATA
[DUEL] Epoch ended. INSTR misses = 41, DATA misses = 20. Winner = DATA
[DUEL] Epoch ended. INSTR misses = 51, DATA misses = 44. Winner = DATA
[DUEL] Epoch ended. INSTR misses = 3, DATA misses = 54. Winner = INSTR
Heartbeat CPU 0 instructions: 40000004 cycles: 21608961 heartbeat IPC: 0.604 cumulative IPC: 0.604 (Simulation time: 00 hr 03 min 54 sec)
[DUEL] Epoch ended. INSTR misses = 0, DATA misses = 3. Winner = INSTR
[DUEL] Epoch ended. INSTR misses = 20, DATA misses = 1. Winner = DATA
[DUEL] Epoch ended. INSTR misses = 28, DATA misses = 25. Winner = DATA
[DUEL] Epoch ended. INSTR misses = 30, DATA misses = 13. Winner = DATA
[DUEL] Epoch ended. INSTR misses = 26, DATA misses = 39. Winner = INSTR
[DUEL] Epoch ended. INSTR misses = 1, DATA misses = 20. Winner = INSTR
[DUEL] Epoch ended. INSTR misses = 3, DATA misses = 0. Winner = DATA
[DUEL] Epoch ended. INSTR misses = 10, DATA misses = 0. Winner = DATA
[DUEL] Epoch ended. INSTR misses = 97, DATA misses = 7. Winner = DATA
[DUEL] Epoch ended. INSTR misses = 5, DATA misses = 94. Winner = INSTR
[DUEL] Epoch ended. INSTR misses = 20, DATA misses = 7. Winner = DATA
[DUEL] Epoch ended. INSTR misses = 36, DATA misses = 17. Winner = DATA
[DUEL] Epoch ended. INSTR misses = 36, DATA misses = 33. Winner = DATA
[DUEL] Epoch ended. INSTR misses = 35, DATA misses = 13. Winner = DATA
[DUEL] Epoch ended. INSTR misses = 22, DATA misses = 63. Winner = INSTR
[DUEL] Epoch ended. INSTR misses = 22, DATA misses = 19. Winner = DATA
[DUEL] Epoch ended. INSTR misses = 5, DATA misses = 18. Winner = INSTR
[DUEL] Epoch ended. INSTR misses = 17, DATA misses = 11. Winner = DATA
[DUEL] Epoch ended. INSTR misses = 16, DATA misses = 12. Winner = DATA
[DUEL] Epoch ended. INSTR misses = 3, DATA misses = 16. Winner = INSTR
[DUEL] Epoch ended. INSTR misses = 3, DATA misses = 0. Winner = DATA
[DUEL] Epoch ended. INSTR misses = 13, DATA misses = 7. Winner = DATA
[DUEL] Epoch ended. INSTR misses = 26, DATA misses = 14. Winner = DATA
[DUEL] Epoch ended. INSTR misses = 8, DATA misses = 20. Winner = INSTR
[DUEL] Epoch ended. INSTR misses = 7, DATA misses = 11. Winner = INSTR
[DUEL] Epoch ended. INSTR misses = 22, DATA misses = 6. Winner = DATA
[DUEL] Epoch ended. INSTR misses = 14, DATA misses = 22. Winner = INSTR
[DUEL] Epoch ended. INSTR misses = 38, DATA misses = 11. Winner = DATA
[DUEL] Epoch ended. INSTR misses = 6, DATA misses = 23. Winner = INSTR
[DUEL] Epoch ended. INSTR misses = 0, DATA misses = 18. Winner = INSTR
[DUEL] Epoch ended. INSTR misses = 2, DATA misses = 0. Winner = DATA
[DUEL] Epoch ended. INSTR misses = 45, DATA misses = 3. Winner = DATA
[DUEL] Epoch ended. INSTR misses = 11, DATA misses = 31. Winner = INSTR
[DUEL] Epoch ended. INSTR misses = 6, DATA misses = 15. Winner = INSTR
[DUEL] Epoch ended. INSTR misses = 0, DATA misses = 15. Winner = INSTR
[DUEL] Epoch ended. INSTR misses = 1, DATA misses = 0. Winner = DATA
[DUEL] Epoch ended. INSTR misses = 17, DATA misses = 0. Winner = DATA
[DUEL] Epoch ended. INSTR misses = 13, DATA misses = 16. Winner = INSTR
[DUEL] Epoch ended. INSTR misses = 3, DATA misses = 12. Winner = INSTR
Heartbeat CPU 0 instructions: 50000000 cycles: 26866198 heartbeat IPC: 1.902 cumulative IPC: 0.9169 (Simulation time: 00 hr 04 min 50 sec)
[DUEL] Epoch ended. INSTR misses = 9, DATA misses = 4. Winner = DATA
[DUEL] Epoch ended. INSTR misses = 8, DATA misses = 8. Winner = INSTR
[DUEL] Epoch ended. INSTR misses = 29, DATA misses = 8. Winner = DATA
[DUEL] Epoch ended. INSTR misses = 11, DATA misses = 15. Winner = INSTR
[DUEL] Epoch ended. INSTR misses = 14, DATA misses = 23. Winner = INSTR
[DUEL] Epoch ended. INSTR misses = 40, DATA misses = 13. Winner = DATA
[DUEL] Epoch ended. INSTR misses = 41, DATA misses = 43. Winner = INSTR
[DUEL] Epoch ended. INSTR misses = 44, DATA misses = 33. Winner = DATA
[DUEL] Epoch ended. INSTR misses = 12, DATA misses = 29. Winner = INSTR
[DUEL] Epoch ended. INSTR misses = 6, DATA misses = 25. Winner = INSTR
[DUEL] Epoch ended. INSTR misses = 28, DATA misses = 1. Winner = DATA
[DUEL] Epoch ended. INSTR misses = 34, DATA misses = 17. Winner = DATA
[DUEL] Epoch ended. INSTR misses = 46, DATA misses = 34. Winner = DATA
[DUEL] Epoch ended. INSTR misses = 19, DATA misses = 48. Winner = INSTR
[DUEL] Epoch ended. INSTR misses = 6, DATA misses = 29. Winner = INSTR
[DUEL] Epoch ended. INSTR misses = 27, DATA misses = 6. Winner = DATA
[DUEL] Epoch ended. INSTR misses = 22, DATA misses = 15. Winner = DATA
[DUEL] Epoch ended. INSTR misses = 27, DATA misses = 13. Winner = DATA
[DUEL] Epoch ended. INSTR misses = 6, DATA misses = 35. Winner = INSTR
[DUEL] Epoch ended. INSTR misses = 7, DATA misses = 0. Winner = DATA
[DUEL] Epoch ended. INSTR misses = 10, DATA misses = 5. Winner = DATA
[DUEL] Epoch ended. INSTR misses = 8, DATA misses = 11. Winner = INSTR
[DUEL] Epoch ended. INSTR misses = 42, DATA misses = 6. Winner = DATA
[DUEL] Epoch ended. INSTR misses = 5, DATA misses = 42. Winner = INSTR
[DUEL] Epoch ended. INSTR misses = 36, DATA misses = 2. Winner = DATA
[DUEL] Epoch ended. INSTR misses = 12, DATA misses = 1. Winner = DATA
[DUEL] Epoch ended. INSTR misses = 10, DATA misses = 30. Winner = INSTR
[DUEL] Epoch ended. INSTR misses = 44, DATA misses = 23. Winner = DATA
[DUEL] Epoch ended. INSTR misses = 8, DATA misses = 41. Winner = INSTR
[DUEL] Epoch ended. INSTR misses = 18, DATA misses = 4. Winner = DATA
[DUEL] Epoch ended. INSTR misses = 31, DATA misses = 8. Winner = DATA
[DUEL] Epoch ended. INSTR misses = 16, DATA misses = 34. Winner = INSTR
[DUEL] Epoch ended. INSTR misses = 34, DATA misses = 17. Winner = DATA
[DUEL] Epoch ended. INSTR misses = 45, DATA misses = 40. Winner = DATA
[DUEL] Epoch ended. INSTR misses = 37, DATA misses = 10. Winner = DATA
[DUEL] Epoch ended. INSTR misses = 38, DATA misses = 65. Winner = INSTR
[DUEL] Epoch ended. INSTR misses = 39, DATA misses = 63. Winner = INSTR
[DUEL] Epoch ended. INSTR misses = 11, DATA misses = 52. Winner = INSTR
[DUEL] Epoch ended. INSTR misses = 19, DATA misses = 1. Winner = DATA
Heartbeat CPU 0 instructions: 60000006 cycles: 32137786 heartbeat IPC: 1.897 cumulative IPC: 1.108 (Simulation time: 00 hr 05 min 47 sec)
[DUEL] Epoch ended. INSTR misses = 7, DATA misses = 0. Winner = DATA
[DUEL] Epoch ended. INSTR misses = 27, DATA misses = 26. Winner = DATA
[DUEL] Epoch ended. INSTR misses = 18, DATA misses = 3. Winner = DATA
[DUEL] Epoch ended. INSTR misses = 28, DATA misses = 28. Winner = INSTR
[DUEL] Epoch ended. INSTR misses = 34, DATA misses = 41. Winner = INSTR
[DUEL] Epoch ended. INSTR misses = 4, DATA misses = 16. Winner = INSTR
[DUEL] Epoch ended. INSTR misses = 15, DATA misses = 5. Winner = DATA
[DUEL] Epoch ended. INSTR misses = 0, DATA misses = 14. Winner = INSTR
[DUEL] Epoch ended. INSTR misses = 1, DATA misses = 0. Winner = DATA
[DUEL] Epoch ended. INSTR misses = 31, DATA misses = 0. Winner = DATA
[DUEL] Epoch ended. INSTR misses = 20, DATA misses = 13. Winner = DATA
[DUEL] Epoch ended. INSTR misses = 8, DATA misses = 31. Winner = INSTR
[DUEL] Epoch ended. INSTR misses = 59, DATA misses = 5. Winner = DATA
[DUEL] Epoch ended. INSTR misses = 10, DATA misses = 54. Winner = INSTR
[DUEL] Epoch ended. INSTR misses = 9, DATA misses = 14. Winner = INSTR
[DUEL] Epoch ended. INSTR misses = 15, DATA misses = 10. Winner = DATA
[DUEL] Epoch ended. INSTR misses = 38, DATA misses = 14. Winner = DATA
[DUEL] Epoch ended. INSTR misses = 5, DATA misses = 21. Winner = INSTR
[DUEL] Epoch ended. INSTR misses = 4, DATA misses = 16. Winner = INSTR
[DUEL] Epoch ended. INSTR misses = 11, DATA misses = 4. Winner = DATA
[DUEL] Epoch ended. INSTR misses = 5, DATA misses = 11. Winner = INSTR
[DUEL] Epoch ended. INSTR misses = 29, DATA misses = 5. Winner = DATA
[DUEL] Epoch ended. INSTR misses = 9, DATA misses = 23. Winner = INSTR
[DUEL] Epoch ended. INSTR misses = 22, DATA misses = 6. Winner = DATA
[DUEL] Epoch ended. INSTR misses = 22, DATA misses = 22. Winner = INSTR
[DUEL] Epoch ended. INSTR misses = 42, DATA misses = 19. Winner = DATA
[DUEL] Epoch ended. INSTR misses = 23, DATA misses = 25. Winner = INSTR
[DUEL] Epoch ended. INSTR misses = 10, DATA misses = 31. Winner = INSTR
[DUEL] Epoch ended. INSTR misses = 3, DATA misses = 20. Winner = INSTR
[DUEL] Epoch ended. INSTR misses = 5, DATA misses = 6. Winner = INSTR
[DUEL] Epoch ended. INSTR misses = 40, DATA misses = 1. Winner = DATA
[DUEL] Epoch ended. INSTR misses = 24, DATA misses = 33. Winner = INSTR
[DUEL] Epoch ended. INSTR misses = 2, DATA misses = 28. Winner = INSTR
[DUEL] Epoch ended. INSTR misses = 19, DATA misses = 2. Winner = DATA
[DUEL] Epoch ended. INSTR misses = 43, DATA misses = 17. Winner = DATA
[DUEL] Epoch ended. INSTR misses = 95, DATA misses = 39. Winner = DATA
[DUEL] Epoch ended. INSTR misses = 110, DATA misses = 77. Winner = DATA
[DUEL] Epoch ended. INSTR misses = 52, DATA misses = 128. Winner = INSTR
[DUEL] Epoch ended. INSTR misses = 45, DATA misses = 48. Winner = INSTR
Heartbeat CPU 0 instructions: 70000007 cycles: 37316949 heartbeat IPC: 1.931 cumulative IPC: 1.24 (Simulation time: 00 hr 06 min 44 sec)
[DUEL] Epoch ended. INSTR misses = 35, DATA misses = 34. Winner = DATA
[DUEL] Epoch ended. INSTR misses = 16, DATA misses = 11. Winner = DATA
[DUEL] Epoch ended. INSTR misses = 25, DATA misses = 35. Winner = INSTR
[DUEL] Epoch ended. INSTR misses = 63, DATA misses = 62. Winner = DATA
[DUEL] Epoch ended. INSTR misses = 34, DATA misses = 50. Winner = INSTR
[DUEL] Epoch ended. INSTR misses = 70, DATA misses = 57. Winner = DATA
[DUEL] Epoch ended. INSTR misses = 49, DATA misses = 54. Winner = INSTR
[DUEL] Epoch ended. INSTR misses = 44, DATA misses = 32. Winner = DATA
[DUEL] Epoch ended. INSTR misses = 19, DATA misses = 32. Winner = INSTR
[DUEL] Epoch ended. INSTR misses = 34, DATA misses = 28. Winner = DATA
[DUEL] Epoch ended. INSTR misses = 48, DATA misses = 48. Winner = INSTR
[DUEL] Epoch ended. INSTR misses = 51, DATA misses = 48. Winner = DATA
[DUEL] Epoch ended. INSTR misses = 48, DATA misses = 51. Winner = INSTR
[DUEL] Epoch ended. INSTR misses = 18, DATA misses = 18. Winner = INSTR
[DUEL] Epoch ended. INSTR misses = 63, DATA misses = 38. Winner = DATA
[DUEL] Epoch ended. INSTR misses = 18, DATA misses = 39. Winner = INSTR
[DUEL] Epoch ended. INSTR misses = 43, DATA misses = 48. Winner = INSTR
[DUEL] Epoch ended. INSTR misses = 23, DATA misses = 16. Winner = DATA
[DUEL] Epoch ended. INSTR misses = 93, DATA misses = 96. Winner = INSTR
[DUEL] Epoch ended. INSTR misses = 99, DATA misses = 91. Winner = DATA
[DUEL] Epoch ended. INSTR misses = 34, DATA misses = 31. Winner = DATA
[DUEL] Epoch ended. INSTR misses = 33, DATA misses = 32. Winner = DATA
[DUEL] Epoch ended. INSTR misses = 48, DATA misses = 46. Winner = DATA
[DUEL] Epoch ended. INSTR misses = 37, DATA misses = 31. Winner = DATA
[DUEL] Epoch ended. INSTR misses = 39, DATA misses = 61. Winner = INSTR
[DUEL] Epoch ended. INSTR misses = 60, DATA misses = 48. Winner = DATA
[DUEL] Epoch ended. INSTR misses = 67, DATA misses = 79. Winner = INSTR
[DUEL] Epoch ended. INSTR misses = 92, DATA misses = 93. Winner = INSTR
[DUEL] Epoch ended. INSTR misses = 102, DATA misses = 90. Winner = DATA
[DUEL] Epoch ended. INSTR misses = 118, DATA misses = 138. Winner = INSTR
[DUEL] Epoch ended. INSTR misses = 34, DATA misses = 33. Winner = DATA
[DUEL] Epoch ended. INSTR misses = 16, DATA misses = 16. Winner = INSTR
[DUEL] Epoch ended. INSTR misses = 33, DATA misses = 32. Winner = DATA
[DUEL] Epoch ended. INSTR misses = 80, DATA misses = 79. Winner = DATA
[DUEL] Epoch ended. INSTR misses = 64, DATA misses = 64. Winner = INSTR
[DUEL] Epoch ended. INSTR misses = 33, DATA misses = 32. Winner = DATA
[DUEL] Epoch ended. INSTR misses = 78, DATA misses = 74. Winner = DATA
[DUEL] Epoch ended. INSTR misses = 18, DATA misses = 19. Winner = INSTR
[DUEL] Epoch ended. INSTR misses = 110, DATA misses = 107. Winner = DATA
Heartbeat CPU 0 instructions: 80000007 cycles: 53752492 heartbeat IPC: 0.6084 cumulative IPC: 1.027 (Simulation time: 00 hr 08 min 59 sec)
[DUEL] Epoch ended. INSTR misses = 81, DATA misses = 80. Winner = DATA
[DUEL] Epoch ended. INSTR misses = 32, DATA misses = 31. Winner = DATA
[DUEL] Epoch ended. INSTR misses = 82, DATA misses = 78. Winner = DATA
[DUEL] Epoch ended. INSTR misses = 64, DATA misses = 64. Winner = INSTR
[DUEL] Epoch ended. INSTR misses = 32, DATA misses = 32. Winner = INSTR
[DUEL] Epoch ended. INSTR misses = 61, DATA misses = 62. Winner = INSTR
[DUEL] Epoch ended. INSTR misses = 32, DATA misses = 32. Winner = INSTR
[DUEL] Epoch ended. INSTR misses = 48, DATA misses = 48. Winner = INSTR
[DUEL] Epoch ended. INSTR misses = 79, DATA misses = 78. Winner = DATA
[DUEL] Epoch ended. INSTR misses = 112, DATA misses = 106. Winner = DATA
[DUEL] Epoch ended. INSTR misses = 16, DATA misses = 16. Winner = INSTR
[DUEL] Epoch ended. INSTR misses = 49, DATA misses = 48. Winner = DATA
[DUEL] Epoch ended. INSTR misses = 96, DATA misses = 95. Winner = DATA
[DUEL] Epoch ended. INSTR misses = 2, DATA misses = 0. Winner = DATA
[DUEL] Epoch ended. INSTR misses = 64, DATA misses = 63. Winner = DATA
[DUEL] Epoch ended. INSTR misses = 33, DATA misses = 33. Winner = INSTR
[DUEL] Epoch ended. INSTR misses = 49, DATA misses = 48. Winner = DATA
[DUEL] Epoch ended. INSTR misses = 48, DATA misses = 48. Winner = INSTR
[DUEL] Epoch ended. INSTR misses = 111, DATA misses = 106. Winner = DATA
[DUEL] Epoch ended. INSTR misses = 32, DATA misses = 30. Winner = DATA
[DUEL] Epoch ended. INSTR misses = 48, DATA misses = 49. Winner = INSTR
[DUEL] Epoch ended. INSTR misses = 46, DATA misses = 48. Winner = INSTR
[DUEL] Epoch ended. INSTR misses = 90, DATA misses = 60. Winner = DATA
[DUEL] Epoch ended. INSTR misses = 446, DATA misses = 423. Winner = DATA
[DUEL] Epoch ended. INSTR misses = 386, DATA misses = 406. Winner = INSTR
[DUEL] Epoch ended. INSTR misses = 193, DATA misses = 181. Winner = DATA
[DUEL] Epoch ended. INSTR misses = 133, DATA misses = 130. Winner = DATA
[DUEL] Epoch ended. INSTR misses = 168, DATA misses = 175. Winner = INSTR
[DUEL] Epoch ended. INSTR misses = 167, DATA misses = 175. Winner = INSTR
[DUEL] Epoch ended. INSTR misses = 146, DATA misses = 158. Winner = INSTR
[DUEL] Epoch ended. INSTR misses = 41, DATA misses = 41. Winner = INSTR
[DUEL] Epoch ended. INSTR misses = 65, DATA misses = 63. Winner = DATA
[DUEL] Epoch ended. INSTR misses = 73, DATA misses = 73. Winner = INSTR
[DUEL] Epoch ended. INSTR misses = 45, DATA misses = 48. Winner = INSTR
[DUEL] Epoch ended. INSTR misses = 47, DATA misses = 48. Winner = INSTR
[DUEL] Epoch ended. INSTR misses = 51, DATA misses = 50. Winner = DATA
[DUEL] Epoch ended. INSTR misses = 111, DATA misses = 110. Winner = DATA
[DUEL] Epoch ended. INSTR misses = 110, DATA misses = 107. Winner = DATA
[DUEL] Epoch ended. INSTR misses = 67, DATA misses = 64. Winner = DATA
Heartbeat CPU 0 instructions: 90000010 cycles: 79183033 heartbeat IPC: 0.3932 cumulative IPC: 0.8094 (Simulation time: 00 hr 12 min 07 sec)
[DUEL] Epoch ended. INSTR misses = 110, DATA misses = 112. Winner = INSTR
[DUEL] Epoch ended. INSTR misses = 32, DATA misses = 32. Winner = INSTR
[DUEL] Epoch ended. INSTR misses = 34, DATA misses = 32. Winner = DATA
[DUEL] Epoch ended. INSTR misses = 48, DATA misses = 48. Winner = INSTR
[DUEL] Epoch ended. INSTR misses = 47, DATA misses = 48. Winner = INSTR
[DUEL] Epoch ended. INSTR misses = 61, DATA misses = 62. Winner = INSTR
[DUEL] Epoch ended. INSTR misses = 86, DATA misses = 80. Winner = DATA
[DUEL] Epoch ended. INSTR misses = 78, DATA misses = 76. Winner = DATA
[DUEL] Epoch ended. INSTR misses = 51, DATA misses = 48. Winner = DATA
[DUEL] Epoch ended. INSTR misses = 111, DATA misses = 111. Winner = INSTR
[DUEL] Epoch ended. INSTR misses = 49, DATA misses = 48. Winner = DATA
[DUEL] Epoch ended. INSTR misses = 69, DATA misses = 86. Winner = INSTR
[DUEL] Epoch ended. INSTR misses = 96, DATA misses = 87. Winner = DATA
[DUEL] Epoch ended. INSTR misses = 37, DATA misses = 33. Winner = DATA
[DUEL] Epoch ended. INSTR misses = 97, DATA misses = 96. Winner = DATA
[DUEL] Epoch ended. INSTR misses = 129, DATA misses = 128. Winner = DATA
[DUEL] Epoch ended. INSTR misses = 34, DATA misses = 32. Winner = DATA
[DUEL] Epoch ended. INSTR misses = 82, DATA misses = 81. Winner = DATA
[DUEL] Epoch ended. INSTR misses = 79, DATA misses = 80. Winner = INSTR
[DUEL] Epoch ended. INSTR misses = 35, DATA misses = 38. Winner = INSTR
[DUEL] Epoch ended. INSTR misses = 67, DATA misses = 62. Winner = DATA
[DUEL] Epoch ended. INSTR misses = 66, DATA misses = 61. Winner = DATA
[DUEL] Epoch ended. INSTR misses = 50, DATA misses = 48. Winner = DATA
[DUEL] Epoch ended. INSTR misses = 23, DATA misses = 16. Winner = DATA
[DUEL] Epoch ended. INSTR misses = 20, DATA misses = 18. Winner = DATA
[DUEL] Epoch ended. INSTR misses = 218, DATA misses = 220. Winner = INSTR
[DUEL] Epoch ended. INSTR misses = 80, DATA misses = 77. Winner = DATA
[DUEL] Epoch ended. INSTR misses = 97, DATA misses = 96. Winner = DATA
[DUEL] Epoch ended. INSTR misses = 114, DATA misses = 112. Winner = DATA
[DUEL] Epoch ended. INSTR misses = 111, DATA misses = 109. Winner = DATA
[DUEL] Epoch ended. INSTR misses = 159, DATA misses = 161. Winner = INSTR
[DUEL] Epoch ended. INSTR misses = 82, DATA misses = 79. Winner = DATA
[DUEL] Epoch ended. INSTR misses = 239, DATA misses = 235. Winner = DATA
[DUEL] Epoch ended. INSTR misses = 128, DATA misses = 123. Winner = DATA
[DUEL] Epoch ended. INSTR misses = 112, DATA misses = 109. Winner = DATA
[DUEL] Epoch ended. INSTR misses = 174, DATA misses = 173. Winner = DATA
[DUEL] Epoch ended. INSTR misses = 130, DATA misses = 128. Winner = DATA
[DUEL] Epoch ended. INSTR misses = 66, DATA misses = 64. Winner = DATA
[DUEL] Epoch ended. INSTR misses = 82, DATA misses = 80. Winner = DATA
Heartbeat CPU 0 instructions: 100000001 cycles: 95689275 heartbeat IPC: 0.6058 cumulative IPC: 0.7723 (Simulation time: 00 hr 14 min 33 sec)
[DUEL] Epoch ended. INSTR misses = 113, DATA misses = 112. Winner = DATA
*** Reached end of trace: (0, "../traces/secret_traces/compute_fp/compute_fp_65.champsimtrace.xz")
[DUEL] Epoch ended. INSTR misses = 132, DATA misses = 132. Winner = INSTR
[DUEL] Epoch ended. INSTR misses = 24, DATA misses = 26. Winner = INSTR
[DUEL] Epoch ended. INSTR misses = 29, DATA misses = 82. Winner = INSTR
[DUEL] Epoch ended. INSTR misses = 42, DATA misses = 55. Winner = INSTR
[DUEL] Epoch ended. INSTR misses = 35, DATA misses = 51. Winner = INSTR
[DUEL] Epoch ended. INSTR misses = 45, DATA misses = 41. Winner = DATA
[DUEL] Epoch ended. INSTR misses = 23, DATA misses = 21. Winner = DATA
[DUEL] Epoch ended. INSTR misses = 52, DATA misses = 48. Winner = DATA
[DUEL] Epoch ended. INSTR misses = 32, DATA misses = 32. Winner = INSTR
[DUEL] Epoch ended. INSTR misses = 40, DATA misses = 38. Winner = DATA
[DUEL] Epoch ended. INSTR misses = 32, DATA misses = 32. Winner = INSTR
[DUEL] Epoch ended. INSTR misses = 16, DATA misses = 16. Winner = INSTR
[DUEL] Epoch ended. INSTR misses = 32, DATA misses = 33. Winner = INSTR
[DUEL] Epoch ended. INSTR misses = 18, DATA misses = 16. Winner = DATA
[DUEL] Epoch ended. INSTR misses = 23, DATA misses = 25. Winner = INSTR
[DUEL] Epoch ended. INSTR misses = 54, DATA misses = 45. Winner = DATA
[DUEL] Epoch ended. INSTR misses = 72, DATA misses = 66. Winner = DATA
[DUEL] Epoch ended. INSTR misses = 30, DATA misses = 47. Winner = INSTR
[DUEL] Epoch ended. INSTR misses = 35, DATA misses = 34. Winner = DATA
[DUEL] Epoch ended. INSTR misses = 38, DATA misses = 36. Winner = DATA
[DUEL] Epoch ended. INSTR misses = 19, DATA misses = 16. Winner = DATA
[DUEL] Epoch ended. INSTR misses = 29, DATA misses = 32. Winner = INSTR
[DUEL] Epoch ended. INSTR misses = 34, DATA misses = 27. Winner = DATA
[DUEL] Epoch ended. INSTR misses = 16, DATA misses = 21. Winner = INSTR
[DUEL] Epoch ended. INSTR misses = 38, DATA misses = 37. Winner = DATA
[DUEL] Epoch ended. INSTR misses = 20, DATA misses = 19. Winner = DATA
[DUEL] Epoch ended. INSTR misses = 38, DATA misses = 40. Winner = INSTR
[DUEL] Epoch ended. INSTR misses = 32, DATA misses = 33. Winner = INSTR
[DUEL] Epoch ended. INSTR misses = 53, DATA misses = 50. Winner = DATA
[DUEL] Epoch ended. INSTR misses = 32, DATA misses = 36. Winner = INSTR
[DUEL] Epoch ended. INSTR misses = 48, DATA misses = 48. Winner = INSTR
[DUEL] Epoch ended. INSTR misses = 16, DATA misses = 15. Winner = DATA
[DUEL] Epoch ended. INSTR misses = 0, DATA misses = 1. Winner = INSTR
[DUEL] Epoch ended. INSTR misses = 26, DATA misses = 27. Winner = INSTR
[DUEL] Epoch ended. INSTR misses = 43, DATA misses = 41. Winner = DATA
[DUEL] Epoch ended. INSTR misses = 24, DATA misses = 26. Winner = INSTR
[DUEL] Epoch ended. INSTR misses = 30, DATA misses = 36. Winner = INSTR
[DUEL] Epoch ended. INSTR misses = 69, DATA misses = 65. Winner = DATA
Heartbeat CPU 0 instructions: 110000009 cycles: 107366730 heartbeat IPC: 0.8564 cumulative IPC: 0.7819 (Simulation time: 00 hr 16 min 14 sec)
[DUEL] Epoch ended. INSTR misses = 46, DATA misses = 49. Winner = INSTR
[DUEL] Epoch ended. INSTR misses = 4, DATA misses = 0. Winner = DATA
[DUEL] Epoch ended. INSTR misses = 29, DATA misses = 32. Winner = INSTR
[DUEL] Epoch ended. INSTR misses = 29, DATA misses = 16. Winner = DATA
[DUEL] Epoch ended. INSTR misses = 3, DATA misses = 16. Winner = INSTR
[DUEL] Epoch ended. INSTR misses = 53, DATA misses = 52. Winner = DATA
[DUEL] Epoch ended. INSTR misses = 47, DATA misses = 32. Winner = DATA
[DUEL] Epoch ended. INSTR misses = 39, DATA misses = 56. Winner = INSTR
[DUEL] Epoch ended. INSTR misses = 30, DATA misses = 32. Winner = INSTR
[DUEL] Epoch ended. INSTR misses = 33, DATA misses = 34. Winner = INSTR
[DUEL] Epoch ended. INSTR misses = 54, DATA misses = 52. Winner = DATA
[DUEL] Epoch ended. INSTR misses = 32, DATA misses = 9. Winner = DATA
[DUEL] Epoch ended. INSTR misses = 16, DATA misses = 23. Winner = INSTR
[DUEL] Epoch ended. INSTR misses = 16, DATA misses = 32. Winner = INSTR
[DUEL] Epoch ended. INSTR misses = 23, DATA misses = 20. Winner = DATA
[DUEL] Epoch ended. INSTR misses = 46, DATA misses = 37. Winner = DATA
[DUEL] Epoch ended. INSTR misses = 26, DATA misses = 32. Winner = INSTR
[DUEL] Epoch ended. INSTR misses = 60, DATA misses = 49. Winner = DATA
[DUEL] Epoch ended. INSTR misses = 16, DATA misses = 19. Winner = INSTR
[DUEL] Epoch ended. INSTR misses = 50, DATA misses = 36. Winner = DATA
[DUEL] Epoch ended. INSTR misses = 4, DATA misses = 16. Winner = INSTR
[DUEL] Epoch ended. INSTR misses = 48, DATA misses = 48. Winner = INSTR
[DUEL] Epoch ended. INSTR misses = 32, DATA misses = 32. Winner = INSTR
[DUEL] Epoch ended. INSTR misses = 32, DATA misses = 23. Winner = DATA
[DUEL] Epoch ended. INSTR misses = 37, DATA misses = 41. Winner = INSTR
[DUEL] Epoch ended. INSTR misses = 63, DATA misses = 63. Winner = INSTR
[DUEL] Epoch ended. INSTR misses = 69, DATA misses = 55. Winner = DATA
[DUEL] Epoch ended. INSTR misses = 0, DATA misses = 14. Winner = INSTR
[DUEL] Epoch ended. INSTR misses = 24, DATA misses = 28. Winner = INSTR
[DUEL] Epoch ended. INSTR misses = 31, DATA misses = 27. Winner = DATA
[DUEL] Epoch ended. INSTR misses = 32, DATA misses = 20. Winner = DATA
[DUEL] Epoch ended. INSTR misses = 16, DATA misses = 28. Winner = INSTR
[DUEL] Epoch ended. INSTR misses = 16, DATA misses = 17. Winner = INSTR
[DUEL] Epoch ended. INSTR misses = 39, DATA misses = 37. Winner = DATA
[DUEL] Epoch ended. INSTR misses = 46, DATA misses = 40. Winner = DATA
[DUEL] Epoch ended. INSTR misses = 55, DATA misses = 57. Winner = INSTR
[DUEL] Epoch ended. INSTR misses = 50, DATA misses = 56. Winner = INSTR
[DUEL] Epoch ended. INSTR misses = 29, DATA misses = 24. Winner = DATA
[DUEL] Epoch ended. INSTR misses = 38, DATA misses = 38. Winner = INSTR
Heartbeat CPU 0 instructions: 120000009 cycles: 116561000 heartbeat IPC: 1.088 cumulative IPC: 0.8071 (Simulation time: 00 hr 17 min 39 sec)
[DUEL] Epoch ended. INSTR misses = 17, DATA misses = 16. Winner = DATA
[DUEL] Epoch ended. INSTR misses = 19, DATA misses = 16. Winner = DATA
[DUEL] Epoch ended. INSTR misses = 29, DATA misses = 33. Winner = INSTR
[DUEL] Epoch ended. INSTR misses = 27, DATA misses = 16. Winner = DATA
[DUEL] Epoch ended. INSTR misses = 35, DATA misses = 35. Winner = INSTR
[DUEL] Epoch ended. INSTR misses = 65, DATA misses = 65. Winner = INSTR
[DUEL] Epoch ended. INSTR misses = 78, DATA misses = 96. Winner = INSTR
[DUEL] Epoch ended. INSTR misses = 68, DATA misses = 57. Winner = DATA
[DUEL] Epoch ended. INSTR misses = 63, DATA misses = 64. Winner = INSTR
[DUEL] Epoch ended. INSTR misses = 64, DATA misses = 64. Winner = INSTR
[DUEL] Epoch ended. INSTR misses = 65, DATA misses = 68. Winner = INSTR
[DUEL] Epoch ended. INSTR misses = 111, DATA misses = 108. Winner = DATA
[DUEL] Epoch ended. INSTR misses = 96, DATA misses = 96. Winner = INSTR
[DUEL] Epoch ended. INSTR misses = 48, DATA misses = 48. Winner = INSTR
[DUEL] Epoch ended. INSTR misses = 80, DATA misses = 80. Winner = INSTR
[DUEL] Epoch ended. INSTR misses = 47, DATA misses = 48. Winner = INSTR
[DUEL] Epoch ended. INSTR misses = 49, DATA misses = 48. Winner = DATA
[DUEL] Epoch ended. INSTR misses = 48, DATA misses = 48. Winner = INSTR
[DUEL] Epoch ended. INSTR misses = 64, DATA misses = 62. Winner = DATA
[DUEL] Epoch ended. INSTR misses = 48, DATA misses = 46. Winner = DATA
[DUEL] Epoch ended. INSTR misses = 79, DATA misses = 79. Winner = INSTR
[DUEL] Epoch ended. INSTR misses = 32, DATA misses = 32. Winner = INSTR
[DUEL] Epoch ended. INSTR misses = 67, DATA misses = 65. Winner = DATA
[DUEL] Epoch ended. INSTR misses = 135, DATA misses = 128. Winner = DATA
[DUEL] Epoch ended. INSTR misses = 36, DATA misses = 34. Winner = DATA
[DUEL] Epoch ended. INSTR misses = 77, DATA misses = 78. Winner = INSTR
[DUEL] Epoch ended. INSTR misses = 93, DATA misses = 96. Winner = INSTR
[DUEL] Epoch ended. INSTR misses = 47, DATA misses = 43. Winner = DATA
[DUEL] Epoch ended. INSTR misses = 66, DATA misses = 69. Winner = INSTR
[DUEL] Epoch ended. INSTR misses = 64, DATA misses = 67. Winner = INSTR
[DUEL] Epoch ended. INSTR misses = 80, DATA misses = 81. Winner = INSTR
[DUEL] Epoch ended. INSTR misses = 32, DATA misses = 35. Winner = INSTR
[DUEL] Epoch ended. INSTR misses = 31, DATA misses = 32. Winner = INSTR
[DUEL] Epoch ended. INSTR misses = 49, DATA misses = 48. Winner = DATA
[DUEL] Epoch ended. INSTR misses = 64, DATA misses = 64. Winner = INSTR
[DUEL] Epoch ended. INSTR misses = 192, DATA misses = 189. Winner = DATA
[DUEL] Epoch ended. INSTR misses = 82, DATA misses = 77. Winner = DATA
[DUEL] Epoch ended. INSTR misses = 100, DATA misses = 96. Winner = DATA
[DUEL] Epoch ended. INSTR misses = 114, DATA misses = 112. Winner = DATA
Heartbeat CPU 0 instructions: 130000008 cycles: 128467540 heartbeat IPC: 0.8399 cumulative IPC: 0.8103 (Simulation time: 00 hr 19 min 35 sec)
Simulation finished CPU 0 instructions: 100000004 cycles: 123414091 cumulative IPC: 0.8103 (Simulation time: 00 hr 19 min 35 sec)
Simulation complete CPU 0 instructions: 100000004 cycles: 123414091 cumulative IPC: 0.8103 (Simulation time: 00 hr 19 min 35 sec)

ChampSim completed all CPUs

=== Simulation ===
CPU 0 runs ../traces/secret_traces/compute_fp/compute_fp_65.champsimtrace.xz
Region of Interest Statistics

CPU 0 cumulative IPC: 0.8103 instructions: 100000004 cycles: 123414091
CPU 0 Branch Prediction Accuracy: 99.8% MPKI: 0.1452 Average ROB Occupancy at Mispredict: 45.68
Branch type MPKI
BRANCH_DIRECT_JUMP: 0.00752
BRANCH_INDIRECT: 0.0686
BRANCH_CONDITIONAL: 0.0338
BRANCH_DIRECT_CALL: 0.0216
BRANCH_INDIRECT_CALL: 0.00225
BRANCH_RETURN: 0.0114

LLC TOTAL        ACCESS:    4942145 HIT:     479063 MISS:    4463082
LLC LOAD         ACCESS:     722989 HIT:      37045 MISS:     685944
LLC RFO          ACCESS:     883736 HIT:      61670 MISS:     822066
LLC PREFETCH     ACCESS:    2106850 HIT:     140733 MISS:    1966117
LLC WRITE        ACCESS:    1219447 HIT:     238996 MISS:     980451
LLC TRANSLATION  ACCESS:       9123 HIT:        619 MISS:       8504
LLC PREFETCH REQUESTED:          0 ISSUED:          0 USEFUL:          0 USELESS:          0
LLC AVERAGE MISS LATENCY: 459.1 cycles
cpu0_DTLB TOTAL        ACCESS:   18147170 HIT:   17638054 MISS:     509116
cpu0_DTLB LOAD         ACCESS:   18147170 HIT:   17638054 MISS:     509116
cpu0_DTLB RFO          ACCESS:          0 HIT:          0 MISS:          0
cpu0_DTLB PREFETCH     ACCESS:          0 HIT:          0 MISS:          0
cpu0_DTLB WRITE        ACCESS:          0 HIT:          0 MISS:          0
cpu0_DTLB TRANSLATION  ACCESS:          0 HIT:          0 MISS:          0
cpu0_DTLB PREFETCH REQUESTED:          0 ISSUED:          0 USEFUL:          0 USELESS:          0
cpu0_DTLB AVERAGE MISS LATENCY: 30.09 cycles
cpu0_ITLB TOTAL        ACCESS:    3242699 HIT:    3241118 MISS:       1581
cpu0_ITLB LOAD         ACCESS:    3242699 HIT:    3241118 MISS:       1581
cpu0_ITLB RFO          ACCESS:          0 HIT:          0 MISS:          0
cpu0_ITLB PREFETCH     ACCESS:          0 HIT:          0 MISS:          0
cpu0_ITLB WRITE        ACCESS:          0 HIT:          0 MISS:          0
cpu0_ITLB TRANSLATION  ACCESS:          0 HIT:          0 MISS:          0
cpu0_ITLB PREFETCH REQUESTED:          0 ISSUED:          0 USEFUL:          0 USELESS:          0
cpu0_ITLB AVERAGE MISS LATENCY: 66.27 cycles
cpu0_L1D TOTAL        ACCESS:   31881186 HIT:   17322411 MISS:   14558775
cpu0_L1D LOAD         ACCESS:   15526179 HIT:    8730904 MISS:    6795275
cpu0_L1D RFO          ACCESS:          0 HIT:          0 MISS:          0
cpu0_L1D PREFETCH     ACCESS:    4028197 HIT:    1926760 MISS:    2101437
cpu0_L1D WRITE        ACCESS:   12264255 HIT:    6650264 MISS:    5613991
cpu0_L1D TRANSLATION  ACCESS:      62555 HIT:      14483 MISS:      48072
cpu0_L1D PREFETCH REQUESTED:  239850444 ISSUED:    4028198 USEFUL:     434374 USELESS:      41213
cpu0_L1D AVERAGE MISS LATENCY: 92.84 cycles
cpu0_L1I TOTAL        ACCESS:    4827248 HIT:    4789153 MISS:      38095
cpu0_L1I LOAD         ACCESS:    2602980 HIT:    2590905 MISS:      12075
cpu0_L1I RFO          ACCESS:          0 HIT:          0 MISS:          0
cpu0_L1I PREFETCH     ACCESS:    2224268 HIT:    2198248 MISS:      26020
cpu0_L1I WRITE        ACCESS:          0 HIT:          0 MISS:          0
cpu0_L1I TRANSLATION  ACCESS:          0 HIT:          0 MISS:          0
cpu0_L1I PREFETCH REQUESTED:    6019334 ISSUED:    2224268 USEFUL:      14534 USELESS:       9250
cpu0_L1I AVERAGE MISS LATENCY: 137.8 cycles
cpu0_L2C TOTAL        ACCESS:   13366539 HIT:    6563232 MISS:    6803307
cpu0_L2C LOAD         ACCESS:    3644613 HIT:    1568998 MISS:    2075615
cpu0_L2C RFO          ACCESS:    1270153 HIT:     384498 MISS:     885655
cpu0_L2C PREFETCH     ACCESS:    6707231 HIT:    2874398 MISS:    3832833
cpu0_L2C WRITE        ACCESS:    1696753 HIT:    1696677 MISS:         76
cpu0_L2C TRANSLATION  ACCESS:      47789 HIT:      38661 MISS:       9128
cpu0_L2C PREFETCH REQUESTED:    5234811 ISSUED:    5166164 USEFUL:    1635962 USELESS:      89168
cpu0_L2C AVERAGE MISS LATENCY: 271.5 cycles
cpu0_STLB TOTAL        ACCESS:     237968 HIT:     175887 MISS:      62081
cpu0_STLB LOAD         ACCESS:     237968 HIT:     175887 MISS:      62081
cpu0_STLB RFO          ACCESS:          0 HIT:          0 MISS:          0
cpu0_STLB PREFETCH     ACCESS:          0 HIT:          0 MISS:          0
cpu0_STLB WRITE        ACCESS:          0 HIT:          0 MISS:          0
cpu0_STLB TRANSLATION  ACCESS:          0 HIT:          0 MISS:          0
cpu0_STLB PREFETCH REQUESTED:          0 ISSUED:          0 USEFUL:          0 USELESS:          0
cpu0_STLB AVERAGE MISS LATENCY: 335.7 cycles

DRAM Statistics

Channel 0 RQ ROW_BUFFER_HIT:     494421
  ROW_BUFFER_MISS:    1255887
 AVG DBUS CONGESTED CYCLE: 3.97
WQ ROW_BUFFER_HIT: Channel 0 
  ROW_BUFFER_MISS:      36605
  FULL:     533483

Channel 1 RQ ROW_BUFFER_HIT:     485718
  ROW_BUFFER_MISS:    1246104
 AVG DBUS CONGESTED CYCLE: 3.966
WQ ROW_BUFFER_HIT: Channel 1 
  ROW_BUFFER_MISS:      39207
  FULL:     530498
BERTI TO_L1: 22348677 TO_L2: 237309863 TO_L2_BC_MSHR: 160933835
BERTI AVG_LAT: 268.874 NUM_TRACK_LATENCY: 5486566 NUM_CANT_TRACK_LATENCY: 5285
BERTI CROSS_PAGE 34255590 NO_CROSS_PAGE: 225402950
BERTI FOUND_BERTI: 56058776 NO_FOUND_BERTI: 14245828
BERTI AVERAGE_ISSUED: 2.40639
CPU 0 L1I Entangling prefetcher final stats
IP accesses: 629 18a40 91476 / 2632652
IP misses: 44df 1137c0 1403 / 41747
IP hits: 0 0 0 / 0
IP late: 38e4 e3900 14 / 5908
IP wrong: ea8a 3aa280 24 / 9186
miss rate: 0.0158574
coverage: 0
coverage_late: 0.14152
accuracy: 0
accuracy_late: 0.391414
discarded: 0
evicts entangled j table: 0
evicts entangled k table: 1581
max bb size: 102
formats: 447 0 1353 735 318 679 0 
hist_lookups: 1064 1244 1021 929 766 646 526 408 334 252 192 140 91 55 23 0 30 3751 
hist_lookups_evict: 0.261507 %
hist_lookups_shortlat: 32.6971 %
bb_found_hist: 0 84527 132666 19281 61452 26964 3451 3826 1857 2093 4221 11411 32397 10905 19115 17887 988 13 1771 0 64999 1801 0 0 991 0 15 0 0 1786 0 0 1 0 0 0 0 0 0 0 0 0 0 0 0 0 0 0 0 2 0 0 0 0 0 0 0 0 0 0 0 0 0 0 
bb_found_summary: 3565492 504420 7.0685
entangled_found_hist: 0 128466 37035 12904 2946 315 96 0 
entangled_found_summary: 255183 181762 1.40395
bb_ent_found_hist: 0 32801 24056 21949 3095 12357 667 5724 154 3375 9179 5955 0 984 984 0 968 978 62645 0 14788 1441 0 0 5867 0 15 0 0 1785 0 0 1802 0 0 0 0 0 1 0 0 0 0 0 0 0 0 0 0 2 0 0 0 0 0 0 0 0 0 0 0 0 0 0 
bb_ent_found_summary: 2216973 211572 10.4786
