WARNING: physical memory size is smaller than virtual memory size.

*** ChampSim Multicore Out-of-Order Simulator ***
Warmup Instructions: 30000000
Simulation Instructions: 100000000
Number of CPUs: 1
Page size: 4096

BTB:
Basic BTB sets: 1024 ways: 8
Indirect:
history lengths: 0 0 10 16 27 44 60 96 109 219 449 487 714 1313 2146 3881 
ITTAGE tables: 64768 bytes;Region table: 240 bytes;IUM: 384 bytes;Total Storage= 65392 bytes;
RAS:
RAS size: 64
[LLC] INSTR Demand IPV: 1 2 2 1 4 Prefetch IPV: 1 2 1 1 4
[LLC] DATA  Demand IPV: 1 1 1 2 4 Prefetch IPV: 1 1 2 2 4
Berti Prefetcher
CPU 0 Entangling prefetcher
Off-chip DRAM Size: 8 GiB Channels: 2 Width: 64-bit Data Race: 6400 MT/s
[DUEL] Epoch ended. INSTR misses = 8, DATA misses = 17. Winner = INSTR
[DUEL] Epoch ended. INSTR misses = 101, DATA misses = 98. Winner = DATA
[DUEL] Epoch ended. INSTR misses = 49, DATA misses = 57. Winner = INSTR
[DUEL] Epoch ended. INSTR misses = 40, DATA misses = 32. Winner = DATA
[DUEL] Epoch ended. INSTR misses = 48, DATA misses = 48. Winner = INSTR
[DUEL] Epoch ended. INSTR misses = 74, DATA misses = 77. Winner = INSTR
[DUEL] Epoch ended. INSTR misses = 82, DATA misses = 84. Winner = INSTR
[DUEL] Epoch ended. INSTR misses = 54, DATA misses = 53. Winner = DATA
[DUEL] Epoch ended. INSTR misses = 58, DATA misses = 54. Winner = DATA
[DUEL] Epoch ended. INSTR misses = 62, DATA misses = 65. Winner = INSTR
[DUEL] Epoch ended. INSTR misses = 74, DATA misses = 64. Winner = DATA
[DUEL] Epoch ended. INSTR misses = 86, DATA misses = 94. Winner = INSTR
[DUEL] Epoch ended. INSTR misses = 65, DATA misses = 69. Winner = INSTR
[DUEL] Epoch ended. INSTR misses = 39, DATA misses = 37. Winner = DATA
[DUEL] Epoch ended. INSTR misses = 65, DATA misses = 58. Winner = DATA
[DUEL] Epoch ended. INSTR misses = 97, DATA misses = 84. Winner = DATA
[DUEL] Epoch ended. INSTR misses = 88, DATA misses = 93. Winner = INSTR
[DUEL] Epoch ended. INSTR misses = 96, DATA misses = 96. Winner = INSTR
[DUEL] Epoch ended. INSTR misses = 83, DATA misses = 84. Winner = INSTR
[DUEL] Epoch ended. INSTR misses = 72, DATA misses = 72. Winner = INSTR
[DUEL] Epoch ended. INSTR misses = 127, DATA misses = 116. Winner = DATA
[DUEL] Epoch ended. INSTR misses = 115, DATA misses = 119. Winner = INSTR
[DUEL] Epoch ended. INSTR misses = 52, DATA misses = 50. Winner = DATA
[DUEL] Epoch ended. INSTR misses = 115, DATA misses = 112. Winner = DATA
[DUEL] Epoch ended. INSTR misses = 39, DATA misses = 43. Winner = INSTR
[DUEL] Epoch ended. INSTR misses = 118, DATA misses = 113. Winner = DATA
[DUEL] Epoch ended. INSTR misses = 100, DATA misses = 94. Winner = DATA
[DUEL] Epoch ended. INSTR misses = 68, DATA misses = 72. Winner = INSTR
[DUEL] Epoch ended. INSTR misses = 109, DATA misses = 104. Winner = DATA
[DUEL] Epoch ended. INSTR misses = 104, DATA misses = 105. Winner = INSTR
[DUEL] Epoch ended. INSTR misses = 80, DATA misses = 71. Winner = DATA
[DUEL] Epoch ended. INSTR misses = 133, DATA misses = 141. Winner = INSTR
[DUEL] Epoch ended. INSTR misses = 106, DATA misses = 104. Winner = DATA
[DUEL] Epoch ended. INSTR misses = 85, DATA misses = 83. Winner = DATA
[DUEL] Epoch ended. INSTR misses = 117, DATA misses = 117. Winner = INSTR
[DUEL] Epoch ended. INSTR misses = 90, DATA misses = 96. Winner = INSTR
[DUEL] Epoch ended. INSTR misses = 110, DATA misses = 111. Winner = INSTR
[DUEL] Epoch ended. INSTR misses = 117, DATA misses = 108. Winner = DATA
[DUEL] Epoch ended. INSTR misses = 88, DATA misses = 86. Winner = DATA
Heartbeat CPU 0 instructions: 10000001 cycles: 1736115 heartbeat IPC: 5.76 cumulative IPC: 5.76 (Simulation time: 00 hr 00 min 24 sec)
[DUEL] Epoch ended. INSTR misses = 65, DATA misses = 67. Winner = INSTR
[DUEL] Epoch ended. INSTR misses = 87, DATA misses = 86. Winner = DATA
[DUEL] Epoch ended. INSTR misses = 0, DATA misses = 2. Winner = INSTR
[DUEL] Epoch ended. INSTR misses = 124, DATA misses = 122. Winner = DATA
[DUEL] Epoch ended. INSTR misses = 86, DATA misses = 86. Winner = INSTR
[DUEL] Epoch ended. INSTR misses = 109, DATA misses = 111. Winner = INSTR
[DUEL] Epoch ended. INSTR misses = 77, DATA misses = 75. Winner = DATA
[DUEL] Epoch ended. INSTR misses = 113, DATA misses = 116. Winner = INSTR
[DUEL] Epoch ended. INSTR misses = 81, DATA misses = 80. Winner = DATA
[DUEL] Epoch ended. INSTR misses = 60, DATA misses = 61. Winner = INSTR
[DUEL] Epoch ended. INSTR misses = 52, DATA misses = 52. Winner = INSTR
[DUEL] Epoch ended. INSTR misses = 50, DATA misses = 51. Winner = INSTR
[DUEL] Epoch ended. INSTR misses = 111, DATA misses = 113. Winner = INSTR
[DUEL] Epoch ended. INSTR misses = 89, DATA misses = 88. Winner = DATA
[DUEL] Epoch ended. INSTR misses = 78, DATA misses = 77. Winner = DATA
[DUEL] Epoch ended. INSTR misses = 103, DATA misses = 102. Winner = DATA
[DUEL] Epoch ended. INSTR misses = 63, DATA misses = 64. Winner = INSTR
[DUEL] Epoch ended. INSTR misses = 68, DATA misses = 69. Winner = INSTR
[DUEL] Epoch ended. INSTR misses = 131, DATA misses = 133. Winner = INSTR
[DUEL] Epoch ended. INSTR misses = 55, DATA misses = 54. Winner = DATA
[DUEL] Epoch ended. INSTR misses = 87, DATA misses = 86. Winner = DATA
[DUEL] Epoch ended. INSTR misses = 34, DATA misses = 36. Winner = INSTR
[DUEL] Epoch ended. INSTR misses = 84, DATA misses = 82. Winner = DATA
[DUEL] Epoch ended. INSTR misses = 74, DATA misses = 74. Winner = INSTR
[DUEL] Epoch ended. INSTR misses = 78, DATA misses = 76. Winner = DATA
[DUEL] Epoch ended. INSTR misses = 91, DATA misses = 92. Winner = INSTR
[DUEL] Epoch ended. INSTR misses = 102, DATA misses = 102. Winner = INSTR
[DUEL] Epoch ended. INSTR misses = 64, DATA misses = 65. Winner = INSTR
[DUEL] Epoch ended. INSTR misses = 104, DATA misses = 106. Winner = INSTR
[DUEL] Epoch ended. INSTR misses = 49, DATA misses = 47. Winner = DATA
[DUEL] Epoch ended. INSTR misses = 74, DATA misses = 73. Winner = DATA
[DUEL] Epoch ended. INSTR misses = 79, DATA misses = 79. Winner = INSTR
[DUEL] Epoch ended. INSTR misses = 71, DATA misses = 70. Winner = DATA
[DUEL] Epoch ended. INSTR misses = 65, DATA misses = 63. Winner = DATA
[DUEL] Epoch ended. INSTR misses = 53, DATA misses = 56. Winner = INSTR
[DUEL] Epoch ended. INSTR misses = 90, DATA misses = 89. Winner = DATA
[DUEL] Epoch ended. INSTR misses = 20, DATA misses = 23. Winner = INSTR
[DUEL] Epoch ended. INSTR misses = 77, DATA misses = 76. Winner = DATA
[DUEL] Epoch ended. INSTR misses = 87, DATA misses = 84. Winner = DATA
Heartbeat CPU 0 instructions: 20000007 cycles: 3428153 heartbeat IPC: 5.91 cumulative IPC: 5.834 (Simulation time: 00 hr 00 min 49 sec)
[DUEL] Epoch ended. INSTR misses = 75, DATA misses = 73. Winner = DATA
[DUEL] Epoch ended. INSTR misses = 73, DATA misses = 74. Winner = INSTR
[DUEL] Epoch ended. INSTR misses = 61, DATA misses = 60. Winner = DATA
[DUEL] Epoch ended. INSTR misses = 77, DATA misses = 77. Winner = INSTR
[DUEL] Epoch ended. INSTR misses = 46, DATA misses = 48. Winner = INSTR
[DUEL] Epoch ended. INSTR misses = 105, DATA misses = 106. Winner = INSTR
[DUEL] Epoch ended. INSTR misses = 43, DATA misses = 45. Winner = INSTR
[DUEL] Epoch ended. INSTR misses = 105, DATA misses = 105. Winner = INSTR
[DUEL] Epoch ended. INSTR misses = 32, DATA misses = 31. Winner = DATA
[DUEL] Epoch ended. INSTR misses = 92, DATA misses = 91. Winner = DATA
[DUEL] Epoch ended. INSTR misses = 45, DATA misses = 44. Winner = DATA
[DUEL] Epoch ended. INSTR misses = 62, DATA misses = 63. Winner = INSTR
[DUEL] Epoch ended. INSTR misses = 48, DATA misses = 47. Winner = DATA
[DUEL] Epoch ended. INSTR misses = 61, DATA misses = 62. Winner = INSTR
[DUEL] Epoch ended. INSTR misses = 113, DATA misses = 114. Winner = INSTR
[DUEL] Epoch ended. INSTR misses = 96, DATA misses = 93. Winner = DATA
[DUEL] Epoch ended. INSTR misses = 63, DATA misses = 71. Winner = INSTR
[DUEL] Epoch ended. INSTR misses = 70, DATA misses = 70. Winner = INSTR
[DUEL] Epoch ended. INSTR misses = 73, DATA misses = 74. Winner = INSTR
[DUEL] Epoch ended. INSTR misses = 60, DATA misses = 61. Winner = INSTR
[DUEL] Epoch ended. INSTR misses = 88, DATA misses = 89. Winner = INSTR
[DUEL] Epoch ended. INSTR misses = 87, DATA misses = 87. Winner = INSTR
[DUEL] Epoch ended. INSTR misses = 116, DATA misses = 115. Winner = DATA
[DUEL] Epoch ended. INSTR misses = 77, DATA misses = 77. Winner = INSTR
[DUEL] Epoch ended. INSTR misses = 125, DATA misses = 125. Winner = INSTR
[DUEL] Epoch ended. INSTR misses = 41, DATA misses = 43. Winner = INSTR
[DUEL] Epoch ended. INSTR misses = 71, DATA misses = 70. Winner = DATA
[DUEL] Epoch ended. INSTR misses = 103, DATA misses = 100. Winner = DATA
[DUEL] Epoch ended. INSTR misses = 49, DATA misses = 49. Winner = INSTR
[DUEL] Epoch ended. INSTR misses = 124, DATA misses = 121. Winner = DATA
[DUEL] Epoch ended. INSTR misses = 115, DATA misses = 118. Winner = INSTR
[DUEL] Epoch ended. INSTR misses = 159, DATA misses = 158. Winner = DATA
[DUEL] Epoch ended. INSTR misses = 75, DATA misses = 76. Winner = INSTR
[DUEL] Epoch ended. INSTR misses = 111, DATA misses = 110. Winner = DATA
[DUEL] Epoch ended. INSTR misses = 61, DATA misses = 61. Winner = INSTR
[DUEL] Epoch ended. INSTR misses = 93, DATA misses = 92. Winner = DATA
[DUEL] Epoch ended. INSTR misses = 74, DATA misses = 74. Winner = INSTR
[DUEL] Epoch ended. INSTR misses = 84, DATA misses = 81. Winner = DATA
[DUEL] Epoch ended. INSTR misses = 99, DATA misses = 97. Winner = DATA
Heartbeat CPU 0 instructions: 30000006 cycles: 5114522 heartbeat IPC: 5.93 cumulative IPC: 5.866 (Simulation time: 00 hr 01 min 13 sec)
Warmup finished CPU 0 instructions: 30000006 cycles: 5114523 cumulative IPC: 5.866 (Simulation time: 00 hr 01 min 13 sec)
Warmup complete CPU 0 instructions: 30000006 cycles: 5114523 cumulative IPC: 5.866 (Simulation time: 00 hr 01 min 13 sec)
[DUEL] Epoch ended. INSTR misses = 72, DATA misses = 71. Winner = DATA
[DUEL] Epoch ended. INSTR misses = 148, DATA misses = 148. Winner = INSTR
[DUEL] Epoch ended. INSTR misses = 54, DATA misses = 55. Winner = INSTR
[DUEL] Epoch ended. INSTR misses = 132, DATA misses = 131. Winner = DATA
[DUEL] Epoch ended. INSTR misses = 45, DATA misses = 45. Winner = INSTR
[DUEL] Epoch ended. INSTR misses = 117, DATA misses = 112. Winner = DATA
[DUEL] Epoch ended. INSTR misses = 57, DATA misses = 61. Winner = INSTR
[DUEL] Epoch ended. INSTR misses = 134, DATA misses = 135. Winner = INSTR
[DUEL] Epoch ended. INSTR misses = 63, DATA misses = 65. Winner = INSTR
[DUEL] Epoch ended. INSTR misses = 112, DATA misses = 112. Winner = INSTR
[DUEL] Epoch ended. INSTR misses = 54, DATA misses = 55. Winner = INSTR
[DUEL] Epoch ended. INSTR misses = 119, DATA misses = 118. Winner = DATA
[DUEL] Epoch ended. INSTR misses = 61, DATA misses = 60. Winner = DATA
[DUEL] Epoch ended. INSTR misses = 106, DATA misses = 106. Winner = INSTR
[DUEL] Epoch ended. INSTR misses = 47, DATA misses = 46. Winner = DATA
[DUEL] Epoch ended. INSTR misses = 103, DATA misses = 104. Winner = INSTR
[DUEL] Epoch ended. INSTR misses = 89, DATA misses = 90. Winner = INSTR
[DUEL] Epoch ended. INSTR misses = 89, DATA misses = 90. Winner = INSTR
[DUEL] Epoch ended. INSTR misses = 87, DATA misses = 86. Winner = DATA
[DUEL] Epoch ended. INSTR misses = 80, DATA misses = 80. Winner = INSTR
[DUEL] Epoch ended. INSTR misses = 89, DATA misses = 91. Winner = INSTR
[DUEL] Epoch ended. INSTR misses = 67, DATA misses = 66. Winner = DATA
[DUEL] Epoch ended. INSTR misses = 111, DATA misses = 113. Winner = INSTR
[DUEL] Epoch ended. INSTR misses = 67, DATA misses = 67. Winner = INSTR
[DUEL] Epoch ended. INSTR misses = 100, DATA misses = 99. Winner = DATA
[DUEL] Epoch ended. INSTR misses = 101, DATA misses = 95. Winner = DATA
[DUEL] Epoch ended. INSTR misses = 124, DATA misses = 129. Winner = INSTR
[DUEL] Epoch ended. INSTR misses = 71, DATA misses = 71. Winner = INSTR
[DUEL] Epoch ended. INSTR misses = 125, DATA misses = 126. Winner = INSTR
[DUEL] Epoch ended. INSTR misses = 38, DATA misses = 38. Winner = INSTR
[DUEL] Epoch ended. INSTR misses = 64, DATA misses = 64. Winner = INSTR
[DUEL] Epoch ended. INSTR misses = 119, DATA misses = 118. Winner = DATA
[DUEL] Epoch ended. INSTR misses = 93, DATA misses = 93. Winner = INSTR
[DUEL] Epoch ended. INSTR misses = 65, DATA misses = 63. Winner = DATA
[DUEL] Epoch ended. INSTR misses = 115, DATA misses = 115. Winner = INSTR
[DUEL] Epoch ended. INSTR misses = 134, DATA misses = 129. Winner = DATA
[DUEL] Epoch ended. INSTR misses = 51, DATA misses = 58. Winner = INSTR
[DUEL] Epoch ended. INSTR misses = 96, DATA misses = 95. Winner = DATA
[DUEL] Epoch ended. INSTR misses = 60, DATA misses = 61. Winner = INSTR
Heartbeat CPU 0 instructions: 40000003 cycles: 24745790 heartbeat IPC: 0.5094 cumulative IPC: 0.5094 (Simulation time: 00 hr 03 min 46 sec)
[DUEL] Epoch ended. INSTR misses = 106, DATA misses = 105. Winner = DATA
[DUEL] Epoch ended. INSTR misses = 61, DATA misses = 60. Winner = DATA
[DUEL] Epoch ended. INSTR misses = 78, DATA misses = 81. Winner = INSTR
[DUEL] Epoch ended. INSTR misses = 76, DATA misses = 74. Winner = DATA
[DUEL] Epoch ended. INSTR misses = 89, DATA misses = 90. Winner = INSTR
[DUEL] Epoch ended. INSTR misses = 96, DATA misses = 96. Winner = INSTR
[DUEL] Epoch ended. INSTR misses = 84, DATA misses = 83. Winner = DATA
[DUEL] Epoch ended. INSTR misses = 132, DATA misses = 130. Winner = DATA
[DUEL] Epoch ended. INSTR misses = 78, DATA misses = 73. Winner = DATA
[DUEL] Epoch ended. INSTR misses = 52, DATA misses = 55. Winner = INSTR
[DUEL] Epoch ended. INSTR misses = 43, DATA misses = 48. Winner = INSTR
[DUEL] Epoch ended. INSTR misses = 61, DATA misses = 61. Winner = INSTR
[DUEL] Epoch ended. INSTR misses = 106, DATA misses = 105. Winner = DATA
[DUEL] Epoch ended. INSTR misses = 90, DATA misses = 92. Winner = INSTR
[DUEL] Epoch ended. INSTR misses = 85, DATA misses = 83. Winner = DATA
[DUEL] Epoch ended. INSTR misses = 139, DATA misses = 141. Winner = INSTR
[DUEL] Epoch ended. INSTR misses = 66, DATA misses = 67. Winner = INSTR
[DUEL] Epoch ended. INSTR misses = 80, DATA misses = 80. Winner = INSTR
[DUEL] Epoch ended. INSTR misses = 77, DATA misses = 77. Winner = INSTR
[DUEL] Epoch ended. INSTR misses = 89, DATA misses = 90. Winner = INSTR
[DUEL] Epoch ended. INSTR misses = 101, DATA misses = 103. Winner = INSTR
[DUEL] Epoch ended. INSTR misses = 93, DATA misses = 92. Winner = DATA
[DUEL] Epoch ended. INSTR misses = 102, DATA misses = 103. Winner = INSTR
[DUEL] Epoch ended. INSTR misses = 134, DATA misses = 131. Winner = DATA
[DUEL] Epoch ended. INSTR misses = 82, DATA misses = 79. Winner = DATA
[DUEL] Epoch ended. INSTR misses = 71, DATA misses = 73. Winner = INSTR
[DUEL] Epoch ended. INSTR misses = 78, DATA misses = 76. Winner = DATA
[DUEL] Epoch ended. INSTR misses = 52, DATA misses = 55. Winner = INSTR
[DUEL] Epoch ended. INSTR misses = 127, DATA misses = 125. Winner = DATA
[DUEL] Epoch ended. INSTR misses = 108, DATA misses = 109. Winner = INSTR
[DUEL] Epoch ended. INSTR misses = 115, DATA misses = 115. Winner = INSTR
[DUEL] Epoch ended. INSTR misses = 109, DATA misses = 109. Winner = INSTR
[DUEL] Epoch ended. INSTR misses = 119, DATA misses = 117. Winner = DATA
[DUEL] Epoch ended. INSTR misses = 75, DATA misses = 75. Winner = INSTR
[DUEL] Epoch ended. INSTR misses = 103, DATA misses = 103. Winner = INSTR
[DUEL] Epoch ended. INSTR misses = 60, DATA misses = 60. Winner = INSTR
[DUEL] Epoch ended. INSTR misses = 99, DATA misses = 100. Winner = INSTR
[DUEL] Epoch ended. INSTR misses = 100, DATA misses = 99. Winner = DATA
[DUEL] Epoch ended. INSTR misses = 103, DATA misses = 102. Winner = DATA
Heartbeat CPU 0 instructions: 50000005 cycles: 44467325 heartbeat IPC: 0.5071 cumulative IPC: 0.5082 (Simulation time: 00 hr 06 min 20 sec)
[DUEL] Epoch ended. INSTR misses = 90, DATA misses = 89. Winner = DATA
[DUEL] Epoch ended. INSTR misses = 83, DATA misses = 84. Winner = INSTR
[DUEL] Epoch ended. INSTR misses = 80, DATA misses = 80. Winner = INSTR
[DUEL] Epoch ended. INSTR misses = 76, DATA misses = 79. Winner = INSTR
[DUEL] Epoch ended. INSTR misses = 98, DATA misses = 92. Winner = DATA
[DUEL] Epoch ended. INSTR misses = 132, DATA misses = 134. Winner = INSTR
[DUEL] Epoch ended. INSTR misses = 134, DATA misses = 129. Winner = DATA
[DUEL] Epoch ended. INSTR misses = 122, DATA misses = 120. Winner = DATA
[DUEL] Epoch ended. INSTR misses = 74, DATA misses = 80. Winner = INSTR
[DUEL] Epoch ended. INSTR misses = 45, DATA misses = 45. Winner = INSTR
[DUEL] Epoch ended. INSTR misses = 57, DATA misses = 57. Winner = INSTR
[DUEL] Epoch ended. INSTR misses = 93, DATA misses = 93. Winner = INSTR
[DUEL] Epoch ended. INSTR misses = 116, DATA misses = 114. Winner = DATA
[DUEL] Epoch ended. INSTR misses = 102, DATA misses = 102. Winner = INSTR
[DUEL] Epoch ended. INSTR misses = 77, DATA misses = 77. Winner = INSTR
[DUEL] Epoch ended. INSTR misses = 134, DATA misses = 134. Winner = INSTR
[DUEL] Epoch ended. INSTR misses = 82, DATA misses = 80. Winner = DATA
[DUEL] Epoch ended. INSTR misses = 84, DATA misses = 86. Winner = INSTR
[DUEL] Epoch ended. INSTR misses = 71, DATA misses = 59. Winner = DATA
[DUEL] Epoch ended. INSTR misses = 75, DATA misses = 80. Winner = INSTR
[DUEL] Epoch ended. INSTR misses = 110, DATA misses = 113. Winner = INSTR
[DUEL] Epoch ended. INSTR misses = 73, DATA misses = 78. Winner = INSTR
[DUEL] Epoch ended. INSTR misses = 93, DATA misses = 97. Winner = INSTR
[DUEL] Epoch ended. INSTR misses = 115, DATA misses = 116. Winner = INSTR
[DUEL] Epoch ended. INSTR misses = 55, DATA misses = 53. Winner = DATA
[DUEL] Epoch ended. INSTR misses = 99, DATA misses = 101. Winner = INSTR
[DUEL] Epoch ended. INSTR misses = 48, DATA misses = 48. Winner = INSTR
[DUEL] Epoch ended. INSTR misses = 103, DATA misses = 102. Winner = DATA
[DUEL] Epoch ended. INSTR misses = 109, DATA misses = 109. Winner = INSTR
[DUEL] Epoch ended. INSTR misses = 68, DATA misses = 67. Winner = DATA
[DUEL] Epoch ended. INSTR misses = 70, DATA misses = 70. Winner = INSTR
[DUEL] Epoch ended. INSTR misses = 68, DATA misses = 67. Winner = DATA
[DUEL] Epoch ended. INSTR misses = 83, DATA misses = 84. Winner = INSTR
[DUEL] Epoch ended. INSTR misses = 109, DATA misses = 108. Winner = DATA
[DUEL] Epoch ended. INSTR misses = 38, DATA misses = 39. Winner = INSTR
[DUEL] Epoch ended. INSTR misses = 89, DATA misses = 89. Winner = INSTR
[DUEL] Epoch ended. INSTR misses = 92, DATA misses = 94. Winner = INSTR
[DUEL] Epoch ended. INSTR misses = 63, DATA misses = 41. Winner = DATA
[DUEL] Epoch ended. INSTR misses = 24, DATA misses = 45. Winner = INSTR
Heartbeat CPU 0 instructions: 60000002 cycles: 64149829 heartbeat IPC: 0.5081 cumulative IPC: 0.5082 (Simulation time: 00 hr 08 min 55 sec)
[DUEL] Epoch ended. INSTR misses = 71, DATA misses = 71. Winner = INSTR
[DUEL] Epoch ended. INSTR misses = 105, DATA misses = 105. Winner = INSTR
[DUEL] Epoch ended. INSTR misses = 77, DATA misses = 75. Winner = DATA
[DUEL] Epoch ended. INSTR misses = 68, DATA misses = 68. Winner = INSTR
[DUEL] Epoch ended. INSTR misses = 71, DATA misses = 70. Winner = DATA
[DUEL] Epoch ended. INSTR misses = 97, DATA misses = 96. Winner = DATA
[DUEL] Epoch ended. INSTR misses = 66, DATA misses = 66. Winner = INSTR
[DUEL] Epoch ended. INSTR misses = 64, DATA misses = 65. Winner = INSTR
[DUEL] Epoch ended. INSTR misses = 70, DATA misses = 70. Winner = INSTR
[DUEL] Epoch ended. INSTR misses = 99, DATA misses = 100. Winner = INSTR
[DUEL] Epoch ended. INSTR misses = 48, DATA misses = 48. Winner = INSTR
[DUEL] Epoch ended. INSTR misses = 67, DATA misses = 67. Winner = INSTR
[DUEL] Epoch ended. INSTR misses = 68, DATA misses = 67. Winner = DATA
[DUEL] Epoch ended. INSTR misses = 70, DATA misses = 70. Winner = INSTR
[DUEL] Epoch ended. INSTR misses = 73, DATA misses = 69. Winner = DATA
[DUEL] Epoch ended. INSTR misses = 66, DATA misses = 62. Winner = DATA
[DUEL] Epoch ended. INSTR misses = 108, DATA misses = 114. Winner = INSTR
[DUEL] Epoch ended. INSTR misses = 97, DATA misses = 96. Winner = DATA
[DUEL] Epoch ended. INSTR misses = 87, DATA misses = 82. Winner = DATA
[DUEL] Epoch ended. INSTR misses = 86, DATA misses = 90. Winner = INSTR
[DUEL] Epoch ended. INSTR misses = 73, DATA misses = 73. Winner = INSTR
[DUEL] Epoch ended. INSTR misses = 54, DATA misses = 55. Winner = INSTR
[DUEL] Epoch ended. INSTR misses = 71, DATA misses = 70. Winner = DATA
[DUEL] Epoch ended. INSTR misses = 80, DATA misses = 80. Winner = INSTR
[DUEL] Epoch ended. INSTR misses = 93, DATA misses = 92. Winner = DATA
[DUEL] Epoch ended. INSTR misses = 85, DATA misses = 87. Winner = INSTR
[DUEL] Epoch ended. INSTR misses = 110, DATA misses = 109. Winner = DATA
[DUEL] Epoch ended. INSTR misses = 73, DATA misses = 74. Winner = INSTR
[DUEL] Epoch ended. INSTR misses = 90, DATA misses = 90. Winner = INSTR
[DUEL] Epoch ended. INSTR misses = 57, DATA misses = 58. Winner = INSTR
[DUEL] Epoch ended. INSTR misses = 73, DATA misses = 74. Winner = INSTR
[DUEL] Epoch ended. INSTR misses = 52, DATA misses = 52. Winner = INSTR
[DUEL] Epoch ended. INSTR misses = 48, DATA misses = 48. Winner = INSTR
[DUEL] Epoch ended. INSTR misses = 38, DATA misses = 38. Winner = INSTR
[DUEL] Epoch ended. INSTR misses = 116, DATA misses = 115. Winner = DATA
[DUEL] Epoch ended. INSTR misses = 57, DATA misses = 58. Winner = INSTR
[DUEL] Epoch ended. INSTR misses = 80, DATA misses = 80. Winner = INSTR
[DUEL] Epoch ended. INSTR misses = 102, DATA misses = 103. Winner = INSTR
[DUEL] Epoch ended. INSTR misses = 77, DATA misses = 77. Winner = INSTR
Heartbeat CPU 0 instructions: 70000007 cycles: 83834042 heartbeat IPC: 0.508 cumulative IPC: 0.5081 (Simulation time: 00 hr 11 min 29 sec)
[DUEL] Epoch ended. INSTR misses = 70, DATA misses = 69. Winner = DATA
[DUEL] Epoch ended. INSTR misses = 68, DATA misses = 68. Winner = INSTR
[DUEL] Epoch ended. INSTR misses = 58, DATA misses = 58. Winner = INSTR
[DUEL] Epoch ended. INSTR misses = 64, DATA misses = 64. Winner = INSTR
[DUEL] Epoch ended. INSTR misses = 74, DATA misses = 74. Winner = INSTR
[DUEL] Epoch ended. INSTR misses = 38, DATA misses = 38. Winner = INSTR
[DUEL] Epoch ended. INSTR misses = 86, DATA misses = 84. Winner = DATA
[DUEL] Epoch ended. INSTR misses = 59, DATA misses = 60. Winner = INSTR
[DUEL] Epoch ended. INSTR misses = 96, DATA misses = 78. Winner = DATA
[DUEL] Epoch ended. INSTR misses = 94, DATA misses = 108. Winner = INSTR
[DUEL] Epoch ended. INSTR misses = 83, DATA misses = 86. Winner = INSTR
[DUEL] Epoch ended. INSTR misses = 92, DATA misses = 94. Winner = INSTR
[DUEL] Epoch ended. INSTR misses = 114, DATA misses = 109. Winner = DATA
[DUEL] Epoch ended. INSTR misses = 65, DATA misses = 70. Winner = INSTR
[DUEL] Epoch ended. INSTR misses = 67, DATA misses = 67. Winner = INSTR
[DUEL] Epoch ended. INSTR misses = 90, DATA misses = 90. Winner = INSTR
[DUEL] Epoch ended. INSTR misses = 44, DATA misses = 45. Winner = INSTR
[DUEL] Epoch ended. INSTR misses = 45, DATA misses = 45. Winner = INSTR
[DUEL] Epoch ended. INSTR misses = 90, DATA misses = 90. Winner = INSTR
[DUEL] Epoch ended. INSTR misses = 84, DATA misses = 84. Winner = INSTR
[DUEL] Epoch ended. INSTR misses = 124, DATA misses = 125. Winner = INSTR
[DUEL] Epoch ended. INSTR misses = 73, DATA misses = 74. Winner = INSTR
[DUEL] Epoch ended. INSTR misses = 77, DATA misses = 76. Winner = DATA
[DUEL] Epoch ended. INSTR misses = 71, DATA misses = 70. Winner = DATA
[DUEL] Epoch ended. INSTR misses = 64, DATA misses = 64. Winner = INSTR
[DUEL] Epoch ended. INSTR misses = 49, DATA misses = 42. Winner = DATA
[DUEL] Epoch ended. INSTR misses = 41, DATA misses = 48. Winner = INSTR
[DUEL] Epoch ended. INSTR misses = 86, DATA misses = 86. Winner = INSTR
[DUEL] Epoch ended. INSTR misses = 86, DATA misses = 86. Winner = INSTR
[DUEL] Epoch ended. INSTR misses = 65, DATA misses = 64. Winner = DATA
[DUEL] Epoch ended. INSTR misses = 86, DATA misses = 86. Winner = INSTR
[DUEL] Epoch ended. INSTR misses = 58, DATA misses = 58. Winner = INSTR
[DUEL] Epoch ended. INSTR misses = 77, DATA misses = 76. Winner = DATA
[DUEL] Epoch ended. INSTR misses = 42, DATA misses = 42. Winner = INSTR
[DUEL] Epoch ended. INSTR misses = 58, DATA misses = 57. Winner = DATA
[DUEL] Epoch ended. INSTR misses = 38, DATA misses = 38. Winner = INSTR
[DUEL] Epoch ended. INSTR misses = 52, DATA misses = 51. Winner = DATA
[DUEL] Epoch ended. INSTR misses = 48, DATA misses = 48. Winner = INSTR
[DUEL] Epoch ended. INSTR misses = 54, DATA misses = 55. Winner = INSTR
Heartbeat CPU 0 instructions: 80000000 cycles: 103528116 heartbeat IPC: 0.5078 cumulative IPC: 0.5081 (Simulation time: 00 hr 14 min 04 sec)
[DUEL] Epoch ended. INSTR misses = 70, DATA misses = 70. Winner = INSTR
[DUEL] Epoch ended. INSTR misses = 37, DATA misses = 39. Winner = INSTR
[DUEL] Epoch ended. INSTR misses = 90, DATA misses = 90. Winner = INSTR
[DUEL] Epoch ended. INSTR misses = 87, DATA misses = 86. Winner = DATA
[DUEL] Epoch ended. INSTR misses = 74, DATA misses = 73. Winner = DATA
[DUEL] Epoch ended. INSTR misses = 50, DATA misses = 51. Winner = INSTR
[DUEL] Epoch ended. INSTR misses = 81, DATA misses = 80. Winner = DATA
[DUEL] Epoch ended. INSTR misses = 49, DATA misses = 49. Winner = INSTR
[DUEL] Epoch ended. INSTR misses = 57, DATA misses = 57. Winner = INSTR
[DUEL] Epoch ended. INSTR misses = 32, DATA misses = 32. Winner = INSTR
[DUEL] Epoch ended. INSTR misses = 74, DATA misses = 74. Winner = INSTR
[DUEL] Epoch ended. INSTR misses = 60, DATA misses = 61. Winner = INSTR
[DUEL] Epoch ended. INSTR misses = 67, DATA misses = 67. Winner = INSTR
[DUEL] Epoch ended. INSTR misses = 61, DATA misses = 60. Winner = DATA
[DUEL] Epoch ended. INSTR misses = 121, DATA misses = 121. Winner = INSTR
[DUEL] Epoch ended. INSTR misses = 64, DATA misses = 64. Winner = INSTR
[DUEL] Epoch ended. INSTR misses = 54, DATA misses = 54. Winner = INSTR
[DUEL] Epoch ended. INSTR misses = 45, DATA misses = 45. Winner = INSTR
[DUEL] Epoch ended. INSTR misses = 55, DATA misses = 55. Winner = INSTR
[DUEL] Epoch ended. INSTR misses = 53, DATA misses = 53. Winner = INSTR
[DUEL] Epoch ended. INSTR misses = 32, DATA misses = 32. Winner = INSTR
[DUEL] Epoch ended. INSTR misses = 132, DATA misses = 135. Winner = INSTR
[DUEL] Epoch ended. INSTR misses = 60, DATA misses = 62. Winner = INSTR
[DUEL] Epoch ended. INSTR misses = 68, DATA misses = 67. Winner = DATA
[DUEL] Epoch ended. INSTR misses = 94, DATA misses = 93. Winner = DATA
[DUEL] Epoch ended. INSTR misses = 96, DATA misses = 95. Winner = DATA
[DUEL] Epoch ended. INSTR misses = 73, DATA misses = 73. Winner = INSTR
[DUEL] Epoch ended. INSTR misses = 100, DATA misses = 100. Winner = INSTR
[DUEL] Epoch ended. INSTR misses = 44, DATA misses = 45. Winner = INSTR
[DUEL] Epoch ended. INSTR misses = 61, DATA misses = 61. Winner = INSTR
[DUEL] Epoch ended. INSTR misses = 68, DATA misses = 67. Winner = DATA
[DUEL] Epoch ended. INSTR misses = 119, DATA misses = 111. Winner = DATA
[DUEL] Epoch ended. INSTR misses = 76, DATA misses = 84. Winner = INSTR
[DUEL] Epoch ended. INSTR misses = 102, DATA misses = 102. Winner = INSTR
[DUEL] Epoch ended. INSTR misses = 112, DATA misses = 113. Winner = INSTR
[DUEL] Epoch ended. INSTR misses = 78, DATA misses = 76. Winner = DATA
[DUEL] Epoch ended. INSTR misses = 99, DATA misses = 100. Winner = INSTR
[DUEL] Epoch ended. INSTR misses = 70, DATA misses = 70. Winner = INSTR
[DUEL] Epoch ended. INSTR misses = 82, DATA misses = 84. Winner = INSTR
Heartbeat CPU 0 instructions: 90000000 cycles: 123051692 heartbeat IPC: 0.5122 cumulative IPC: 0.5087 (Simulation time: 00 hr 16 min 37 sec)
[DUEL] Epoch ended. INSTR misses = 92, DATA misses = 93. Winner = INSTR
[DUEL] Epoch ended. INSTR misses = 58, DATA misses = 57. Winner = DATA
[DUEL] Epoch ended. INSTR misses = 48, DATA misses = 48. Winner = INSTR
[DUEL] Epoch ended. INSTR misses = 109, DATA misses = 108. Winner = DATA
[DUEL] Epoch ended. INSTR misses = 51, DATA misses = 52. Winner = INSTR
[DUEL] Epoch ended. INSTR misses = 93, DATA misses = 92. Winner = DATA
[DUEL] Epoch ended. INSTR misses = 83, DATA misses = 83. Winner = INSTR
[DUEL] Epoch ended. INSTR misses = 89, DATA misses = 88. Winner = DATA
[DUEL] Epoch ended. INSTR misses = 87, DATA misses = 86. Winner = DATA
[DUEL] Epoch ended. INSTR misses = 62, DATA misses = 61. Winner = DATA
[DUEL] Epoch ended. INSTR misses = 51, DATA misses = 52. Winner = INSTR
[DUEL] Epoch ended. INSTR misses = 45, DATA misses = 45. Winner = INSTR
[DUEL] Epoch ended. INSTR misses = 45, DATA misses = 45. Winner = INSTR
[DUEL] Epoch ended. INSTR misses = 48, DATA misses = 48. Winner = INSTR
[DUEL] Epoch ended. INSTR misses = 23, DATA misses = 18. Winner = DATA
[DUEL] Epoch ended. INSTR misses = 58, DATA misses = 62. Winner = INSTR
[DUEL] Epoch ended. INSTR misses = 64, DATA misses = 64. Winner = INSTR
[DUEL] Epoch ended. INSTR misses = 93, DATA misses = 92. Winner = DATA
[DUEL] Epoch ended. INSTR misses = 80, DATA misses = 81. Winner = INSTR
[DUEL] Epoch ended. INSTR misses = 64, DATA misses = 57. Winner = DATA
[DUEL] Epoch ended. INSTR misses = 47, DATA misses = 49. Winner = INSTR
[DUEL] Epoch ended. INSTR misses = 31, DATA misses = 28. Winner = DATA
[DUEL] Epoch ended. INSTR misses = 48, DATA misses = 48. Winner = INSTR
[DUEL] Epoch ended. INSTR misses = 58, DATA misses = 57. Winner = DATA
[DUEL] Epoch ended. INSTR misses = 62, DATA misses = 57. Winner = DATA
[DUEL] Epoch ended. INSTR misses = 68, DATA misses = 71. Winner = INSTR
[DUEL] Epoch ended. INSTR misses = 81, DATA misses = 83. Winner = INSTR
[DUEL] Epoch ended. INSTR misses = 50, DATA misses = 47. Winner = DATA
[DUEL] Epoch ended. INSTR misses = 76, DATA misses = 78. Winner = INSTR
[DUEL] Epoch ended. INSTR misses = 45, DATA misses = 45. Winner = INSTR
[DUEL] Epoch ended. INSTR misses = 55, DATA misses = 48. Winner = DATA
[DUEL] Epoch ended. INSTR misses = 75, DATA misses = 79. Winner = INSTR
[DUEL] Epoch ended. INSTR misses = 87, DATA misses = 86. Winner = DATA
[DUEL] Epoch ended. INSTR misses = 98, DATA misses = 99. Winner = INSTR
[DUEL] Epoch ended. INSTR misses = 96, DATA misses = 96. Winner = INSTR
[DUEL] Epoch ended. INSTR misses = 93, DATA misses = 92. Winner = DATA
[DUEL] Epoch ended. INSTR misses = 77, DATA misses = 76. Winner = DATA
[DUEL] Epoch ended. INSTR misses = 96, DATA misses = 96. Winner = INSTR
[DUEL] Epoch ended. INSTR misses = 125, DATA misses = 124. Winner = DATA
Heartbeat CPU 0 instructions: 100000007 cycles: 144219319 heartbeat IPC: 0.4724 cumulative IPC: 0.5032 (Simulation time: 00 hr 19 min 22 sec)
*** Reached end of trace: (0, "../traces/secret_traces/compute_fp/compute_fp_110.champsimtrace.xz")
[DUEL] Epoch ended. INSTR misses = 142, DATA misses = 144. Winner = INSTR
[DUEL] Epoch ended. INSTR misses = 46, DATA misses = 60. Winner = INSTR
[DUEL] Epoch ended. INSTR misses = 24, DATA misses = 28. Winner = INSTR
[DUEL] Epoch ended. INSTR misses = 25, DATA misses = 21. Winner = DATA
[DUEL] Epoch ended. INSTR misses = 34, DATA misses = 32. Winner = DATA
[DUEL] Epoch ended. INSTR misses = 28, DATA misses = 30. Winner = INSTR
[DUEL] Epoch ended. INSTR misses = 104, DATA misses = 101. Winner = DATA
[DUEL] Epoch ended. INSTR misses = 61, DATA misses = 57. Winner = DATA
[DUEL] Epoch ended. INSTR misses = 49, DATA misses = 50. Winner = INSTR
[DUEL] Epoch ended. INSTR misses = 72, DATA misses = 67. Winner = DATA
[DUEL] Epoch ended. INSTR misses = 44, DATA misses = 47. Winner = INSTR
[DUEL] Epoch ended. INSTR misses = 90, DATA misses = 89. Winner = DATA
[DUEL] Epoch ended. INSTR misses = 73, DATA misses = 71. Winner = DATA
[DUEL] Epoch ended. INSTR misses = 62, DATA misses = 62. Winner = INSTR
[DUEL] Epoch ended. INSTR misses = 62, DATA misses = 56. Winner = DATA
[DUEL] Epoch ended. INSTR misses = 70, DATA misses = 65. Winner = DATA
[DUEL] Epoch ended. INSTR misses = 107, DATA misses = 105. Winner = DATA
[DUEL] Epoch ended. INSTR misses = 64, DATA misses = 59. Winner = DATA
[DUEL] Epoch ended. INSTR misses = 115, DATA misses = 115. Winner = INSTR
[DUEL] Epoch ended. INSTR misses = 44, DATA misses = 43. Winner = DATA
[DUEL] Epoch ended. INSTR misses = 82, DATA misses = 82. Winner = INSTR
[DUEL] Epoch ended. INSTR misses = 156, DATA misses = 155. Winner = DATA
[DUEL] Epoch ended. INSTR misses = 47, DATA misses = 46. Winner = DATA
[DUEL] Epoch ended. INSTR misses = 102, DATA misses = 102. Winner = INSTR
[DUEL] Epoch ended. INSTR misses = 81, DATA misses = 78. Winner = DATA
[DUEL] Epoch ended. INSTR misses = 81, DATA misses = 80. Winner = DATA
[DUEL] Epoch ended. INSTR misses = 115, DATA misses = 111. Winner = DATA
[DUEL] Epoch ended. INSTR misses = 58, DATA misses = 56. Winner = DATA
[DUEL] Epoch ended. INSTR misses = 119, DATA misses = 119. Winner = INSTR
[DUEL] Epoch ended. INSTR misses = 83, DATA misses = 81. Winner = DATA
[DUEL] Epoch ended. INSTR misses = 130, DATA misses = 131. Winner = INSTR
[DUEL] Epoch ended. INSTR misses = 76, DATA misses = 76. Winner = INSTR
[DUEL] Epoch ended. INSTR misses = 107, DATA misses = 107. Winner = INSTR
[DUEL] Epoch ended. INSTR misses = 92, DATA misses = 91. Winner = DATA
[DUEL] Epoch ended. INSTR misses = 106, DATA misses = 108. Winner = INSTR
[DUEL] Epoch ended. INSTR misses = 89, DATA misses = 89. Winner = INSTR
[DUEL] Epoch ended. INSTR misses = 90, DATA misses = 91. Winner = INSTR
[DUEL] Epoch ended. INSTR misses = 124, DATA misses = 119. Winner = DATA
[DUEL] Epoch ended. INSTR misses = 125, DATA misses = 126. Winner = INSTR
Heartbeat CPU 0 instructions: 110000010 cycles: 162615955 heartbeat IPC: 0.5436 cumulative IPC: 0.5079 (Simulation time: 00 hr 21 min 44 sec)
[DUEL] Epoch ended. INSTR misses = 61, DATA misses = 61. Winner = INSTR
[DUEL] Epoch ended. INSTR misses = 78, DATA misses = 80. Winner = INSTR
[DUEL] Epoch ended. INSTR misses = 55, DATA misses = 54. Winner = DATA
[DUEL] Epoch ended. INSTR misses = 64, DATA misses = 64. Winner = INSTR
[DUEL] Epoch ended. INSTR misses = 123, DATA misses = 125. Winner = INSTR
[DUEL] Epoch ended. INSTR misses = 89, DATA misses = 89. Winner = INSTR
[DUEL] Epoch ended. INSTR misses = 72, DATA misses = 74. Winner = INSTR
[DUEL] Epoch ended. INSTR misses = 102, DATA misses = 101. Winner = DATA
[DUEL] Epoch ended. INSTR misses = 76, DATA misses = 76. Winner = INSTR
[DUEL] Epoch ended. INSTR misses = 86, DATA misses = 86. Winner = INSTR
[DUEL] Epoch ended. INSTR misses = 47, DATA misses = 49. Winner = INSTR
[DUEL] Epoch ended. INSTR misses = 58, DATA misses = 58. Winner = INSTR
[DUEL] Epoch ended. INSTR misses = 79, DATA misses = 81. Winner = INSTR
[DUEL] Epoch ended. INSTR misses = 116, DATA misses = 117. Winner = INSTR
[DUEL] Epoch ended. INSTR misses = 75, DATA misses = 77. Winner = INSTR
[DUEL] Epoch ended. INSTR misses = 47, DATA misses = 43. Winner = DATA
[DUEL] Epoch ended. INSTR misses = 106, DATA misses = 109. Winner = INSTR
[DUEL] Epoch ended. INSTR misses = 97, DATA misses = 93. Winner = DATA
[DUEL] Epoch ended. INSTR misses = 69, DATA misses = 71. Winner = INSTR
[DUEL] Epoch ended. INSTR misses = 96, DATA misses = 95. Winner = DATA
[DUEL] Epoch ended. INSTR misses = 92, DATA misses = 93. Winner = INSTR
[DUEL] Epoch ended. INSTR misses = 51, DATA misses = 50. Winner = DATA
[DUEL] Epoch ended. INSTR misses = 63, DATA misses = 64. Winner = INSTR
[DUEL] Epoch ended. INSTR misses = 65, DATA misses = 62. Winner = DATA
[DUEL] Epoch ended. INSTR misses = 77, DATA misses = 76. Winner = DATA
[DUEL] Epoch ended. INSTR misses = 77, DATA misses = 76. Winner = DATA
[DUEL] Epoch ended. INSTR misses = 108, DATA misses = 108. Winner = INSTR
[DUEL] Epoch ended. INSTR misses = 102, DATA misses = 105. Winner = INSTR
[DUEL] Epoch ended. INSTR misses = 47, DATA misses = 48. Winner = INSTR
[DUEL] Epoch ended. INSTR misses = 75, DATA misses = 77. Winner = INSTR
[DUEL] Epoch ended. INSTR misses = 68, DATA misses = 63. Winner = DATA
[DUEL] Epoch ended. INSTR misses = 74, DATA misses = 72. Winner = DATA
[DUEL] Epoch ended. INSTR misses = 98, DATA misses = 99. Winner = INSTR
[DUEL] Epoch ended. INSTR misses = 58, DATA misses = 57. Winner = DATA
[DUEL] Epoch ended. INSTR misses = 82, DATA misses = 82. Winner = INSTR
[DUEL] Epoch ended. INSTR misses = 34, DATA misses = 36. Winner = INSTR
[DUEL] Epoch ended. INSTR misses = 67, DATA misses = 66. Winner = DATA
[DUEL] Epoch ended. INSTR misses = 47, DATA misses = 46. Winner = DATA
[DUEL] Epoch ended. INSTR misses = 94, DATA misses = 96. Winner = INSTR
Heartbeat CPU 0 instructions: 120000002 cycles: 181808943 heartbeat IPC: 0.521 cumulative IPC: 0.5094 (Simulation time: 00 hr 24 min 14 sec)
[DUEL] Epoch ended. INSTR misses = 61, DATA misses = 59. Winner = DATA
[DUEL] Epoch ended. INSTR misses = 108, DATA misses = 107. Winner = DATA
[DUEL] Epoch ended. INSTR misses = 43, DATA misses = 41. Winner = DATA
[DUEL] Epoch ended. INSTR misses = 71, DATA misses = 65. Winner = DATA
[DUEL] Epoch ended. INSTR misses = 53, DATA misses = 60. Winner = INSTR
[DUEL] Epoch ended. INSTR misses = 48, DATA misses = 52. Winner = INSTR
[DUEL] Epoch ended. INSTR misses = 93, DATA misses = 93. Winner = INSTR
[DUEL] Epoch ended. INSTR misses = 86, DATA misses = 88. Winner = INSTR
[DUEL] Epoch ended. INSTR misses = 71, DATA misses = 69. Winner = DATA
[DUEL] Epoch ended. INSTR misses = 73, DATA misses = 72. Winner = DATA
[DUEL] Epoch ended. INSTR misses = 45, DATA misses = 44. Winner = DATA
[DUEL] Epoch ended. INSTR misses = 64, DATA misses = 64. Winner = INSTR
[DUEL] Epoch ended. INSTR misses = 58, DATA misses = 58. Winner = INSTR
[DUEL] Epoch ended. INSTR misses = 45, DATA misses = 45. Winner = INSTR
[DUEL] Epoch ended. INSTR misses = 114, DATA misses = 116. Winner = INSTR
[DUEL] Epoch ended. INSTR misses = 85, DATA misses = 86. Winner = INSTR
[DUEL] Epoch ended. INSTR misses = 93, DATA misses = 95. Winner = INSTR
[DUEL] Epoch ended. INSTR misses = 63, DATA misses = 53. Winner = DATA
[DUEL] Epoch ended. INSTR misses = 70, DATA misses = 83. Winner = INSTR
[DUEL] Epoch ended. INSTR misses = 40, DATA misses = 38. Winner = DATA
[DUEL] Epoch ended. INSTR misses = 91, DATA misses = 92. Winner = INSTR
[DUEL] Epoch ended. INSTR misses = 62, DATA misses = 52. Winner = DATA
[DUEL] Epoch ended. INSTR misses = 119, DATA misses = 132. Winner = INSTR
[DUEL] Epoch ended. INSTR misses = 68, DATA misses = 67. Winner = DATA
[DUEL] Epoch ended. INSTR misses = 128, DATA misses = 129. Winner = INSTR
[DUEL] Epoch ended. INSTR misses = 83, DATA misses = 83. Winner = INSTR
[DUEL] Epoch ended. INSTR misses = 64, DATA misses = 65. Winner = INSTR
[DUEL] Epoch ended. INSTR misses = 68, DATA misses = 66. Winner = DATA
[DUEL] Epoch ended. INSTR misses = 93, DATA misses = 92. Winner = DATA
[DUEL] Epoch ended. INSTR misses = 58, DATA misses = 57. Winner = DATA
[DUEL] Epoch ended. INSTR misses = 151, DATA misses = 150. Winner = DATA
[DUEL] Epoch ended. INSTR misses = 137, DATA misses = 135. Winner = DATA
[DUEL] Epoch ended. INSTR misses = 117, DATA misses = 112. Winner = DATA
[DUEL] Epoch ended. INSTR misses = 93, DATA misses = 100. Winner = INSTR
[DUEL] Epoch ended. INSTR misses = 81, DATA misses = 81. Winner = INSTR
[DUEL] Epoch ended. INSTR misses = 76, DATA misses = 76. Winner = INSTR
[DUEL] Epoch ended. INSTR misses = 77, DATA misses = 75. Winner = DATA
[DUEL] Epoch ended. INSTR misses = 74, DATA misses = 74. Winner = INSTR
[DUEL] Epoch ended. INSTR misses = 101, DATA misses = 90. Winner = DATA
Heartbeat CPU 0 instructions: 130000005 cycles: 201283048 heartbeat IPC: 0.5135 cumulative IPC: 0.5098 (Simulation time: 00 hr 26 min 47 sec)
Simulation finished CPU 0 instructions: 100000000 cycles: 196168527 cumulative IPC: 0.5098 (Simulation time: 00 hr 26 min 47 sec)
Simulation complete CPU 0 instructions: 100000000 cycles: 196168527 cumulative IPC: 0.5098 (Simulation time: 00 hr 26 min 47 sec)

ChampSim completed all CPUs

=== Simulation ===
CPU 0 runs ../traces/secret_traces/compute_fp/compute_fp_110.champsimtrace.xz
Region of Interest Statistics

CPU 0 cumulative IPC: 0.5098 instructions: 100000000 cycles: 196168527
CPU 0 Branch Prediction Accuracy: 99.17% MPKI: 0.132 Average ROB Occupancy at Mispredict: 32.86
Branch type MPKI
BRANCH_DIRECT_JUMP: 0.00702
BRANCH_INDIRECT: 0.0668
BRANCH_CONDITIONAL: 0.0255
BRANCH_DIRECT_CALL: 0.0196
BRANCH_INDIRECT_CALL: 0.00227
BRANCH_RETURN: 0.0108

LLC TOTAL        ACCESS:    7824800 HIT:     344347 MISS:    7480453
LLC LOAD         ACCESS:      63784 HIT:        712 MISS:      63072
LLC RFO          ACCESS:    3297519 HIT:      98640 MISS:    3198879
LLC PREFETCH     ACCESS:    1152039 HIT:       1022 MISS:    1151017
LLC WRITE        ACCESS:    3309429 HIT:     243923 MISS:    3065506
LLC TRANSLATION  ACCESS:       2029 HIT:         50 MISS:       1979
LLC PREFETCH REQUESTED:          0 ISSUED:          0 USEFUL:          0 USELESS:          0
LLC AVERAGE MISS LATENCY: 513.6 cycles
cpu0_DTLB TOTAL        ACCESS:   12129623 HIT:   12004097 MISS:     125526
cpu0_DTLB LOAD         ACCESS:   12129623 HIT:   12004097 MISS:     125526
cpu0_DTLB RFO          ACCESS:          0 HIT:          0 MISS:          0
cpu0_DTLB PREFETCH     ACCESS:          0 HIT:          0 MISS:          0
cpu0_DTLB WRITE        ACCESS:          0 HIT:          0 MISS:          0
cpu0_DTLB TRANSLATION  ACCESS:          0 HIT:          0 MISS:          0
cpu0_DTLB PREFETCH REQUESTED:          0 ISSUED:          0 USEFUL:          0 USELESS:          0
cpu0_DTLB AVERAGE MISS LATENCY: 61.29 cycles
cpu0_ITLB TOTAL        ACCESS:     116580 HIT:     115075 MISS:       1505
cpu0_ITLB LOAD         ACCESS:     116580 HIT:     115075 MISS:       1505
cpu0_ITLB RFO          ACCESS:          0 HIT:          0 MISS:          0
cpu0_ITLB PREFETCH     ACCESS:          0 HIT:          0 MISS:          0
cpu0_ITLB WRITE        ACCESS:          0 HIT:          0 MISS:          0
cpu0_ITLB TRANSLATION  ACCESS:          0 HIT:          0 MISS:          0
cpu0_ITLB PREFETCH REQUESTED:          0 ISSUED:          0 USEFUL:          0 USELESS:          0
cpu0_ITLB AVERAGE MISS LATENCY: 67.03 cycles
cpu0_L1D TOTAL        ACCESS:   15219095 HIT:    5036349 MISS:   10182746
cpu0_L1D LOAD         ACCESS:    3024241 HIT:    1919450 MISS:    1104791
cpu0_L1D RFO          ACCESS:          0 HIT:          0 MISS:          0
cpu0_L1D PREFETCH     ACCESS:    3108477 HIT:    1192182 MISS:    1916295
cpu0_L1D WRITE        ACCESS:    9046794 HIT:    1921935 MISS:    7124859
cpu0_L1D TRANSLATION  ACCESS:      39583 HIT:       2782 MISS:      36801
cpu0_L1D PREFETCH REQUESTED:  156585862 ISSUED:    3108511 USEFUL:     256366 USELESS:        156
cpu0_L1D AVERAGE MISS LATENCY: 268.5 cycles
cpu0_L1I TOTAL        ACCESS:     168880 HIT:     134126 MISS:      34754
cpu0_L1I LOAD         ACCESS:      58788 HIT:      48346 MISS:      10442
cpu0_L1I RFO          ACCESS:          0 HIT:          0 MISS:          0
cpu0_L1I PREFETCH     ACCESS:     110092 HIT:      85780 MISS:      24312
cpu0_L1I WRITE        ACCESS:          0 HIT:          0 MISS:          0
cpu0_L1I TRANSLATION  ACCESS:          0 HIT:          0 MISS:          0
cpu0_L1I PREFETCH REQUESTED:     168722 ISSUED:     110092 USEFUL:      13319 USELESS:       9012
cpu0_L1I AVERAGE MISS LATENCY: 146.2 cycles
cpu0_L2C TOTAL        ACCESS:   18369709 HIT:   13203052 MISS:    5166657
cpu0_L2C LOAD         ACCESS:     943673 HIT:     826096 MISS:     117577
cpu0_L2C RFO          ACCESS:    6585642 HIT:    3288074 MISS:    3297568
cpu0_L2C PREFETCH     ACCESS:    4214473 HIT:    2464990 MISS:    1749483
cpu0_L2C WRITE        ACCESS:    6589132 HIT:    6589132 MISS:          0
cpu0_L2C TRANSLATION  ACCESS:      36789 HIT:      34760 MISS:       2029
cpu0_L2C PREFETCH REQUESTED:    2643576 ISSUED:    2581006 USEFUL:     524224 USELESS:      18448
cpu0_L2C AVERAGE MISS LATENCY: 757.3 cycles
cpu0_STLB TOTAL        ACCESS:      77189 HIT:      37822 MISS:      39367
cpu0_STLB LOAD         ACCESS:      77189 HIT:      37822 MISS:      39367
cpu0_STLB RFO          ACCESS:          0 HIT:          0 MISS:          0
cpu0_STLB PREFETCH     ACCESS:          0 HIT:          0 MISS:          0
cpu0_STLB WRITE        ACCESS:          0 HIT:          0 MISS:          0
cpu0_STLB TRANSLATION  ACCESS:          0 HIT:          0 MISS:          0
cpu0_STLB PREFETCH REQUESTED:          0 ISSUED:          0 USEFUL:          0 USELESS:          0
cpu0_STLB AVERAGE MISS LATENCY: 303.9 cycles

DRAM Statistics

Channel 0 RQ ROW_BUFFER_HIT:     342054
  ROW_BUFFER_MISS:    1866282
 AVG DBUS CONGESTED CYCLE: 3.989
WQ ROW_BUFFER_HIT: Channel 0 
  ROW_BUFFER_MISS:      75624
  FULL:    1533027

Channel 1 RQ ROW_BUFFER_HIT:     340043
  ROW_BUFFER_MISS:    1866513
 AVG DBUS CONGESTED CYCLE: 3.989
WQ ROW_BUFFER_HIT: Channel 1 
  ROW_BUFFER_MISS:      75562
  FULL:    1531474
BERTI TO_L1: 5008021 TO_L2: 158412951 TO_L2_BC_MSHR: 113785311
BERTI AVG_LAT: 415.392 NUM_TRACK_LATENCY: 1528072 NUM_CANT_TRACK_LATENCY: 21515
BERTI CROSS_PAGE 75354083 NO_CROSS_PAGE: 88066889
BERTI FOUND_BERTI: 15234880 NO_FOUND_BERTI: 3127615
BERTI AVERAGE_ISSUED: 5.85563
CPU 0 L1I Entangling prefetcher final stats
IP accesses: ea86 3aa180 1381 / 81596
IP misses: ea86 3aa180 1283 / 33250
IP hits: 0 0 0 / 0
IP late: 216f 85bc0 13 / 5487
IP wrong: 2173 85cc0 21 / 8959
miss rate: 0.407496
coverage: 0
coverage_late: 0.165023
accuracy: 0
accuracy_late: 0.379829
discarded: 0
evicts entangled j table: 0
evicts entangled k table: 1477
max bb size: 65
formats: 415 0 1279 728 276 596 0 
hist_lookups: 983 1134 957 852 733 633 511 434 361 268 155 125 76 51 38 0 3 3666 
hist_lookups_evict: 0.0273225 %
hist_lookups_shortlat: 33.388 %
bb_found_hist: 0 14353 6188 2744 1046 635 228 66 65 29 26 21 12 0 37 1 17 0 0 0 0 0 0 0 0 0 0 0 0 0 0 0 0 0 0 0 0 0 0 0 0 0 0 0 0 0 0 0 0 2 0 0 0 0 0 0 0 0 0 0 0 0 0 0 
bb_found_summary: 46469 25470 1.82447
entangled_found_hist: 0 7843 5490 9820 1804 403 35 0 
entangled_found_summary: 57724 25395 2.27305
bb_ent_found_hist: 0 19220 9723 5365 2425 1527 778 258 218 5 19 15 0 0 7 2 0 0 0 0 0 0 0 0 0 0 0 0 0 0 0 0 0 0 0 0 0 0 0 0 0 0 0 0 0 0 0 0 0 3 0 0 0 0 0 0 0 0 0 0 0 0 0 0 
bb_ent_found_summary: 80989 39565 2.04699
