WARNING: physical memory size is smaller than virtual memory size.

*** ChampSim Multicore Out-of-Order Simulator ***
Warmup Instructions: 30000000
Simulation Instructions: 100000000
Number of CPUs: 1
Page size: 4096

BTB:
Basic BTB sets: 1024 ways: 8
Indirect:
history lengths: 0 0 10 16 27 44 60 96 109 219 449 487 714 1313 2146 3881 
ITTAGE tables: 64768 bytes;Region table: 240 bytes;IUM: 384 bytes;Total Storage= 65392 bytes;
RAS:
RAS size: 64
[LLC] INSTR Demand IPV: 1 2 2 1 4 Prefetch IPV: 1 2 1 1 4
[LLC] DATA  Demand IPV: 1 1 1 2 4 Prefetch IPV: 1 1 2 2 4
Berti Prefetcher
CPU 0 Entangling prefetcher
Off-chip DRAM Size: 8 GiB Channels: 2 Width: 64-bit Data Race: 6400 MT/s
[DUEL] Epoch ended. INSTR misses = 17, DATA misses = 8. Winner = DATA
[DUEL] Epoch ended. INSTR misses = 110, DATA misses = 103. Winner = DATA
[DUEL] Epoch ended. INSTR misses = 61, DATA misses = 58. Winner = DATA
[DUEL] Epoch ended. INSTR misses = 28, DATA misses = 40. Winner = INSTR
[DUEL] Epoch ended. INSTR misses = 46, DATA misses = 46. Winner = INSTR
[DUEL] Epoch ended. INSTR misses = 58, DATA misses = 64. Winner = INSTR
[DUEL] Epoch ended. INSTR misses = 82, DATA misses = 75. Winner = DATA
[DUEL] Epoch ended. INSTR misses = 56, DATA misses = 68. Winner = INSTR
[DUEL] Epoch ended. INSTR misses = 52, DATA misses = 46. Winner = DATA
[DUEL] Epoch ended. INSTR misses = 58, DATA misses = 62. Winner = INSTR
[DUEL] Epoch ended. INSTR misses = 62, DATA misses = 60. Winner = DATA
[DUEL] Epoch ended. INSTR misses = 62, DATA misses = 65. Winner = INSTR
[DUEL] Epoch ended. INSTR misses = 50, DATA misses = 47. Winner = DATA
[DUEL] Epoch ended. INSTR misses = 77, DATA misses = 74. Winner = DATA
[DUEL] Epoch ended. INSTR misses = 47, DATA misses = 47. Winner = INSTR
[DUEL] Epoch ended. INSTR misses = 32, DATA misses = 31. Winner = DATA
[DUEL] Epoch ended. INSTR misses = 23, DATA misses = 26. Winner = INSTR
[DUEL] Epoch ended. INSTR misses = 32, DATA misses = 30. Winner = DATA
[DUEL] Epoch ended. INSTR misses = 32, DATA misses = 32. Winner = INSTR
[DUEL] Epoch ended. INSTR misses = 32, DATA misses = 32. Winner = INSTR
[DUEL] Epoch ended. INSTR misses = 22, DATA misses = 20. Winner = DATA
[DUEL] Epoch ended. INSTR misses = 48, DATA misses = 48. Winner = INSTR
[DUEL] Epoch ended. INSTR misses = 32, DATA misses = 28. Winner = DATA
[DUEL] Epoch ended. INSTR misses = 32, DATA misses = 32. Winner = INSTR
[DUEL] Epoch ended. INSTR misses = 23, DATA misses = 23. Winner = INSTR
[DUEL] Epoch ended. INSTR misses = 26, DATA misses = 18. Winner = DATA
[DUEL] Epoch ended. INSTR misses = 32, DATA misses = 32. Winner = INSTR
[DUEL] Epoch ended. INSTR misses = 47, DATA misses = 48. Winner = INSTR
[DUEL] Epoch ended. INSTR misses = 32, DATA misses = 32. Winner = INSTR
[DUEL] Epoch ended. INSTR misses = 17, DATA misses = 16. Winner = DATA
[DUEL] Epoch ended. INSTR misses = 38, DATA misses = 33. Winner = DATA
[DUEL] Epoch ended. INSTR misses = 34, DATA misses = 31. Winner = DATA
[DUEL] Epoch ended. INSTR misses = 52, DATA misses = 44. Winner = DATA
[DUEL] Epoch ended. INSTR misses = 26, DATA misses = 17. Winner = DATA
[DUEL] Epoch ended. INSTR misses = 26, DATA misses = 20. Winner = DATA
[DUEL] Epoch ended. INSTR misses = 33, DATA misses = 20. Winner = DATA
[DUEL] Epoch ended. INSTR misses = 31, DATA misses = 24. Winner = DATA
[DUEL] Epoch ended. INSTR misses = 11, DATA misses = 19. Winner = INSTR
[DUEL] Epoch ended. INSTR misses = 32, DATA misses = 35. Winner = INSTR
Heartbeat CPU 0 instructions: 10000006 cycles: 1791151 heartbeat IPC: 5.583 cumulative IPC: 5.583 (Simulation time: 00 hr 00 min 28 sec)
[DUEL] Epoch ended. INSTR misses = 27, DATA misses = 31. Winner = INSTR
[DUEL] Epoch ended. INSTR misses = 35, DATA misses = 32. Winner = DATA
[DUEL] Epoch ended. INSTR misses = 45, DATA misses = 39. Winner = DATA
[DUEL] Epoch ended. INSTR misses = 31, DATA misses = 30. Winner = DATA
[DUEL] Epoch ended. INSTR misses = 32, DATA misses = 32. Winner = INSTR
[DUEL] Epoch ended. INSTR misses = 32, DATA misses = 27. Winner = DATA
[DUEL] Epoch ended. INSTR misses = 32, DATA misses = 32. Winner = INSTR
[DUEL] Epoch ended. INSTR misses = 39, DATA misses = 36. Winner = DATA
[DUEL] Epoch ended. INSTR misses = 32, DATA misses = 32. Winner = INSTR
[DUEL] Epoch ended. INSTR misses = 32, DATA misses = 28. Winner = DATA
[DUEL] Epoch ended. INSTR misses = 32, DATA misses = 32. Winner = INSTR
[DUEL] Epoch ended. INSTR misses = 27, DATA misses = 32. Winner = INSTR
[DUEL] Epoch ended. INSTR misses = 37, DATA misses = 37. Winner = INSTR
[DUEL] Epoch ended. INSTR misses = 1, DATA misses = 6. Winner = INSTR
[DUEL] Epoch ended. INSTR misses = 0, DATA misses = 0. Winner = INSTR
[DUEL] Epoch ended. INSTR misses = 39, DATA misses = 40. Winner = INSTR
[DUEL] Epoch ended. INSTR misses = 0, DATA misses = 1. Winner = INSTR
[DUEL] Epoch ended. INSTR misses = 68, DATA misses = 75. Winner = INSTR
[DUEL] Epoch ended. INSTR misses = 90, DATA misses = 56. Winner = DATA
[DUEL] Epoch ended. INSTR misses = 66, DATA misses = 69. Winner = INSTR
[DUEL] Epoch ended. INSTR misses = 139, DATA misses = 131. Winner = DATA
[DUEL] Epoch ended. INSTR misses = 101, DATA misses = 119. Winner = INSTR
[DUEL] Epoch ended. INSTR misses = 74, DATA misses = 97. Winner = INSTR
[DUEL] Epoch ended. INSTR misses = 80, DATA misses = 93. Winner = INSTR
[DUEL] Epoch ended. INSTR misses = 65, DATA misses = 74. Winner = INSTR
[DUEL] Epoch ended. INSTR misses = 85, DATA misses = 100. Winner = INSTR
[DUEL] Epoch ended. INSTR misses = 70, DATA misses = 77. Winner = INSTR
[DUEL] Epoch ended. INSTR misses = 111, DATA misses = 96. Winner = DATA
[DUEL] Epoch ended. INSTR misses = 72, DATA misses = 85. Winner = INSTR
[DUEL] Epoch ended. INSTR misses = 106, DATA misses = 89. Winner = DATA
[DUEL] Epoch ended. INSTR misses = 90, DATA misses = 65. Winner = DATA
[DUEL] Epoch ended. INSTR misses = 96, DATA misses = 105. Winner = INSTR
[DUEL] Epoch ended. INSTR misses = 86, DATA misses = 81. Winner = DATA
[DUEL] Epoch ended. INSTR misses = 87, DATA misses = 104. Winner = INSTR
[DUEL] Epoch ended. INSTR misses = 111, DATA misses = 104. Winner = DATA
[DUEL] Epoch ended. INSTR misses = 73, DATA misses = 61. Winner = DATA
[DUEL] Epoch ended. INSTR misses = 94, DATA misses = 73. Winner = DATA
[DUEL] Epoch ended. INSTR misses = 86, DATA misses = 66. Winner = DATA
[DUEL] Epoch ended. INSTR misses = 82, DATA misses = 58. Winner = DATA
Heartbeat CPU 0 instructions: 20000004 cycles: 3481443 heartbeat IPC: 5.916 cumulative IPC: 5.745 (Simulation time: 00 hr 00 min 56 sec)
[DUEL] Epoch ended. INSTR misses = 90, DATA misses = 64. Winner = DATA
[DUEL] Epoch ended. INSTR misses = 73, DATA misses = 82. Winner = INSTR
[DUEL] Epoch ended. INSTR misses = 104, DATA misses = 110. Winner = INSTR
[DUEL] Epoch ended. INSTR misses = 94, DATA misses = 98. Winner = INSTR
[DUEL] Epoch ended. INSTR misses = 95, DATA misses = 75. Winner = DATA
[DUEL] Epoch ended. INSTR misses = 75, DATA misses = 65. Winner = DATA
[DUEL] Epoch ended. INSTR misses = 95, DATA misses = 79. Winner = DATA
[DUEL] Epoch ended. INSTR misses = 92, DATA misses = 95. Winner = INSTR
[DUEL] Epoch ended. INSTR misses = 91, DATA misses = 105. Winner = INSTR
[DUEL] Epoch ended. INSTR misses = 77, DATA misses = 54. Winner = DATA
[DUEL] Epoch ended. INSTR misses = 115, DATA misses = 89. Winner = DATA
[DUEL] Epoch ended. INSTR misses = 64, DATA misses = 50. Winner = DATA
[DUEL] Epoch ended. INSTR misses = 66, DATA misses = 102. Winner = INSTR
[DUEL] Epoch ended. INSTR misses = 96, DATA misses = 97. Winner = INSTR
[DUEL] Epoch ended. INSTR misses = 87, DATA misses = 90. Winner = INSTR
[DUEL] Epoch ended. INSTR misses = 120, DATA misses = 86. Winner = DATA
[DUEL] Epoch ended. INSTR misses = 89, DATA misses = 82. Winner = DATA
[DUEL] Epoch ended. INSTR misses = 83, DATA misses = 89. Winner = INSTR
[DUEL] Epoch ended. INSTR misses = 96, DATA misses = 88. Winner = DATA
[DUEL] Epoch ended. INSTR misses = 100, DATA misses = 115. Winner = INSTR
[DUEL] Epoch ended. INSTR misses = 110, DATA misses = 87. Winner = DATA
[DUEL] Epoch ended. INSTR misses = 123, DATA misses = 73. Winner = DATA
[DUEL] Epoch ended. INSTR misses = 79, DATA misses = 70. Winner = DATA
[DUEL] Epoch ended. INSTR misses = 82, DATA misses = 71. Winner = DATA
[DUEL] Epoch ended. INSTR misses = 77, DATA misses = 78. Winner = INSTR
[DUEL] Epoch ended. INSTR misses = 100, DATA misses = 97. Winner = DATA
[DUEL] Epoch ended. INSTR misses = 93, DATA misses = 73. Winner = DATA
[DUEL] Epoch ended. INSTR misses = 83, DATA misses = 93. Winner = INSTR
[DUEL] Epoch ended. INSTR misses = 68, DATA misses = 64. Winner = DATA
[DUEL] Epoch ended. INSTR misses = 70, DATA misses = 69. Winner = DATA
[DUEL] Epoch ended. INSTR misses = 81, DATA misses = 63. Winner = DATA
[DUEL] Epoch ended. INSTR misses = 74, DATA misses = 74. Winner = INSTR
[DUEL] Epoch ended. INSTR misses = 87, DATA misses = 102. Winner = INSTR
[DUEL] Epoch ended. INSTR misses = 69, DATA misses = 75. Winner = INSTR
[DUEL] Epoch ended. INSTR misses = 74, DATA misses = 72. Winner = DATA
[DUEL] Epoch ended. INSTR misses = 67, DATA misses = 87. Winner = INSTR
[DUEL] Epoch ended. INSTR misses = 63, DATA misses = 82. Winner = INSTR
[DUEL] Epoch ended. INSTR misses = 58, DATA misses = 63. Winner = INSTR
[DUEL] Epoch ended. INSTR misses = 117, DATA misses = 111. Winner = DATA
Heartbeat CPU 0 instructions: 30000006 cycles: 5189000 heartbeat IPC: 5.856 cumulative IPC: 5.781 (Simulation time: 00 hr 01 min 26 sec)
Warmup finished CPU 0 instructions: 30000006 cycles: 5189001 cumulative IPC: 5.781 (Simulation time: 00 hr 01 min 26 sec)
Warmup complete CPU 0 instructions: 30000006 cycles: 5189001 cumulative IPC: 5.781 (Simulation time: 00 hr 01 min 26 sec)
[DUEL] Epoch ended. INSTR misses = 88, DATA misses = 73. Winner = DATA
[DUEL] Epoch ended. INSTR misses = 0, DATA misses = 0. Winner = INSTR
[DUEL] Epoch ended. INSTR misses = 3, DATA misses = 1. Winner = DATA
[DUEL] Epoch ended. INSTR misses = 8, DATA misses = 2. Winner = DATA
[DUEL] Epoch ended. INSTR misses = 17, DATA misses = 17. Winner = INSTR
[DUEL] Epoch ended. INSTR misses = 9, DATA misses = 13. Winner = INSTR
[DUEL] Epoch ended. INSTR misses = 0, DATA misses = 0. Winner = INSTR
[DUEL] Epoch ended. INSTR misses = 10, DATA misses = 9. Winner = DATA
[DUEL] Epoch ended. INSTR misses = 10, DATA misses = 9. Winner = DATA
[DUEL] Epoch ended. INSTR misses = 17, DATA misses = 16. Winner = DATA
[DUEL] Epoch ended. INSTR misses = 1, DATA misses = 0. Winner = DATA
[DUEL] Epoch ended. INSTR misses = 0, DATA misses = 0. Winner = INSTR
[DUEL] Epoch ended. INSTR misses = 8, DATA misses = 8. Winner = INSTR
[DUEL] Epoch ended. INSTR misses = 18, DATA misses = 21. Winner = INSTR
[DUEL] Epoch ended. INSTR misses = 24, DATA misses = 23. Winner = DATA
[DUEL] Epoch ended. INSTR misses = 0, DATA misses = 0. Winner = INSTR
[DUEL] Epoch ended. INSTR misses = 0, DATA misses = 0. Winner = INSTR
[DUEL] Epoch ended. INSTR misses = 18, DATA misses = 16. Winner = DATA
[DUEL] Epoch ended. INSTR misses = 29, DATA misses = 16. Winner = DATA
[DUEL] Epoch ended. INSTR misses = 21, DATA misses = 17. Winner = DATA
[DUEL] Epoch ended. INSTR misses = 19, DATA misses = 23. Winner = INSTR
[DUEL] Epoch ended. INSTR misses = 10, DATA misses = 11. Winner = INSTR
[DUEL] Epoch ended. INSTR misses = 0, DATA misses = 0. Winner = INSTR
[DUEL] Epoch ended. INSTR misses = 48, DATA misses = 46. Winner = DATA
[DUEL] Epoch ended. INSTR misses = 31, DATA misses = 28. Winner = DATA
[DUEL] Epoch ended. INSTR misses = 0, DATA misses = 0. Winner = INSTR
[DUEL] Epoch ended. INSTR misses = 0, DATA misses = 0. Winner = INSTR
[DUEL] Epoch ended. INSTR misses = 15, DATA misses = 10. Winner = DATA
[DUEL] Epoch ended. INSTR misses = 15, DATA misses = 15. Winner = INSTR
[DUEL] Epoch ended. INSTR misses = 0, DATA misses = 0. Winner = INSTR
[DUEL] Epoch ended. INSTR misses = 31, DATA misses = 32. Winner = INSTR
[DUEL] Epoch ended. INSTR misses = 15, DATA misses = 13. Winner = DATA
[DUEL] Epoch ended. INSTR misses = 8, DATA misses = 0. Winner = DATA
[DUEL] Epoch ended. INSTR misses = 4, DATA misses = 12. Winner = INSTR
[DUEL] Epoch ended. INSTR misses = 14, DATA misses = 12. Winner = DATA
[DUEL] Epoch ended. INSTR misses = 13, DATA misses = 15. Winner = INSTR
[DUEL] Epoch ended. INSTR misses = 31, DATA misses = 30. Winner = DATA
[DUEL] Epoch ended. INSTR misses = 0, DATA misses = 0. Winner = INSTR
[DUEL] Epoch ended. INSTR misses = 16, DATA misses = 10. Winner = DATA
Heartbeat CPU 0 instructions: 40000002 cycles: 8223789 heartbeat IPC: 3.295 cumulative IPC: 3.295 (Simulation time: 00 hr 02 min 03 sec)
[DUEL] Epoch ended. INSTR misses = 16, DATA misses = 16. Winner = INSTR
[DUEL] Epoch ended. INSTR misses = 0, DATA misses = 0. Winner = INSTR
[DUEL] Epoch ended. INSTR misses = 16, DATA misses = 16. Winner = INSTR
[DUEL] Epoch ended. INSTR misses = 12, DATA misses = 8. Winner = DATA
[DUEL] Epoch ended. INSTR misses = 0, DATA misses = 0. Winner = INSTR
[DUEL] Epoch ended. INSTR misses = 16, DATA misses = 16. Winner = INSTR
[DUEL] Epoch ended. INSTR misses = 9, DATA misses = 6. Winner = DATA
[DUEL] Epoch ended. INSTR misses = 0, DATA misses = 0. Winner = INSTR
[DUEL] Epoch ended. INSTR misses = 23, DATA misses = 26. Winner = INSTR
[DUEL] Epoch ended. INSTR misses = 16, DATA misses = 16. Winner = INSTR
[DUEL] Epoch ended. INSTR misses = 15, DATA misses = 16. Winner = INSTR
[DUEL] Epoch ended. INSTR misses = 9, DATA misses = 11. Winner = INSTR
[DUEL] Epoch ended. INSTR misses = 16, DATA misses = 16. Winner = INSTR
[DUEL] Epoch ended. INSTR misses = 15, DATA misses = 16. Winner = INSTR
[DUEL] Epoch ended. INSTR misses = 9, DATA misses = 11. Winner = INSTR
[DUEL] Epoch ended. INSTR misses = 16, DATA misses = 16. Winner = INSTR
[DUEL] Epoch ended. INSTR misses = 1, DATA misses = 0. Winner = DATA
[DUEL] Epoch ended. INSTR misses = 25, DATA misses = 26. Winner = INSTR
[DUEL] Epoch ended. INSTR misses = 7, DATA misses = 2. Winner = DATA
[DUEL] Epoch ended. INSTR misses = 17, DATA misses = 1. Winner = DATA
[DUEL] Epoch ended. INSTR misses = 24, DATA misses = 31. Winner = INSTR
[DUEL] Epoch ended. INSTR misses = 19, DATA misses = 12. Winner = DATA
[DUEL] Epoch ended. INSTR misses = 29, DATA misses = 32. Winner = INSTR
[DUEL] Epoch ended. INSTR misses = 86, DATA misses = 91. Winner = INSTR
[DUEL] Epoch ended. INSTR misses = 49, DATA misses = 50. Winner = INSTR
[DUEL] Epoch ended. INSTR misses = 33, DATA misses = 32. Winner = DATA
[DUEL] Epoch ended. INSTR misses = 44, DATA misses = 41. Winner = DATA
[DUEL] Epoch ended. INSTR misses = 69, DATA misses = 75. Winner = INSTR
[DUEL] Epoch ended. INSTR misses = 34, DATA misses = 32. Winner = DATA
[DUEL] Epoch ended. INSTR misses = 67, DATA misses = 65. Winner = DATA
[DUEL] Epoch ended. INSTR misses = 52, DATA misses = 50. Winner = DATA
[DUEL] Epoch ended. INSTR misses = 86, DATA misses = 89. Winner = INSTR
[DUEL] Epoch ended. INSTR misses = 60, DATA misses = 73. Winner = INSTR
[DUEL] Epoch ended. INSTR misses = 66, DATA misses = 58. Winner = DATA
[DUEL] Epoch ended. INSTR misses = 61, DATA misses = 47. Winner = DATA
[DUEL] Epoch ended. INSTR misses = 64, DATA misses = 63. Winner = DATA
[DUEL] Epoch ended. INSTR misses = 73, DATA misses = 68. Winner = DATA
[DUEL] Epoch ended. INSTR misses = 41, DATA misses = 40. Winner = DATA
[DUEL] Epoch ended. INSTR misses = 59, DATA misses = 44. Winner = DATA
Heartbeat CPU 0 instructions: 50000010 cycles: 15265543 heartbeat IPC: 1.42 cumulative IPC: 1.985 (Simulation time: 00 hr 03 min 14 sec)
[DUEL] Epoch ended. INSTR misses = 76, DATA misses = 79. Winner = INSTR
[DUEL] Epoch ended. INSTR misses = 52, DATA misses = 49. Winner = DATA
[DUEL] Epoch ended. INSTR misses = 33, DATA misses = 32. Winner = DATA
[DUEL] Epoch ended. INSTR misses = 70, DATA misses = 75. Winner = INSTR
[DUEL] Epoch ended. INSTR misses = 57, DATA misses = 59. Winner = INSTR
[DUEL] Epoch ended. INSTR misses = 42, DATA misses = 42. Winner = INSTR
[DUEL] Epoch ended. INSTR misses = 54, DATA misses = 50. Winner = DATA
[DUEL] Epoch ended. INSTR misses = 17, DATA misses = 16. Winner = DATA
[DUEL] Epoch ended. INSTR misses = 15, DATA misses = 16. Winner = INSTR
[DUEL] Epoch ended. INSTR misses = 16, DATA misses = 16. Winner = INSTR
[DUEL] Epoch ended. INSTR misses = 16, DATA misses = 16. Winner = INSTR
[DUEL] Epoch ended. INSTR misses = 17, DATA misses = 16. Winner = DATA
[DUEL] Epoch ended. INSTR misses = 0, DATA misses = 0. Winner = INSTR
[DUEL] Epoch ended. INSTR misses = 17, DATA misses = 16. Winner = DATA
[DUEL] Epoch ended. INSTR misses = 47, DATA misses = 48. Winner = INSTR
[DUEL] Epoch ended. INSTR misses = 31, DATA misses = 32. Winner = INSTR
[DUEL] Epoch ended. INSTR misses = 48, DATA misses = 48. Winner = INSTR
[DUEL] Epoch ended. INSTR misses = 0, DATA misses = 0. Winner = INSTR
[DUEL] Epoch ended. INSTR misses = 33, DATA misses = 32. Winner = DATA
[DUEL] Epoch ended. INSTR misses = 1, DATA misses = 20. Winner = INSTR
[DUEL] Epoch ended. INSTR misses = 61, DATA misses = 44. Winner = DATA
[DUEL] Epoch ended. INSTR misses = 28, DATA misses = 16. Winner = DATA
[DUEL] Epoch ended. INSTR misses = 16, DATA misses = 16. Winner = INSTR
[DUEL] Epoch ended. INSTR misses = 32, DATA misses = 32. Winner = INSTR
[DUEL] Epoch ended. INSTR misses = 0, DATA misses = 0. Winner = INSTR
[DUEL] Epoch ended. INSTR misses = 43, DATA misses = 32. Winner = DATA
[DUEL] Epoch ended. INSTR misses = 21, DATA misses = 32. Winner = INSTR
[DUEL] Epoch ended. INSTR misses = 18, DATA misses = 16. Winner = DATA
[DUEL] Epoch ended. INSTR misses = 15, DATA misses = 16. Winner = INSTR
[DUEL] Epoch ended. INSTR misses = 17, DATA misses = 16. Winner = DATA
[DUEL] Epoch ended. INSTR misses = 16, DATA misses = 16. Winner = INSTR
[DUEL] Epoch ended. INSTR misses = 1, DATA misses = 0. Winner = DATA
[DUEL] Epoch ended. INSTR misses = 30, DATA misses = 32. Winner = INSTR
[DUEL] Epoch ended. INSTR misses = 16, DATA misses = 17. Winner = INSTR
[DUEL] Epoch ended. INSTR misses = 32, DATA misses = 31. Winner = DATA
[DUEL] Epoch ended. INSTR misses = 0, DATA misses = 0. Winner = INSTR
[DUEL] Epoch ended. INSTR misses = 31, DATA misses = 32. Winner = INSTR
[DUEL] Epoch ended. INSTR misses = 17, DATA misses = 16. Winner = DATA
[DUEL] Epoch ended. INSTR misses = 46, DATA misses = 62. Winner = INSTR
Heartbeat CPU 0 instructions: 60000009 cycles: 21531675 heartbeat IPC: 1.596 cumulative IPC: 1.836 (Simulation time: 00 hr 04 min 19 sec)
[DUEL] Epoch ended. INSTR misses = 28, DATA misses = 16. Winner = DATA
[DUEL] Epoch ended. INSTR misses = 16, DATA misses = 16. Winner = INSTR
[DUEL] Epoch ended. INSTR misses = 48, DATA misses = 36. Winner = DATA
[DUEL] Epoch ended. INSTR misses = 16, DATA misses = 16. Winner = INSTR
[DUEL] Epoch ended. INSTR misses = 16, DATA misses = 32. Winner = INSTR
[DUEL] Epoch ended. INSTR misses = 44, DATA misses = 18. Winner = DATA
[DUEL] Epoch ended. INSTR misses = 20, DATA misses = 19. Winner = DATA
[DUEL] Epoch ended. INSTR misses = 16, DATA misses = 16. Winner = INSTR
[DUEL] Epoch ended. INSTR misses = 27, DATA misses = 32. Winner = INSTR
[DUEL] Epoch ended. INSTR misses = 21, DATA misses = 16. Winner = DATA
[DUEL] Epoch ended. INSTR misses = 30, DATA misses = 21. Winner = DATA
[DUEL] Epoch ended. INSTR misses = 30, DATA misses = 32. Winner = INSTR
[DUEL] Epoch ended. INSTR misses = 16, DATA misses = 16. Winner = INSTR
[DUEL] Epoch ended. INSTR misses = 63, DATA misses = 54. Winner = DATA
[DUEL] Epoch ended. INSTR misses = 17, DATA misses = 35. Winner = INSTR
[DUEL] Epoch ended. INSTR misses = 29, DATA misses = 16. Winner = DATA
[DUEL] Epoch ended. INSTR misses = 32, DATA misses = 24. Winner = DATA
[DUEL] Epoch ended. INSTR misses = 31, DATA misses = 28. Winner = DATA
[DUEL] Epoch ended. INSTR misses = 31, DATA misses = 32. Winner = INSTR
[DUEL] Epoch ended. INSTR misses = 30, DATA misses = 22. Winner = DATA
[DUEL] Epoch ended. INSTR misses = 25, DATA misses = 34. Winner = INSTR
[DUEL] Epoch ended. INSTR misses = 64, DATA misses = 49. Winner = DATA
[DUEL] Epoch ended. INSTR misses = 0, DATA misses = 0. Winner = INSTR
[DUEL] Epoch ended. INSTR misses = 33, DATA misses = 28. Winner = DATA
[DUEL] Epoch ended. INSTR misses = 1, DATA misses = 0. Winner = DATA
[DUEL] Epoch ended. INSTR misses = 23, DATA misses = 26. Winner = INSTR
[DUEL] Epoch ended. INSTR misses = 23, DATA misses = 22. Winner = DATA
[DUEL] Epoch ended. INSTR misses = 16, DATA misses = 30. Winner = INSTR
[DUEL] Epoch ended. INSTR misses = 15, DATA misses = 2. Winner = DATA
[DUEL] Epoch ended. INSTR misses = 32, DATA misses = 32. Winner = INSTR
[DUEL] Epoch ended. INSTR misses = 16, DATA misses = 16. Winner = INSTR
[DUEL] Epoch ended. INSTR misses = 1, DATA misses = 0. Winner = DATA
[DUEL] Epoch ended. INSTR misses = 15, DATA misses = 16. Winner = INSTR
[DUEL] Epoch ended. INSTR misses = 16, DATA misses = 16. Winner = INSTR
[DUEL] Epoch ended. INSTR misses = 60, DATA misses = 64. Winner = INSTR
[DUEL] Epoch ended. INSTR misses = 0, DATA misses = 0. Winner = INSTR
[DUEL] Epoch ended. INSTR misses = 16, DATA misses = 16. Winner = INSTR
[DUEL] Epoch ended. INSTR misses = 16, DATA misses = 16. Winner = INSTR
[DUEL] Epoch ended. INSTR misses = 32, DATA misses = 32. Winner = INSTR
Heartbeat CPU 0 instructions: 70000001 cycles: 27179222 heartbeat IPC: 1.771 cumulative IPC: 1.819 (Simulation time: 00 hr 05 min 20 sec)
[DUEL] Epoch ended. INSTR misses = 0, DATA misses = 0. Winner = INSTR
[DUEL] Epoch ended. INSTR misses = 48, DATA misses = 48. Winner = INSTR
[DUEL] Epoch ended. INSTR misses = 31, DATA misses = 32. Winner = INSTR
[DUEL] Epoch ended. INSTR misses = 0, DATA misses = 0. Winner = INSTR
[DUEL] Epoch ended. INSTR misses = 32, DATA misses = 32. Winner = INSTR
[DUEL] Epoch ended. INSTR misses = 16, DATA misses = 16. Winner = INSTR
[DUEL] Epoch ended. INSTR misses = 16, DATA misses = 16. Winner = INSTR
[DUEL] Epoch ended. INSTR misses = 16, DATA misses = 16. Winner = INSTR
[DUEL] Epoch ended. INSTR misses = 32, DATA misses = 32. Winner = INSTR
[DUEL] Epoch ended. INSTR misses = 0, DATA misses = 2. Winner = INSTR
[DUEL] Epoch ended. INSTR misses = 45, DATA misses = 46. Winner = INSTR
[DUEL] Epoch ended. INSTR misses = 21, DATA misses = 32. Winner = INSTR
[DUEL] Epoch ended. INSTR misses = 10, DATA misses = 0. Winner = DATA
[DUEL] Epoch ended. INSTR misses = 32, DATA misses = 32. Winner = INSTR
[DUEL] Epoch ended. INSTR misses = 47, DATA misses = 48. Winner = INSTR
[DUEL] Epoch ended. INSTR misses = 32, DATA misses = 32. Winner = INSTR
[DUEL] Epoch ended. INSTR misses = 100, DATA misses = 99. Winner = DATA
[DUEL] Epoch ended. INSTR misses = 44, DATA misses = 44. Winner = INSTR
[DUEL] Epoch ended. INSTR misses = 48, DATA misses = 48. Winner = INSTR
[DUEL] Epoch ended. INSTR misses = 48, DATA misses = 48. Winner = INSTR
[DUEL] Epoch ended. INSTR misses = 32, DATA misses = 32. Winner = INSTR
[DUEL] Epoch ended. INSTR misses = 63, DATA misses = 64. Winner = INSTR
[DUEL] Epoch ended. INSTR misses = 33, DATA misses = 32. Winner = DATA
[DUEL] Epoch ended. INSTR misses = 32, DATA misses = 32. Winner = INSTR
[DUEL] Epoch ended. INSTR misses = 32, DATA misses = 32. Winner = INSTR
[DUEL] Epoch ended. INSTR misses = 38, DATA misses = 32. Winner = DATA
[DUEL] Epoch ended. INSTR misses = 48, DATA misses = 48. Winner = INSTR
[DUEL] Epoch ended. INSTR misses = 17, DATA misses = 16. Winner = DATA
[DUEL] Epoch ended. INSTR misses = 38, DATA misses = 34. Winner = DATA
[DUEL] Epoch ended. INSTR misses = 48, DATA misses = 48. Winner = INSTR
[DUEL] Epoch ended. INSTR misses = 32, DATA misses = 32. Winner = INSTR
[DUEL] Epoch ended. INSTR misses = 48, DATA misses = 48. Winner = INSTR
[DUEL] Epoch ended. INSTR misses = 47, DATA misses = 48. Winner = INSTR
[DUEL] Epoch ended. INSTR misses = 18, DATA misses = 16. Winner = DATA
[DUEL] Epoch ended. INSTR misses = 32, DATA misses = 32. Winner = INSTR
[DUEL] Epoch ended. INSTR misses = 58, DATA misses = 58. Winner = INSTR
[DUEL] Epoch ended. INSTR misses = 48, DATA misses = 48. Winner = INSTR
[DUEL] Epoch ended. INSTR misses = 32, DATA misses = 32. Winner = INSTR
[DUEL] Epoch ended. INSTR misses = 32, DATA misses = 32. Winner = INSTR
Heartbeat CPU 0 instructions: 80000005 cycles: 33379562 heartbeat IPC: 1.613 cumulative IPC: 1.774 (Simulation time: 00 hr 06 min 18 sec)
[DUEL] Epoch ended. INSTR misses = 32, DATA misses = 32. Winner = INSTR
[DUEL] Epoch ended. INSTR misses = 32, DATA misses = 32. Winner = INSTR
[DUEL] Epoch ended. INSTR misses = 32, DATA misses = 32. Winner = INSTR
[DUEL] Epoch ended. INSTR misses = 48, DATA misses = 48. Winner = INSTR
[DUEL] Epoch ended. INSTR misses = 32, DATA misses = 32. Winner = INSTR
[DUEL] Epoch ended. INSTR misses = 32, DATA misses = 32. Winner = INSTR
[DUEL] Epoch ended. INSTR misses = 32, DATA misses = 32. Winner = INSTR
[DUEL] Epoch ended. INSTR misses = 48, DATA misses = 48. Winner = INSTR
[DUEL] Epoch ended. INSTR misses = 32, DATA misses = 32. Winner = INSTR
[DUEL] Epoch ended. INSTR misses = 49, DATA misses = 48. Winner = DATA
[DUEL] Epoch ended. INSTR misses = 56, DATA misses = 59. Winner = INSTR
[DUEL] Epoch ended. INSTR misses = 32, DATA misses = 32. Winner = INSTR
[DUEL] Epoch ended. INSTR misses = 33, DATA misses = 32. Winner = DATA
[DUEL] Epoch ended. INSTR misses = 32, DATA misses = 32. Winner = INSTR
[DUEL] Epoch ended. INSTR misses = 46, DATA misses = 47. Winner = INSTR
[DUEL] Epoch ended. INSTR misses = 48, DATA misses = 48. Winner = INSTR
[DUEL] Epoch ended. INSTR misses = 46, DATA misses = 48. Winner = INSTR
[DUEL] Epoch ended. INSTR misses = 48, DATA misses = 48. Winner = INSTR
[DUEL] Epoch ended. INSTR misses = 32, DATA misses = 32. Winner = INSTR
[DUEL] Epoch ended. INSTR misses = 33, DATA misses = 32. Winner = DATA
[DUEL] Epoch ended. INSTR misses = 32, DATA misses = 32. Winner = INSTR
[DUEL] Epoch ended. INSTR misses = 32, DATA misses = 32. Winner = INSTR
[DUEL] Epoch ended. INSTR misses = 48, DATA misses = 46. Winner = DATA
[DUEL] Epoch ended. INSTR misses = 33, DATA misses = 32. Winner = DATA
[DUEL] Epoch ended. INSTR misses = 32, DATA misses = 32. Winner = INSTR
[DUEL] Epoch ended. INSTR misses = 41, DATA misses = 43. Winner = INSTR
[DUEL] Epoch ended. INSTR misses = 32, DATA misses = 32. Winner = INSTR
[DUEL] Epoch ended. INSTR misses = 33, DATA misses = 32. Winner = DATA
[DUEL] Epoch ended. INSTR misses = 32, DATA misses = 32. Winner = INSTR
[DUEL] Epoch ended. INSTR misses = 32, DATA misses = 32. Winner = INSTR
[DUEL] Epoch ended. INSTR misses = 32, DATA misses = 32. Winner = INSTR
[DUEL] Epoch ended. INSTR misses = 56, DATA misses = 48. Winner = DATA
[DUEL] Epoch ended. INSTR misses = 32, DATA misses = 32. Winner = INSTR
[DUEL] Epoch ended. INSTR misses = 64, DATA misses = 64. Winner = INSTR
[DUEL] Epoch ended. INSTR misses = 32, DATA misses = 32. Winner = INSTR
[DUEL] Epoch ended. INSTR misses = 48, DATA misses = 48. Winner = INSTR
[DUEL] Epoch ended. INSTR misses = 31, DATA misses = 32. Winner = INSTR
[DUEL] Epoch ended. INSTR misses = 33, DATA misses = 32. Winner = DATA
[DUEL] Epoch ended. INSTR misses = 47, DATA misses = 48. Winner = INSTR
Heartbeat CPU 0 instructions: 90000002 cycles: 39606310 heartbeat IPC: 1.606 cumulative IPC: 1.743 (Simulation time: 00 hr 07 min 14 sec)
[DUEL] Epoch ended. INSTR misses = 33, DATA misses = 32. Winner = DATA
[DUEL] Epoch ended. INSTR misses = 32, DATA misses = 32. Winner = INSTR
[DUEL] Epoch ended. INSTR misses = 43, DATA misses = 43. Winner = INSTR
[DUEL] Epoch ended. INSTR misses = 48, DATA misses = 48. Winner = INSTR
[DUEL] Epoch ended. INSTR misses = 17, DATA misses = 18. Winner = INSTR
[DUEL] Epoch ended. INSTR misses = 47, DATA misses = 46. Winner = DATA
[DUEL] Epoch ended. INSTR misses = 32, DATA misses = 32. Winner = INSTR
[DUEL] Epoch ended. INSTR misses = 48, DATA misses = 48. Winner = INSTR
[DUEL] Epoch ended. INSTR misses = 33, DATA misses = 32. Winner = DATA
[DUEL] Epoch ended. INSTR misses = 47, DATA misses = 48. Winner = INSTR
[DUEL] Epoch ended. INSTR misses = 32, DATA misses = 32. Winner = INSTR
[DUEL] Epoch ended. INSTR misses = 57, DATA misses = 54. Winner = DATA
[DUEL] Epoch ended. INSTR misses = 32, DATA misses = 32. Winner = INSTR
[DUEL] Epoch ended. INSTR misses = 48, DATA misses = 48. Winner = INSTR
[DUEL] Epoch ended. INSTR misses = 32, DATA misses = 32. Winner = INSTR
[DUEL] Epoch ended. INSTR misses = 32, DATA misses = 32. Winner = INSTR
[DUEL] Epoch ended. INSTR misses = 32, DATA misses = 32. Winner = INSTR
[DUEL] Epoch ended. INSTR misses = 48, DATA misses = 48. Winner = INSTR
[DUEL] Epoch ended. INSTR misses = 32, DATA misses = 32. Winner = INSTR
[DUEL] Epoch ended. INSTR misses = 63, DATA misses = 64. Winner = INSTR
[DUEL] Epoch ended. INSTR misses = 32, DATA misses = 32. Winner = INSTR
[DUEL] Epoch ended. INSTR misses = 48, DATA misses = 48. Winner = INSTR
[DUEL] Epoch ended. INSTR misses = 32, DATA misses = 32. Winner = INSTR
[DUEL] Epoch ended. INSTR misses = 48, DATA misses = 48. Winner = INSTR
[DUEL] Epoch ended. INSTR misses = 32, DATA misses = 32. Winner = INSTR
[DUEL] Epoch ended. INSTR misses = 32, DATA misses = 32. Winner = INSTR
[DUEL] Epoch ended. INSTR misses = 32, DATA misses = 32. Winner = INSTR
[DUEL] Epoch ended. INSTR misses = 39, DATA misses = 40. Winner = INSTR
[DUEL] Epoch ended. INSTR misses = 53, DATA misses = 48. Winner = DATA
[DUEL] Epoch ended. INSTR misses = 48, DATA misses = 48. Winner = INSTR
[DUEL] Epoch ended. INSTR misses = 32, DATA misses = 32. Winner = INSTR
[DUEL] Epoch ended. INSTR misses = 48, DATA misses = 48. Winner = INSTR
[DUEL] Epoch ended. INSTR misses = 32, DATA misses = 32. Winner = INSTR
[DUEL] Epoch ended. INSTR misses = 33, DATA misses = 32. Winner = DATA
[DUEL] Epoch ended. INSTR misses = 32, DATA misses = 31. Winner = DATA
[DUEL] Epoch ended. INSTR misses = 47, DATA misses = 48. Winner = INSTR
[DUEL] Epoch ended. INSTR misses = 36, DATA misses = 32. Winner = DATA
[DUEL] Epoch ended. INSTR misses = 25, DATA misses = 24. Winner = DATA
[DUEL] Epoch ended. INSTR misses = 48, DATA misses = 47. Winner = DATA
Heartbeat CPU 0 instructions: 100000003 cycles: 45615044 heartbeat IPC: 1.664 cumulative IPC: 1.732 (Simulation time: 00 hr 08 min 11 sec)
[DUEL] Epoch ended. INSTR misses = 32, DATA misses = 30. Winner = DATA
[DUEL] Epoch ended. INSTR misses = 32, DATA misses = 32. Winner = INSTR
[DUEL] Epoch ended. INSTR misses = 48, DATA misses = 48. Winner = INSTR
[DUEL] Epoch ended. INSTR misses = 32, DATA misses = 32. Winner = INSTR
[DUEL] Epoch ended. INSTR misses = 51, DATA misses = 63. Winner = INSTR
[DUEL] Epoch ended. INSTR misses = 26, DATA misses = 16. Winner = DATA
[DUEL] Epoch ended. INSTR misses = 48, DATA misses = 48. Winner = INSTR
[DUEL] Epoch ended. INSTR misses = 17, DATA misses = 20. Winner = INSTR
[DUEL] Epoch ended. INSTR misses = 49, DATA misses = 48. Winner = DATA
[DUEL] Epoch ended. INSTR misses = 24, DATA misses = 16. Winner = DATA
[DUEL] Epoch ended. INSTR misses = 43, DATA misses = 42. Winner = DATA
[DUEL] Epoch ended. INSTR misses = 64, DATA misses = 53. Winner = DATA
[DUEL] Epoch ended. INSTR misses = 44, DATA misses = 31. Winner = DATA
[DUEL] Epoch ended. INSTR misses = 53, DATA misses = 31. Winner = DATA
[DUEL] Epoch ended. INSTR misses = 59, DATA misses = 48. Winner = DATA
[DUEL] Epoch ended. INSTR misses = 19, DATA misses = 30. Winner = INSTR
[DUEL] Epoch ended. INSTR misses = 63, DATA misses = 62. Winner = DATA
[DUEL] Epoch ended. INSTR misses = 32, DATA misses = 32. Winner = INSTR
[DUEL] Epoch ended. INSTR misses = 48, DATA misses = 47. Winner = DATA
*** Reached end of trace: (0, "../traces/secret_traces/compute_fp/compute_fp_96.champsimtrace.xz")
[DUEL] Epoch ended. INSTR misses = 20, DATA misses = 12. Winner = DATA
[DUEL] Epoch ended. INSTR misses = 136, DATA misses = 130. Winner = DATA
[DUEL] Epoch ended. INSTR misses = 96, DATA misses = 91. Winner = DATA
[DUEL] Epoch ended. INSTR misses = 46, DATA misses = 71. Winner = INSTR
[DUEL] Epoch ended. INSTR misses = 28, DATA misses = 27. Winner = DATA
[DUEL] Epoch ended. INSTR misses = 83, DATA misses = 69. Winner = DATA
[DUEL] Epoch ended. INSTR misses = 62, DATA misses = 42. Winner = DATA
[DUEL] Epoch ended. INSTR misses = 57, DATA misses = 76. Winner = INSTR
[DUEL] Epoch ended. INSTR misses = 37, DATA misses = 32. Winner = DATA
[DUEL] Epoch ended. INSTR misses = 51, DATA misses = 51. Winner = INSTR
[DUEL] Epoch ended. INSTR misses = 42, DATA misses = 43. Winner = INSTR
[DUEL] Epoch ended. INSTR misses = 45, DATA misses = 40. Winner = DATA
[DUEL] Epoch ended. INSTR misses = 42, DATA misses = 39. Winner = DATA
[DUEL] Epoch ended. INSTR misses = 49, DATA misses = 44. Winner = DATA
[DUEL] Epoch ended. INSTR misses = 48, DATA misses = 44. Winner = DATA
[DUEL] Epoch ended. INSTR misses = 48, DATA misses = 48. Winner = INSTR
[DUEL] Epoch ended. INSTR misses = 32, DATA misses = 32. Winner = INSTR
[DUEL] Epoch ended. INSTR misses = 32, DATA misses = 30. Winner = DATA
[DUEL] Epoch ended. INSTR misses = 32, DATA misses = 32. Winner = INSTR
[DUEL] Epoch ended. INSTR misses = 32, DATA misses = 32. Winner = INSTR
Heartbeat CPU 0 instructions: 110000000 cycles: 54095413 heartbeat IPC: 1.179 cumulative IPC: 1.636 (Simulation time: 00 hr 09 min 20 sec)
[DUEL] Epoch ended. INSTR misses = 32, DATA misses = 32. Winner = INSTR
[DUEL] Epoch ended. INSTR misses = 32, DATA misses = 32. Winner = INSTR
[DUEL] Epoch ended. INSTR misses = 32, DATA misses = 32. Winner = INSTR
[DUEL] Epoch ended. INSTR misses = 48, DATA misses = 48. Winner = INSTR
[DUEL] Epoch ended. INSTR misses = 28, DATA misses = 31. Winner = INSTR
[DUEL] Epoch ended. INSTR misses = 32, DATA misses = 32. Winner = INSTR
[DUEL] Epoch ended. INSTR misses = 32, DATA misses = 32. Winner = INSTR
[DUEL] Epoch ended. INSTR misses = 48, DATA misses = 48. Winner = INSTR
[DUEL] Epoch ended. INSTR misses = 32, DATA misses = 32. Winner = INSTR
[DUEL] Epoch ended. INSTR misses = 17, DATA misses = 16. Winner = DATA
[DUEL] Epoch ended. INSTR misses = 40, DATA misses = 33. Winner = DATA
[DUEL] Epoch ended. INSTR misses = 34, DATA misses = 31. Winner = DATA
[DUEL] Epoch ended. INSTR misses = 50, DATA misses = 48. Winner = DATA
[DUEL] Epoch ended. INSTR misses = 25, DATA misses = 20. Winner = DATA
[DUEL] Epoch ended. INSTR misses = 28, DATA misses = 27. Winner = DATA
[DUEL] Epoch ended. INSTR misses = 33, DATA misses = 30. Winner = DATA
[DUEL] Epoch ended. INSTR misses = 25, DATA misses = 28. Winner = INSTR
[DUEL] Epoch ended. INSTR misses = 26, DATA misses = 20. Winner = DATA
[DUEL] Epoch ended. INSTR misses = 32, DATA misses = 33. Winner = INSTR
[DUEL] Epoch ended. INSTR misses = 32, DATA misses = 32. Winner = INSTR
[DUEL] Epoch ended. INSTR misses = 33, DATA misses = 32. Winner = DATA
[DUEL] Epoch ended. INSTR misses = 48, DATA misses = 48. Winner = INSTR
[DUEL] Epoch ended. INSTR misses = 32, DATA misses = 31. Winner = DATA
[DUEL] Epoch ended. INSTR misses = 32, DATA misses = 32. Winner = INSTR
[DUEL] Epoch ended. INSTR misses = 32, DATA misses = 31. Winner = DATA
[DUEL] Epoch ended. INSTR misses = 32, DATA misses = 32. Winner = INSTR
[DUEL] Epoch ended. INSTR misses = 54, DATA misses = 37. Winner = DATA
[DUEL] Epoch ended. INSTR misses = 32, DATA misses = 32. Winner = INSTR
[DUEL] Epoch ended. INSTR misses = 36, DATA misses = 32. Winner = DATA
[DUEL] Epoch ended. INSTR misses = 31, DATA misses = 32. Winner = INSTR
[DUEL] Epoch ended. INSTR misses = 32, DATA misses = 32. Winner = INSTR
[DUEL] Epoch ended. INSTR misses = 38, DATA misses = 37. Winner = DATA
[DUEL] Epoch ended. INSTR misses = 2, DATA misses = 4. Winner = INSTR
[DUEL] Epoch ended. INSTR misses = 0, DATA misses = 0. Winner = INSTR
[DUEL] Epoch ended. INSTR misses = 37, DATA misses = 40. Winner = INSTR
[DUEL] Epoch ended. INSTR misses = 0, DATA misses = 0. Winner = INSTR
[DUEL] Epoch ended. INSTR misses = 56, DATA misses = 57. Winner = INSTR
[DUEL] Epoch ended. INSTR misses = 94, DATA misses = 56. Winner = DATA
[DUEL] Epoch ended. INSTR misses = 40, DATA misses = 60. Winner = INSTR
Heartbeat CPU 0 instructions: 120000001 cycles: 60178868 heartbeat IPC: 1.644 cumulative IPC: 1.637 (Simulation time: 00 hr 10 min 14 sec)
[DUEL] Epoch ended. INSTR misses = 109, DATA misses = 91. Winner = DATA
[DUEL] Epoch ended. INSTR misses = 68, DATA misses = 92. Winner = INSTR
[DUEL] Epoch ended. INSTR misses = 67, DATA misses = 79. Winner = INSTR
[DUEL] Epoch ended. INSTR misses = 62, DATA misses = 81. Winner = INSTR
[DUEL] Epoch ended. INSTR misses = 55, DATA misses = 63. Winner = INSTR
[DUEL] Epoch ended. INSTR misses = 69, DATA misses = 76. Winner = INSTR
[DUEL] Epoch ended. INSTR misses = 87, DATA misses = 99. Winner = INSTR
[DUEL] Epoch ended. INSTR misses = 119, DATA misses = 104. Winner = DATA
[DUEL] Epoch ended. INSTR misses = 61, DATA misses = 61. Winner = INSTR
[DUEL] Epoch ended. INSTR misses = 108, DATA misses = 74. Winner = DATA
[DUEL] Epoch ended. INSTR misses = 73, DATA misses = 52. Winner = DATA
[DUEL] Epoch ended. INSTR misses = 88, DATA misses = 82. Winner = DATA
[DUEL] Epoch ended. INSTR misses = 74, DATA misses = 64. Winner = DATA
[DUEL] Epoch ended. INSTR misses = 75, DATA misses = 88. Winner = INSTR
[DUEL] Epoch ended. INSTR misses = 92, DATA misses = 83. Winner = DATA
[DUEL] Epoch ended. INSTR misses = 78, DATA misses = 57. Winner = DATA
[DUEL] Epoch ended. INSTR misses = 82, DATA misses = 66. Winner = DATA
[DUEL] Epoch ended. INSTR misses = 66, DATA misses = 56. Winner = DATA
[DUEL] Epoch ended. INSTR misses = 72, DATA misses = 50. Winner = DATA
[DUEL] Epoch ended. INSTR misses = 69, DATA misses = 56. Winner = DATA
[DUEL] Epoch ended. INSTR misses = 75, DATA misses = 76. Winner = INSTR
[DUEL] Epoch ended. INSTR misses = 99, DATA misses = 104. Winner = INSTR
[DUEL] Epoch ended. INSTR misses = 92, DATA misses = 93. Winner = INSTR
[DUEL] Epoch ended. INSTR misses = 73, DATA misses = 60. Winner = DATA
[DUEL] Epoch ended. INSTR misses = 76, DATA misses = 64. Winner = DATA
[DUEL] Epoch ended. INSTR misses = 93, DATA misses = 66. Winner = DATA
[DUEL] Epoch ended. INSTR misses = 84, DATA misses = 86. Winner = INSTR
[DUEL] Epoch ended. INSTR misses = 85, DATA misses = 118. Winner = INSTR
[DUEL] Epoch ended. INSTR misses = 66, DATA misses = 48. Winner = DATA
[DUEL] Epoch ended. INSTR misses = 87, DATA misses = 76. Winner = DATA
[DUEL] Epoch ended. INSTR misses = 75, DATA misses = 55. Winner = DATA
[DUEL] Epoch ended. INSTR misses = 54, DATA misses = 89. Winner = INSTR
[DUEL] Epoch ended. INSTR misses = 88, DATA misses = 96. Winner = INSTR
[DUEL] Epoch ended. INSTR misses = 88, DATA misses = 91. Winner = INSTR
[DUEL] Epoch ended. INSTR misses = 105, DATA misses = 78. Winner = DATA
[DUEL] Epoch ended. INSTR misses = 96, DATA misses = 72. Winner = DATA
[DUEL] Epoch ended. INSTR misses = 74, DATA misses = 82. Winner = INSTR
[DUEL] Epoch ended. INSTR misses = 65, DATA misses = 81. Winner = INSTR
[DUEL] Epoch ended. INSTR misses = 134, DATA misses = 115. Winner = DATA
Heartbeat CPU 0 instructions: 130000002 cycles: 77895508 heartbeat IPC: 0.5644 cumulative IPC: 1.375 (Simulation time: 00 hr 12 min 49 sec)
Simulation finished CPU 0 instructions: 100000008 cycles: 72706509 cumulative IPC: 1.375 (Simulation time: 00 hr 12 min 49 sec)
Simulation complete CPU 0 instructions: 100000008 cycles: 72706509 cumulative IPC: 1.375 (Simulation time: 00 hr 12 min 49 sec)

ChampSim completed all CPUs

=== Simulation ===
CPU 0 runs ../traces/secret_traces/compute_fp/compute_fp_96.champsimtrace.xz
Region of Interest Statistics

CPU 0 cumulative IPC: 1.375 instructions: 100000008 cycles: 72706509
CPU 0 Branch Prediction Accuracy: 98.61% MPKI: 2.709 Average ROB Occupancy at Mispredict: 60.52
Branch type MPKI
BRANCH_DIRECT_JUMP: 0.00788
BRANCH_INDIRECT: 0.0697
BRANCH_CONDITIONAL: 2.6
BRANCH_DIRECT_CALL: 0.0208
BRANCH_INDIRECT_CALL: 0.0024
BRANCH_RETURN: 0.0116

LLC TOTAL        ACCESS:    4149374 HIT:     478597 MISS:    3670777
LLC LOAD         ACCESS:     438576 HIT:      75622 MISS:     362954
LLC RFO          ACCESS:     246018 HIT:      13804 MISS:     232214
LLC PREFETCH     ACCESS:    2715180 HIT:     189270 MISS:    2525910
LLC WRITE        ACCESS:     741647 HIT:     199262 MISS:     542385
LLC TRANSLATION  ACCESS:       7953 HIT:        639 MISS:       7314
LLC PREFETCH REQUESTED:          0 ISSUED:          0 USEFUL:          0 USELESS:          0
LLC AVERAGE MISS LATENCY: 343.5 cycles
cpu0_DTLB TOTAL        ACCESS:   20939999 HIT:   20625846 MISS:     314153
cpu0_DTLB LOAD         ACCESS:   20939999 HIT:   20625846 MISS:     314153
cpu0_DTLB RFO          ACCESS:          0 HIT:          0 MISS:          0
cpu0_DTLB PREFETCH     ACCESS:          0 HIT:          0 MISS:          0
cpu0_DTLB WRITE        ACCESS:          0 HIT:          0 MISS:          0
cpu0_DTLB TRANSLATION  ACCESS:          0 HIT:          0 MISS:          0
cpu0_DTLB PREFETCH REQUESTED:          0 ISSUED:          0 USEFUL:          0 USELESS:          0
cpu0_DTLB AVERAGE MISS LATENCY: 24.48 cycles
cpu0_ITLB TOTAL        ACCESS:     120961 HIT:     119448 MISS:       1513
cpu0_ITLB LOAD         ACCESS:     120961 HIT:     119448 MISS:       1513
cpu0_ITLB RFO          ACCESS:          0 HIT:          0 MISS:          0
cpu0_ITLB PREFETCH     ACCESS:          0 HIT:          0 MISS:          0
cpu0_ITLB WRITE        ACCESS:          0 HIT:          0 MISS:          0
cpu0_ITLB TRANSLATION  ACCESS:          0 HIT:          0 MISS:          0
cpu0_ITLB PREFETCH REQUESTED:          0 ISSUED:          0 USEFUL:          0 USELESS:          0
cpu0_ITLB AVERAGE MISS LATENCY: 64.28 cycles
cpu0_L1D TOTAL        ACCESS:   42183216 HIT:   28930849 MISS:   13252367
cpu0_L1D LOAD         ACCESS:   19573883 HIT:   15387190 MISS:    4186693
cpu0_L1D RFO          ACCESS:          0 HIT:          0 MISS:          0
cpu0_L1D PREFETCH     ACCESS:   16905437 HIT:   10018686 MISS:    6886751
cpu0_L1D WRITE        ACCESS:    5649948 HIT:    3492901 MISS:    2157047
cpu0_L1D TRANSLATION  ACCESS:      53948 HIT:      32072 MISS:      21876
cpu0_L1D PREFETCH REQUESTED:  148879264 ISSUED:   16905431 USEFUL:    1575013 USELESS:      90530
cpu0_L1D AVERAGE MISS LATENCY: 52.67 cycles
cpu0_L1I TOTAL        ACCESS:     175016 HIT:     138837 MISS:      36179
cpu0_L1I LOAD         ACCESS:      60398 HIT:      49685 MISS:      10713
cpu0_L1I RFO          ACCESS:          0 HIT:          0 MISS:          0
cpu0_L1I PREFETCH     ACCESS:     114618 HIT:      89152 MISS:      25466
cpu0_L1I WRITE        ACCESS:          0 HIT:          0 MISS:          0
cpu0_L1I TRANSLATION  ACCESS:          0 HIT:          0 MISS:          0
cpu0_L1I PREFETCH REQUESTED:     170812 ISSUED:     114618 USEFUL:      14210 USELESS:       9196
cpu0_L1I AVERAGE MISS LATENCY: 127.3 cycles
cpu0_L2C TOTAL        ACCESS:   14765076 HIT:    5092346 MISS:    9672730
cpu0_L2C LOAD         ACCESS:    1337361 HIT:     503027 MISS:     834334
cpu0_L2C RFO          ACCESS:     252037 HIT:       5834 MISS:     246203
cpu0_L2C PREFETCH     ACCESS:   12355258 HIT:    3771018 MISS:    8584240
cpu0_L2C WRITE        ACCESS:     798667 HIT:     798667 MISS:          0
cpu0_L2C TRANSLATION  ACCESS:      21753 HIT:      13800 MISS:       7953
cpu0_L2C PREFETCH REQUESTED:    7075193 ISSUED:    6756335 USEFUL:     566681 USELESS:     431278
cpu0_L2C AVERAGE MISS LATENCY: 129.5 cycles
cpu0_STLB TOTAL        ACCESS:     124272 HIT:      70965 MISS:      53307
cpu0_STLB LOAD         ACCESS:     124272 HIT:      70965 MISS:      53307
cpu0_STLB RFO          ACCESS:          0 HIT:          0 MISS:          0
cpu0_STLB PREFETCH     ACCESS:          0 HIT:          0 MISS:          0
cpu0_STLB WRITE        ACCESS:          0 HIT:          0 MISS:          0
cpu0_STLB TRANSLATION  ACCESS:          0 HIT:          0 MISS:          0
cpu0_STLB PREFETCH REQUESTED:          0 ISSUED:          0 USEFUL:          0 USELESS:          0
cpu0_STLB AVERAGE MISS LATENCY: 182.2 cycles

DRAM Statistics

Channel 0 RQ ROW_BUFFER_HIT:     713161
  ROW_BUFFER_MISS:     853968
 AVG DBUS CONGESTED CYCLE: 3.948
WQ ROW_BUFFER_HIT: Channel 0 
  ROW_BUFFER_MISS:      27307
  FULL:     285139

Channel 1 RQ ROW_BUFFER_HIT:     709849
  ROW_BUFFER_MISS:     850728
 AVG DBUS CONGESTED CYCLE: 3.945
WQ ROW_BUFFER_HIT: Channel 1 
  ROW_BUFFER_MISS:      27244
  FULL:     284185
BERTI TO_L1: 59063759 TO_L2: 125516917 TO_L2_BC_MSHR: 60000262
BERTI AVG_LAT: 218.474 NUM_TRACK_LATENCY: 4478224 NUM_CANT_TRACK_LATENCY: 272
BERTI CROSS_PAGE 26748071 NO_CROSS_PAGE: 157832605
BERTI FOUND_BERTI: 32325268 NO_FOUND_BERTI: 6066726
BERTI AVERAGE_ISSUED: 2.76803
CPU 0 L1I Entangling prefetcher final stats
IP accesses: 4371 10dc40 618 / 85628
IP misses: 4371 10dc40 614 / 35943
IP hits: 0 0 0 / 0
IP late: 5aed 16bb40 13 / 5543
IP wrong: 2173 85cc0 24 / 9162
miss rate: 0.419758
coverage: 0
coverage_late: 0.154217
accuracy: 0
accuracy_late: 0.376947
discarded: 0
evicts entangled j table: 0
evicts entangled k table: 1562
max bb size: 65
formats: 422 0 1278 714 301 671 0 
hist_lookups: 1115 1217 966 893 734 634 527 396 329 246 171 137 90 47 21 0 27 4025 
hist_lookups_evict: 0.233262 %
hist_lookups_shortlat: 34.7733 %
bb_found_hist: 0 14698 6278 2759 1183 704 236 85 51 15 12 4 12 0 3 0 19 0 0 0 0 0 1 0 0 0 0 0 0 0 0 0 0 0 0 0 0 0 0 0 0 0 0 0 0 0 0 0 0 2 0 0 0 0 0 0 0 0 0 0 0 0 0 0 
bb_found_summary: 47111 26062 1.80766
entangled_found_hist: 0 8501 4952 9717 1993 530 47 0 
entangled_found_summary: 58460 25740 2.27118
bb_ent_found_hist: 0 19434 9204 5515 2719 1831 865 210 42 8 24 0 0 0 0 0 1 0 0 0 0 0 0 0 0 0 0 0 0 0 0 0 0 0 0 0 0 0 0 0 0 0 0 0 0 0 0 0 0 2 0 0 0 0 0 0 0 0 0 0 0 0 0 0 
bb_ent_found_summary: 81840 39855 2.05345
