WARNING: physical memory size is smaller than virtual memory size.

*** ChampSim Multicore Out-of-Order Simulator ***
Warmup Instructions: 30000000
Simulation Instructions: 100000000
Number of CPUs: 1
Page size: 4096

BTB:
Basic BTB sets: 1024 ways: 8
Indirect:
history lengths: 0 0 10 16 27 44 60 96 109 219 449 487 714 1313 2146 3881 
ITTAGE tables: 64768 bytes;Region table: 240 bytes;IUM: 384 bytes;Total Storage= 65392 bytes;
RAS:
RAS size: 64
[LLC] INSTR Demand IPV: 1 2 2 1 4 Prefetch IPV: 1 2 1 1 4
[LLC] DATA  Demand IPV: 1 1 1 2 4 Prefetch IPV: 1 1 2 2 4
Berti Prefetcher
CPU 0 Entangling prefetcher
Off-chip DRAM Size: 8 GiB Channels: 2 Width: 64-bit Data Race: 6400 MT/s
[DUEL] Epoch ended. INSTR misses = 21, DATA misses = 13. Winner = DATA
[DUEL] Epoch ended. INSTR misses = 96, DATA misses = 98. Winner = INSTR
[DUEL] Epoch ended. INSTR misses = 42, DATA misses = 34. Winner = DATA
[DUEL] Epoch ended. INSTR misses = 18, DATA misses = 19. Winner = INSTR
[DUEL] Epoch ended. INSTR misses = 46, DATA misses = 44. Winner = DATA
[DUEL] Epoch ended. INSTR misses = 48, DATA misses = 48. Winner = INSTR
[DUEL] Epoch ended. INSTR misses = 32, DATA misses = 32. Winner = INSTR
[DUEL] Epoch ended. INSTR misses = 32, DATA misses = 32. Winner = INSTR
[DUEL] Epoch ended. INSTR misses = 48, DATA misses = 44. Winner = DATA
[DUEL] Epoch ended. INSTR misses = 33, DATA misses = 28. Winner = DATA
[DUEL] Epoch ended. INSTR misses = 47, DATA misses = 48. Winner = INSTR
[DUEL] Epoch ended. INSTR misses = 60, DATA misses = 51. Winner = DATA
[DUEL] Epoch ended. INSTR misses = 42, DATA misses = 45. Winner = INSTR
[DUEL] Epoch ended. INSTR misses = 43, DATA misses = 44. Winner = INSTR
[DUEL] Epoch ended. INSTR misses = 50, DATA misses = 52. Winner = INSTR
[DUEL] Epoch ended. INSTR misses = 63, DATA misses = 64. Winner = INSTR
[DUEL] Epoch ended. INSTR misses = 32, DATA misses = 30. Winner = DATA
[DUEL] Epoch ended. INSTR misses = 32, DATA misses = 34. Winner = INSTR
[DUEL] Epoch ended. INSTR misses = 62, DATA misses = 56. Winner = DATA
[DUEL] Epoch ended. INSTR misses = 45, DATA misses = 47. Winner = INSTR
[DUEL] Epoch ended. INSTR misses = 10, DATA misses = 3. Winner = DATA
[DUEL] Epoch ended. INSTR misses = 54, DATA misses = 46. Winner = DATA
[DUEL] Epoch ended. INSTR misses = 61, DATA misses = 59. Winner = DATA
[DUEL] Epoch ended. INSTR misses = 46, DATA misses = 45. Winner = DATA
[DUEL] Epoch ended. INSTR misses = 42, DATA misses = 45. Winner = INSTR
[DUEL] Epoch ended. INSTR misses = 59, DATA misses = 60. Winner = INSTR
[DUEL] Epoch ended. INSTR misses = 44, DATA misses = 46. Winner = INSTR
[DUEL] Epoch ended. INSTR misses = 48, DATA misses = 46. Winner = DATA
[DUEL] Epoch ended. INSTR misses = 52, DATA misses = 55. Winner = INSTR
[DUEL] Epoch ended. INSTR misses = 32, DATA misses = 32. Winner = INSTR
[DUEL] Epoch ended. INSTR misses = 42, DATA misses = 46. Winner = INSTR
[DUEL] Epoch ended. INSTR misses = 44, DATA misses = 47. Winner = INSTR
[DUEL] Epoch ended. INSTR misses = 47, DATA misses = 45. Winner = DATA
[DUEL] Epoch ended. INSTR misses = 48, DATA misses = 48. Winner = INSTR
[DUEL] Epoch ended. INSTR misses = 48, DATA misses = 48. Winner = INSTR
[DUEL] Epoch ended. INSTR misses = 53, DATA misses = 55. Winner = INSTR
[DUEL] Epoch ended. INSTR misses = 46, DATA misses = 48. Winner = INSTR
[DUEL] Epoch ended. INSTR misses = 29, DATA misses = 32. Winner = INSTR
[DUEL] Epoch ended. INSTR misses = 35, DATA misses = 45. Winner = INSTR
Heartbeat CPU 0 instructions: 10000006 cycles: 1716842 heartbeat IPC: 5.825 cumulative IPC: 5.825 (Simulation time: 00 hr 00 min 27 sec)
[DUEL] Epoch ended. INSTR misses = 63, DATA misses = 51. Winner = DATA
[DUEL] Epoch ended. INSTR misses = 42, DATA misses = 47. Winner = INSTR
[DUEL] Epoch ended. INSTR misses = 32, DATA misses = 32. Winner = INSTR
[DUEL] Epoch ended. INSTR misses = 61, DATA misses = 58. Winner = DATA
[DUEL] Epoch ended. INSTR misses = 43, DATA misses = 40. Winner = DATA
[DUEL] Epoch ended. INSTR misses = 44, DATA misses = 37. Winner = DATA
[DUEL] Epoch ended. INSTR misses = 33, DATA misses = 32. Winner = DATA
[DUEL] Epoch ended. INSTR misses = 49, DATA misses = 54. Winner = INSTR
[DUEL] Epoch ended. INSTR misses = 44, DATA misses = 50. Winner = INSTR
[DUEL] Epoch ended. INSTR misses = 48, DATA misses = 37. Winner = DATA
[DUEL] Epoch ended. INSTR misses = 46, DATA misses = 45. Winner = DATA
[DUEL] Epoch ended. INSTR misses = 46, DATA misses = 45. Winner = DATA
[DUEL] Epoch ended. INSTR misses = 44, DATA misses = 48. Winner = INSTR
[DUEL] Epoch ended. INSTR misses = 29, DATA misses = 19. Winner = DATA
[DUEL] Epoch ended. INSTR misses = 48, DATA misses = 48. Winner = INSTR
[DUEL] Epoch ended. INSTR misses = 32, DATA misses = 32. Winner = INSTR
[DUEL] Epoch ended. INSTR misses = 48, DATA misses = 48. Winner = INSTR
[DUEL] Epoch ended. INSTR misses = 32, DATA misses = 32. Winner = INSTR
[DUEL] Epoch ended. INSTR misses = 48, DATA misses = 48. Winner = INSTR
[DUEL] Epoch ended. INSTR misses = 44, DATA misses = 47. Winner = INSTR
[DUEL] Epoch ended. INSTR misses = 51, DATA misses = 62. Winner = INSTR
[DUEL] Epoch ended. INSTR misses = 28, DATA misses = 33. Winner = INSTR
[DUEL] Epoch ended. INSTR misses = 48, DATA misses = 55. Winner = INSTR
[DUEL] Epoch ended. INSTR misses = 57, DATA misses = 53. Winner = DATA
[DUEL] Epoch ended. INSTR misses = 32, DATA misses = 32. Winner = INSTR
[DUEL] Epoch ended. INSTR misses = 60, DATA misses = 52. Winner = DATA
[DUEL] Epoch ended. INSTR misses = 32, DATA misses = 32. Winner = INSTR
[DUEL] Epoch ended. INSTR misses = 48, DATA misses = 48. Winner = INSTR
[DUEL] Epoch ended. INSTR misses = 29, DATA misses = 25. Winner = DATA
[DUEL] Epoch ended. INSTR misses = 48, DATA misses = 44. Winner = DATA
[DUEL] Epoch ended. INSTR misses = 48, DATA misses = 48. Winner = INSTR
[DUEL] Epoch ended. INSTR misses = 61, DATA misses = 65. Winner = INSTR
[DUEL] Epoch ended. INSTR misses = 31, DATA misses = 25. Winner = DATA
[DUEL] Epoch ended. INSTR misses = 48, DATA misses = 47. Winner = DATA
[DUEL] Epoch ended. INSTR misses = 43, DATA misses = 39. Winner = DATA
[DUEL] Epoch ended. INSTR misses = 31, DATA misses = 32. Winner = INSTR
[DUEL] Epoch ended. INSTR misses = 66, DATA misses = 64. Winner = DATA
[DUEL] Epoch ended. INSTR misses = 48, DATA misses = 48. Winner = INSTR
[DUEL] Epoch ended. INSTR misses = 48, DATA misses = 46. Winner = DATA
Heartbeat CPU 0 instructions: 20000001 cycles: 3384187 heartbeat IPC: 5.998 cumulative IPC: 5.91 (Simulation time: 00 hr 00 min 55 sec)
[DUEL] Epoch ended. INSTR misses = 57, DATA misses = 51. Winner = DATA
[DUEL] Epoch ended. INSTR misses = 64, DATA misses = 68. Winner = INSTR
[DUEL] Epoch ended. INSTR misses = 47, DATA misses = 45. Winner = DATA
[DUEL] Epoch ended. INSTR misses = 49, DATA misses = 57. Winner = INSTR
[DUEL] Epoch ended. INSTR misses = 49, DATA misses = 55. Winner = INSTR
[DUEL] Epoch ended. INSTR misses = 30, DATA misses = 16. Winner = DATA
[DUEL] Epoch ended. INSTR misses = 40, DATA misses = 32. Winner = DATA
[DUEL] Epoch ended. INSTR misses = 71, DATA misses = 79. Winner = INSTR
[DUEL] Epoch ended. INSTR misses = 115, DATA misses = 110. Winner = DATA
[DUEL] Epoch ended. INSTR misses = 123, DATA misses = 117. Winner = DATA
[DUEL] Epoch ended. INSTR misses = 66, DATA misses = 71. Winner = INSTR
[DUEL] Epoch ended. INSTR misses = 114, DATA misses = 106. Winner = DATA
[DUEL] Epoch ended. INSTR misses = 118, DATA misses = 97. Winner = DATA
[DUEL] Epoch ended. INSTR misses = 65, DATA misses = 68. Winner = INSTR
[DUEL] Epoch ended. INSTR misses = 76, DATA misses = 76. Winner = INSTR
[DUEL] Epoch ended. INSTR misses = 76, DATA misses = 71. Winner = DATA
[DUEL] Epoch ended. INSTR misses = 80, DATA misses = 83. Winner = INSTR
[DUEL] Epoch ended. INSTR misses = 88, DATA misses = 68. Winner = DATA
[DUEL] Epoch ended. INSTR misses = 45, DATA misses = 57. Winner = INSTR
[DUEL] Epoch ended. INSTR misses = 42, DATA misses = 42. Winner = INSTR
[DUEL] Epoch ended. INSTR misses = 23, DATA misses = 22. Winner = DATA
[DUEL] Epoch ended. INSTR misses = 26, DATA misses = 31. Winner = INSTR
[DUEL] Epoch ended. INSTR misses = 17, DATA misses = 16. Winner = DATA
[DUEL] Epoch ended. INSTR misses = 17, DATA misses = 16. Winner = DATA
[DUEL] Epoch ended. INSTR misses = 39, DATA misses = 39. Winner = INSTR
[DUEL] Epoch ended. INSTR misses = 15, DATA misses = 16. Winner = INSTR
[DUEL] Epoch ended. INSTR misses = 32, DATA misses = 32. Winner = INSTR
[DUEL] Epoch ended. INSTR misses = 17, DATA misses = 16. Winner = DATA
[DUEL] Epoch ended. INSTR misses = 41, DATA misses = 44. Winner = INSTR
[DUEL] Epoch ended. INSTR misses = 18, DATA misses = 16. Winner = DATA
[DUEL] Epoch ended. INSTR misses = 32, DATA misses = 32. Winner = INSTR
[DUEL] Epoch ended. INSTR misses = 32, DATA misses = 32. Winner = INSTR
[DUEL] Epoch ended. INSTR misses = 47, DATA misses = 47. Winner = INSTR
[DUEL] Epoch ended. INSTR misses = 15, DATA misses = 13. Winner = DATA
[DUEL] Epoch ended. INSTR misses = 24, DATA misses = 9. Winner = DATA
[DUEL] Epoch ended. INSTR misses = 48, DATA misses = 43. Winner = DATA
[DUEL] Epoch ended. INSTR misses = 32, DATA misses = 32. Winner = INSTR
[DUEL] Epoch ended. INSTR misses = 41, DATA misses = 47. Winner = INSTR
[DUEL] Epoch ended. INSTR misses = 16, DATA misses = 19. Winner = INSTR
Heartbeat CPU 0 instructions: 30000008 cycles: 5139743 heartbeat IPC: 5.696 cumulative IPC: 5.837 (Simulation time: 00 hr 01 min 23 sec)
Warmup finished CPU 0 instructions: 30000008 cycles: 5139744 cumulative IPC: 5.837 (Simulation time: 00 hr 01 min 23 sec)
Warmup complete CPU 0 instructions: 30000008 cycles: 5139744 cumulative IPC: 5.837 (Simulation time: 00 hr 01 min 23 sec)
[DUEL] Epoch ended. INSTR misses = 30, DATA misses = 32. Winner = INSTR
[DUEL] Epoch ended. INSTR misses = 44, DATA misses = 46. Winner = INSTR
[DUEL] Epoch ended. INSTR misses = 31, DATA misses = 32. Winner = INSTR
[DUEL] Epoch ended. INSTR misses = 29, DATA misses = 31. Winner = INSTR
[DUEL] Epoch ended. INSTR misses = 32, DATA misses = 32. Winner = INSTR
[DUEL] Epoch ended. INSTR misses = 32, DATA misses = 32. Winner = INSTR
[DUEL] Epoch ended. INSTR misses = 32, DATA misses = 32. Winner = INSTR
[DUEL] Epoch ended. INSTR misses = 48, DATA misses = 48. Winner = INSTR
[DUEL] Epoch ended. INSTR misses = 32, DATA misses = 32. Winner = INSTR
[DUEL] Epoch ended. INSTR misses = 32, DATA misses = 32. Winner = INSTR
[DUEL] Epoch ended. INSTR misses = 32, DATA misses = 32. Winner = INSTR
[DUEL] Epoch ended. INSTR misses = 48, DATA misses = 48. Winner = INSTR
[DUEL] Epoch ended. INSTR misses = 32, DATA misses = 32. Winner = INSTR
[DUEL] Epoch ended. INSTR misses = 32, DATA misses = 32. Winner = INSTR
[DUEL] Epoch ended. INSTR misses = 32, DATA misses = 32. Winner = INSTR
[DUEL] Epoch ended. INSTR misses = 34, DATA misses = 40. Winner = INSTR
[DUEL] Epoch ended. INSTR misses = 29, DATA misses = 24. Winner = DATA
[DUEL] Epoch ended. INSTR misses = 0, DATA misses = 0. Winner = INSTR
[DUEL] Epoch ended. INSTR misses = 37, DATA misses = 59. Winner = INSTR
[DUEL] Epoch ended. INSTR misses = 37, DATA misses = 51. Winner = INSTR
[DUEL] Epoch ended. INSTR misses = 72, DATA misses = 73. Winner = INSTR
[DUEL] Epoch ended. INSTR misses = 43, DATA misses = 44. Winner = INSTR
[DUEL] Epoch ended. INSTR misses = 33, DATA misses = 33. Winner = INSTR
[DUEL] Epoch ended. INSTR misses = 17, DATA misses = 15. Winner = DATA
[DUEL] Epoch ended. INSTR misses = 34, DATA misses = 32. Winner = DATA
[DUEL] Epoch ended. INSTR misses = 17, DATA misses = 16. Winner = DATA
[DUEL] Epoch ended. INSTR misses = 33, DATA misses = 32. Winner = DATA
[DUEL] Epoch ended. INSTR misses = 24, DATA misses = 23. Winner = DATA
[DUEL] Epoch ended. INSTR misses = 32, DATA misses = 32. Winner = INSTR
[DUEL] Epoch ended. INSTR misses = 17, DATA misses = 16. Winner = DATA
[DUEL] Epoch ended. INSTR misses = 40, DATA misses = 43. Winner = INSTR
[DUEL] Epoch ended. INSTR misses = 17, DATA misses = 16. Winner = DATA
[DUEL] Epoch ended. INSTR misses = 42, DATA misses = 32. Winner = DATA
[DUEL] Epoch ended. INSTR misses = 32, DATA misses = 32. Winner = INSTR
[DUEL] Epoch ended. INSTR misses = 31, DATA misses = 32. Winner = INSTR
[DUEL] Epoch ended. INSTR misses = 33, DATA misses = 35. Winner = INSTR
[DUEL] Epoch ended. INSTR misses = 32, DATA misses = 13. Winner = DATA
[DUEL] Epoch ended. INSTR misses = 32, DATA misses = 31. Winner = DATA
[DUEL] Epoch ended. INSTR misses = 41, DATA misses = 40. Winner = DATA
Heartbeat CPU 0 instructions: 40000003 cycles: 11598624 heartbeat IPC: 1.548 cumulative IPC: 1.548 (Simulation time: 00 hr 02 min 16 sec)
[DUEL] Epoch ended. INSTR misses = 47, DATA misses = 48. Winner = INSTR
[DUEL] Epoch ended. INSTR misses = 26, DATA misses = 30. Winner = INSTR
[DUEL] Epoch ended. INSTR misses = 39, DATA misses = 40. Winner = INSTR
[DUEL] Epoch ended. INSTR misses = 29, DATA misses = 31. Winner = INSTR
[DUEL] Epoch ended. INSTR misses = 32, DATA misses = 32. Winner = INSTR
[DUEL] Epoch ended. INSTR misses = 33, DATA misses = 22. Winner = DATA
[DUEL] Epoch ended. INSTR misses = 47, DATA misses = 48. Winner = INSTR
[DUEL] Epoch ended. INSTR misses = 32, DATA misses = 32. Winner = INSTR
[DUEL] Epoch ended. INSTR misses = 32, DATA misses = 32. Winner = INSTR
[DUEL] Epoch ended. INSTR misses = 32, DATA misses = 32. Winner = INSTR
[DUEL] Epoch ended. INSTR misses = 32, DATA misses = 32. Winner = INSTR
[DUEL] Epoch ended. INSTR misses = 42, DATA misses = 32. Winner = DATA
[DUEL] Epoch ended. INSTR misses = 38, DATA misses = 47. Winner = INSTR
[DUEL] Epoch ended. INSTR misses = 32, DATA misses = 30. Winner = DATA
[DUEL] Epoch ended. INSTR misses = 32, DATA misses = 32. Winner = INSTR
[DUEL] Epoch ended. INSTR misses = 32, DATA misses = 32. Winner = INSTR
[DUEL] Epoch ended. INSTR misses = 32, DATA misses = 32. Winner = INSTR
[DUEL] Epoch ended. INSTR misses = 48, DATA misses = 48. Winner = INSTR
[DUEL] Epoch ended. INSTR misses = 30, DATA misses = 31. Winner = INSTR
[DUEL] Epoch ended. INSTR misses = 0, DATA misses = 0. Winner = INSTR
[DUEL] Epoch ended. INSTR misses = 9, DATA misses = 11. Winner = INSTR
[DUEL] Epoch ended. INSTR misses = 45, DATA misses = 47. Winner = INSTR
[DUEL] Epoch ended. INSTR misses = 50, DATA misses = 52. Winner = INSTR
[DUEL] Epoch ended. INSTR misses = 48, DATA misses = 51. Winner = INSTR
[DUEL] Epoch ended. INSTR misses = 17, DATA misses = 16. Winner = DATA
[DUEL] Epoch ended. INSTR misses = 34, DATA misses = 32. Winner = DATA
[DUEL] Epoch ended. INSTR misses = 17, DATA misses = 16. Winner = DATA
[DUEL] Epoch ended. INSTR misses = 33, DATA misses = 32. Winner = DATA
[DUEL] Epoch ended. INSTR misses = 23, DATA misses = 23. Winner = INSTR
[DUEL] Epoch ended. INSTR misses = 34, DATA misses = 32. Winner = DATA
[DUEL] Epoch ended. INSTR misses = 16, DATA misses = 16. Winner = INSTR
[DUEL] Epoch ended. INSTR misses = 33, DATA misses = 31. Winner = DATA
[DUEL] Epoch ended. INSTR misses = 25, DATA misses = 28. Winner = INSTR
[DUEL] Epoch ended. INSTR misses = 29, DATA misses = 16. Winner = DATA
[DUEL] Epoch ended. INSTR misses = 48, DATA misses = 48. Winner = INSTR
[DUEL] Epoch ended. INSTR misses = 31, DATA misses = 31. Winner = INSTR
[DUEL] Epoch ended. INSTR misses = 32, DATA misses = 32. Winner = INSTR
[DUEL] Epoch ended. INSTR misses = 34, DATA misses = 30. Winner = DATA
[DUEL] Epoch ended. INSTR misses = 32, DATA misses = 22. Winner = DATA
Heartbeat CPU 0 instructions: 50000000 cycles: 17597601 heartbeat IPC: 1.667 cumulative IPC: 1.605 (Simulation time: 00 hr 03 min 06 sec)
[DUEL] Epoch ended. INSTR misses = 32, DATA misses = 29. Winner = DATA
[DUEL] Epoch ended. INSTR misses = 52, DATA misses = 55. Winner = INSTR
[DUEL] Epoch ended. INSTR misses = 18, DATA misses = 26. Winner = INSTR
[DUEL] Epoch ended. INSTR misses = 34, DATA misses = 36. Winner = INSTR
[DUEL] Epoch ended. INSTR misses = 32, DATA misses = 32. Winner = INSTR
[DUEL] Epoch ended. INSTR misses = 26, DATA misses = 27. Winner = INSTR
[DUEL] Epoch ended. INSTR misses = 30, DATA misses = 32. Winner = INSTR
[DUEL] Epoch ended. INSTR misses = 31, DATA misses = 29. Winner = DATA
[DUEL] Epoch ended. INSTR misses = 45, DATA misses = 48. Winner = INSTR
[DUEL] Epoch ended. INSTR misses = 32, DATA misses = 32. Winner = INSTR
[DUEL] Epoch ended. INSTR misses = 32, DATA misses = 32. Winner = INSTR
[DUEL] Epoch ended. INSTR misses = 32, DATA misses = 32. Winner = INSTR
[DUEL] Epoch ended. INSTR misses = 32, DATA misses = 32. Winner = INSTR
[DUEL] Epoch ended. INSTR misses = 48, DATA misses = 48. Winner = INSTR
[DUEL] Epoch ended. INSTR misses = 32, DATA misses = 29. Winner = DATA
[DUEL] Epoch ended. INSTR misses = 32, DATA misses = 32. Winner = INSTR
[DUEL] Epoch ended. INSTR misses = 32, DATA misses = 32. Winner = INSTR
[DUEL] Epoch ended. INSTR misses = 32, DATA misses = 32. Winner = INSTR
[DUEL] Epoch ended. INSTR misses = 32, DATA misses = 32. Winner = INSTR
[DUEL] Epoch ended. INSTR misses = 47, DATA misses = 48. Winner = INSTR
[DUEL] Epoch ended. INSTR misses = 11, DATA misses = 15. Winner = INSTR
[DUEL] Epoch ended. INSTR misses = 0, DATA misses = 0. Winner = INSTR
[DUEL] Epoch ended. INSTR misses = 48, DATA misses = 28. Winner = DATA
[DUEL] Epoch ended. INSTR misses = 111, DATA misses = 131. Winner = INSTR
[DUEL] Epoch ended. INSTR misses = 97, DATA misses = 122. Winner = INSTR
[DUEL] Epoch ended. INSTR misses = 46, DATA misses = 46. Winner = INSTR
[DUEL] Epoch ended. INSTR misses = 44, DATA misses = 40. Winner = DATA
[DUEL] Epoch ended. INSTR misses = 48, DATA misses = 51. Winner = INSTR
[DUEL] Epoch ended. INSTR misses = 17, DATA misses = 16. Winner = DATA
[DUEL] Epoch ended. INSTR misses = 34, DATA misses = 32. Winner = DATA
[DUEL] Epoch ended. INSTR misses = 17, DATA misses = 16. Winner = DATA
[DUEL] Epoch ended. INSTR misses = 34, DATA misses = 32. Winner = DATA
[DUEL] Epoch ended. INSTR misses = 26, DATA misses = 23. Winner = DATA
[DUEL] Epoch ended. INSTR misses = 37, DATA misses = 32. Winner = DATA
[DUEL] Epoch ended. INSTR misses = 18, DATA misses = 16. Winner = DATA
[DUEL] Epoch ended. INSTR misses = 18, DATA misses = 17. Winner = DATA
[DUEL] Epoch ended. INSTR misses = 47, DATA misses = 44. Winner = DATA
[DUEL] Epoch ended. INSTR misses = 28, DATA misses = 19. Winner = DATA
[DUEL] Epoch ended. INSTR misses = 33, DATA misses = 34. Winner = INSTR
Heartbeat CPU 0 instructions: 60000001 cycles: 24484400 heartbeat IPC: 1.452 cumulative IPC: 1.551 (Simulation time: 00 hr 04 min 00 sec)
[DUEL] Epoch ended. INSTR misses = 33, DATA misses = 32. Winner = DATA
[DUEL] Epoch ended. INSTR misses = 47, DATA misses = 47. Winner = INSTR
[DUEL] Epoch ended. INSTR misses = 24, DATA misses = 25. Winner = INSTR
[DUEL] Epoch ended. INSTR misses = 49, DATA misses = 38. Winner = DATA
[DUEL] Epoch ended. INSTR misses = 32, DATA misses = 32. Winner = INSTR
[DUEL] Epoch ended. INSTR misses = 32, DATA misses = 32. Winner = INSTR
[DUEL] Epoch ended. INSTR misses = 33, DATA misses = 37. Winner = INSTR
[DUEL] Epoch ended. INSTR misses = 21, DATA misses = 26. Winner = INSTR
[DUEL] Epoch ended. INSTR misses = 27, DATA misses = 32. Winner = INSTR
[DUEL] Epoch ended. INSTR misses = 45, DATA misses = 46. Winner = INSTR
[DUEL] Epoch ended. INSTR misses = 27, DATA misses = 31. Winner = INSTR
[DUEL] Epoch ended. INSTR misses = 25, DATA misses = 31. Winner = INSTR
[DUEL] Epoch ended. INSTR misses = 32, DATA misses = 32. Winner = INSTR
[DUEL] Epoch ended. INSTR misses = 32, DATA misses = 32. Winner = INSTR
[DUEL] Epoch ended. INSTR misses = 48, DATA misses = 48. Winner = INSTR
[DUEL] Epoch ended. INSTR misses = 32, DATA misses = 32. Winner = INSTR
[DUEL] Epoch ended. INSTR misses = 32, DATA misses = 32. Winner = INSTR
[DUEL] Epoch ended. INSTR misses = 32, DATA misses = 32. Winner = INSTR
[DUEL] Epoch ended. INSTR misses = 48, DATA misses = 45. Winner = DATA
[DUEL] Epoch ended. INSTR misses = 32, DATA misses = 32. Winner = INSTR
[DUEL] Epoch ended. INSTR misses = 32, DATA misses = 32. Winner = INSTR
[DUEL] Epoch ended. INSTR misses = 32, DATA misses = 32. Winner = INSTR
[DUEL] Epoch ended. INSTR misses = 32, DATA misses = 32. Winner = INSTR
[DUEL] Epoch ended. INSTR misses = 47, DATA misses = 45. Winner = DATA
[DUEL] Epoch ended. INSTR misses = 12, DATA misses = 21. Winner = INSTR
[DUEL] Epoch ended. INSTR misses = 0, DATA misses = 0. Winner = INSTR
[DUEL] Epoch ended. INSTR misses = 31, DATA misses = 27. Winner = DATA
[DUEL] Epoch ended. INSTR misses = 123, DATA misses = 111. Winner = DATA
[DUEL] Epoch ended. INSTR misses = 91, DATA misses = 23. Winner = DATA
[DUEL] Epoch ended. INSTR misses = 114, DATA misses = 116. Winner = INSTR
[DUEL] Epoch ended. INSTR misses = 69, DATA misses = 87. Winner = INSTR
[DUEL] Epoch ended. INSTR misses = 75, DATA misses = 78. Winner = INSTR
[DUEL] Epoch ended. INSTR misses = 90, DATA misses = 107. Winner = INSTR
[DUEL] Epoch ended. INSTR misses = 83, DATA misses = 72. Winner = DATA
[DUEL] Epoch ended. INSTR misses = 90, DATA misses = 75. Winner = DATA
[DUEL] Epoch ended. INSTR misses = 38, DATA misses = 49. Winner = INSTR
[DUEL] Epoch ended. INSTR misses = 78, DATA misses = 104. Winner = INSTR
[DUEL] Epoch ended. INSTR misses = 112, DATA misses = 131. Winner = INSTR
[DUEL] Epoch ended. INSTR misses = 158, DATA misses = 132. Winner = DATA
Heartbeat CPU 0 instructions: 70000001 cycles: 32998240 heartbeat IPC: 1.175 cumulative IPC: 1.436 (Simulation time: 00 hr 05 min 17 sec)
[DUEL] Epoch ended. INSTR misses = 89, DATA misses = 86. Winner = DATA
[DUEL] Epoch ended. INSTR misses = 67, DATA misses = 78. Winner = INSTR
[DUEL] Epoch ended. INSTR misses = 81, DATA misses = 75. Winner = DATA
[DUEL] Epoch ended. INSTR misses = 130, DATA misses = 137. Winner = INSTR
[DUEL] Epoch ended. INSTR misses = 99, DATA misses = 88. Winner = DATA
[DUEL] Epoch ended. INSTR misses = 79, DATA misses = 93. Winner = INSTR
[DUEL] Epoch ended. INSTR misses = 66, DATA misses = 71. Winner = INSTR
[DUEL] Epoch ended. INSTR misses = 113, DATA misses = 102. Winner = DATA
[DUEL] Epoch ended. INSTR misses = 113, DATA misses = 120. Winner = INSTR
[DUEL] Epoch ended. INSTR misses = 84, DATA misses = 143. Winner = INSTR
[DUEL] Epoch ended. INSTR misses = 106, DATA misses = 107. Winner = INSTR
[DUEL] Epoch ended. INSTR misses = 119, DATA misses = 131. Winner = INSTR
[DUEL] Epoch ended. INSTR misses = 109, DATA misses = 68. Winner = DATA
[DUEL] Epoch ended. INSTR misses = 71, DATA misses = 93. Winner = INSTR
[DUEL] Epoch ended. INSTR misses = 82, DATA misses = 107. Winner = INSTR
[DUEL] Epoch ended. INSTR misses = 97, DATA misses = 117. Winner = INSTR
[DUEL] Epoch ended. INSTR misses = 70, DATA misses = 124. Winner = INSTR
[DUEL] Epoch ended. INSTR misses = 30, DATA misses = 35. Winner = INSTR
[DUEL] Epoch ended. INSTR misses = 20, DATA misses = 22. Winner = INSTR
[DUEL] Epoch ended. INSTR misses = 62, DATA misses = 57. Winner = DATA
[DUEL] Epoch ended. INSTR misses = 0, DATA misses = 0. Winner = INSTR
[DUEL] Epoch ended. INSTR misses = 9, DATA misses = 8. Winner = DATA
[DUEL] Epoch ended. INSTR misses = 0, DATA misses = 0. Winner = INSTR
[DUEL] Epoch ended. INSTR misses = 14, DATA misses = 11. Winner = DATA
[DUEL] Epoch ended. INSTR misses = 3, DATA misses = 0. Winner = DATA
[DUEL] Epoch ended. INSTR misses = 46, DATA misses = 51. Winner = INSTR
[DUEL] Epoch ended. INSTR misses = 26, DATA misses = 24. Winner = DATA
[DUEL] Epoch ended. INSTR misses = 27, DATA misses = 26. Winner = DATA
[DUEL] Epoch ended. INSTR misses = 21, DATA misses = 24. Winner = INSTR
[DUEL] Epoch ended. INSTR misses = 14, DATA misses = 15. Winner = INSTR
[DUEL] Epoch ended. INSTR misses = 15, DATA misses = 11. Winner = DATA
[DUEL] Epoch ended. INSTR misses = 36, DATA misses = 44. Winner = INSTR
[DUEL] Epoch ended. INSTR misses = 31, DATA misses = 32. Winner = INSTR
[DUEL] Epoch ended. INSTR misses = 1, DATA misses = 0. Winner = DATA
[DUEL] Epoch ended. INSTR misses = 0, DATA misses = 0. Winner = INSTR
[DUEL] Epoch ended. INSTR misses = 15, DATA misses = 10. Winner = DATA
[DUEL] Epoch ended. INSTR misses = 13, DATA misses = 11. Winner = DATA
[DUEL] Epoch ended. INSTR misses = 16, DATA misses = 16. Winner = INSTR
[DUEL] Epoch ended. INSTR misses = 1, DATA misses = 0. Winner = DATA
Heartbeat CPU 0 instructions: 80000001 cycles: 43114197 heartbeat IPC: 0.9885 cumulative IPC: 1.317 (Simulation time: 00 hr 06 min 50 sec)
[DUEL] Epoch ended. INSTR misses = 30, DATA misses = 31. Winner = INSTR
[DUEL] Epoch ended. INSTR misses = 28, DATA misses = 30. Winner = INSTR
[DUEL] Epoch ended. INSTR misses = 16, DATA misses = 16. Winner = INSTR
[DUEL] Epoch ended. INSTR misses = 16, DATA misses = 16. Winner = INSTR
[DUEL] Epoch ended. INSTR misses = 0, DATA misses = 0. Winner = INSTR
[DUEL] Epoch ended. INSTR misses = 16, DATA misses = 16. Winner = INSTR
[DUEL] Epoch ended. INSTR misses = 14, DATA misses = 14. Winner = INSTR
[DUEL] Epoch ended. INSTR misses = 16, DATA misses = 16. Winner = INSTR
[DUEL] Epoch ended. INSTR misses = 32, DATA misses = 30. Winner = DATA
[DUEL] Epoch ended. INSTR misses = 30, DATA misses = 32. Winner = INSTR
[DUEL] Epoch ended. INSTR misses = 2, DATA misses = 0. Winner = DATA
[DUEL] Epoch ended. INSTR misses = 10, DATA misses = 9. Winner = DATA
[DUEL] Epoch ended. INSTR misses = 12, DATA misses = 9. Winner = DATA
[DUEL] Epoch ended. INSTR misses = 2, DATA misses = 0. Winner = DATA
[DUEL] Epoch ended. INSTR misses = 28, DATA misses = 32. Winner = INSTR
[DUEL] Epoch ended. INSTR misses = 9, DATA misses = 13. Winner = INSTR
[DUEL] Epoch ended. INSTR misses = 0, DATA misses = 0. Winner = INSTR
[DUEL] Epoch ended. INSTR misses = 12, DATA misses = 12. Winner = INSTR
[DUEL] Epoch ended. INSTR misses = 10, DATA misses = 13. Winner = INSTR
[DUEL] Epoch ended. INSTR misses = 16, DATA misses = 16. Winner = INSTR
[DUEL] Epoch ended. INSTR misses = 0, DATA misses = 0. Winner = INSTR
[DUEL] Epoch ended. INSTR misses = 25, DATA misses = 30. Winner = INSTR
[DUEL] Epoch ended. INSTR misses = 10, DATA misses = 11. Winner = INSTR
[DUEL] Epoch ended. INSTR misses = 0, DATA misses = 0. Winner = INSTR
[DUEL] Epoch ended. INSTR misses = 16, DATA misses = 14. Winner = DATA
[DUEL] Epoch ended. INSTR misses = 12, DATA misses = 16. Winner = INSTR
[DUEL] Epoch ended. INSTR misses = 32, DATA misses = 31. Winner = DATA
[DUEL] Epoch ended. INSTR misses = 0, DATA misses = 0. Winner = INSTR
[DUEL] Epoch ended. INSTR misses = 118, DATA misses = 114. Winner = DATA
[DUEL] Epoch ended. INSTR misses = 38, DATA misses = 37. Winner = DATA
[DUEL] Epoch ended. INSTR misses = 65, DATA misses = 66. Winner = INSTR
[DUEL] Epoch ended. INSTR misses = 105, DATA misses = 105. Winner = INSTR
[DUEL] Epoch ended. INSTR misses = 83, DATA misses = 82. Winner = DATA
[DUEL] Epoch ended. INSTR misses = 70, DATA misses = 75. Winner = INSTR
[DUEL] Epoch ended. INSTR misses = 85, DATA misses = 68. Winner = DATA
[DUEL] Epoch ended. INSTR misses = 69, DATA misses = 87. Winner = INSTR
[DUEL] Epoch ended. INSTR misses = 96, DATA misses = 107. Winner = INSTR
[DUEL] Epoch ended. INSTR misses = 99, DATA misses = 116. Winner = INSTR
[DUEL] Epoch ended. INSTR misses = 44, DATA misses = 43. Winner = DATA
Heartbeat CPU 0 instructions: 90000000 cycles: 50360001 heartbeat IPC: 1.38 cumulative IPC: 1.327 (Simulation time: 00 hr 08 min 00 sec)
[DUEL] Epoch ended. INSTR misses = 33, DATA misses = 48. Winner = INSTR
[DUEL] Epoch ended. INSTR misses = 51, DATA misses = 53. Winner = INSTR
[DUEL] Epoch ended. INSTR misses = 57, DATA misses = 60. Winner = INSTR
[DUEL] Epoch ended. INSTR misses = 103, DATA misses = 105. Winner = INSTR
[DUEL] Epoch ended. INSTR misses = 62, DATA misses = 62. Winner = INSTR
[DUEL] Epoch ended. INSTR misses = 55, DATA misses = 41. Winner = DATA
[DUEL] Epoch ended. INSTR misses = 16, DATA misses = 16. Winner = INSTR
[DUEL] Epoch ended. INSTR misses = 47, DATA misses = 48. Winner = INSTR
[DUEL] Epoch ended. INSTR misses = 17, DATA misses = 16. Winner = DATA
[DUEL] Epoch ended. INSTR misses = 14, DATA misses = 15. Winner = INSTR
[DUEL] Epoch ended. INSTR misses = 29, DATA misses = 32. Winner = INSTR
[DUEL] Epoch ended. INSTR misses = 37, DATA misses = 32. Winner = DATA
[DUEL] Epoch ended. INSTR misses = 46, DATA misses = 48. Winner = INSTR
[DUEL] Epoch ended. INSTR misses = 62, DATA misses = 64. Winner = INSTR
[DUEL] Epoch ended. INSTR misses = 47, DATA misses = 48. Winner = INSTR
[DUEL] Epoch ended. INSTR misses = 46, DATA misses = 47. Winner = INSTR
[DUEL] Epoch ended. INSTR misses = 43, DATA misses = 48. Winner = INSTR
[DUEL] Epoch ended. INSTR misses = 45, DATA misses = 47. Winner = INSTR
[DUEL] Epoch ended. INSTR misses = 2, DATA misses = 0. Winner = DATA
[DUEL] Epoch ended. INSTR misses = 26, DATA misses = 32. Winner = INSTR
[DUEL] Epoch ended. INSTR misses = 43, DATA misses = 47. Winner = INSTR
[DUEL] Epoch ended. INSTR misses = 26, DATA misses = 32. Winner = INSTR
[DUEL] Epoch ended. INSTR misses = 29, DATA misses = 32. Winner = INSTR
[DUEL] Epoch ended. INSTR misses = 19, DATA misses = 16. Winner = DATA
[DUEL] Epoch ended. INSTR misses = 61, DATA misses = 63. Winner = INSTR
[DUEL] Epoch ended. INSTR misses = 16, DATA misses = 16. Winner = INSTR
[DUEL] Epoch ended. INSTR misses = 16, DATA misses = 16. Winner = INSTR
[DUEL] Epoch ended. INSTR misses = 0, DATA misses = 0. Winner = INSTR
[DUEL] Epoch ended. INSTR misses = 24, DATA misses = 24. Winner = INSTR
[DUEL] Epoch ended. INSTR misses = 31, DATA misses = 49. Winner = INSTR
[DUEL] Epoch ended. INSTR misses = 16, DATA misses = 15. Winner = DATA
[DUEL] Epoch ended. INSTR misses = 55, DATA misses = 69. Winner = INSTR
[DUEL] Epoch ended. INSTR misses = 42, DATA misses = 39. Winner = DATA
[DUEL] Epoch ended. INSTR misses = 46, DATA misses = 74. Winner = INSTR
[DUEL] Epoch ended. INSTR misses = 49, DATA misses = 53. Winner = INSTR
[DUEL] Epoch ended. INSTR misses = 73, DATA misses = 71. Winner = DATA
[DUEL] Epoch ended. INSTR misses = 38, DATA misses = 54. Winner = INSTR
[DUEL] Epoch ended. INSTR misses = 66, DATA misses = 64. Winner = DATA
[DUEL] Epoch ended. INSTR misses = 50, DATA misses = 44. Winner = DATA
Heartbeat CPU 0 instructions: 100000005 cycles: 58739929 heartbeat IPC: 1.193 cumulative IPC: 1.306 (Simulation time: 00 hr 09 min 21 sec)
[DUEL] Epoch ended. INSTR misses = 27, DATA misses = 32. Winner = INSTR
[DUEL] Epoch ended. INSTR misses = 34, DATA misses = 35. Winner = INSTR
[DUEL] Epoch ended. INSTR misses = 31, DATA misses = 27. Winner = DATA
[DUEL] Epoch ended. INSTR misses = 37, DATA misses = 46. Winner = INSTR
[DUEL] Epoch ended. INSTR misses = 41, DATA misses = 46. Winner = INSTR
[DUEL] Epoch ended. INSTR misses = 36, DATA misses = 33. Winner = DATA
[DUEL] Epoch ended. INSTR misses = 58, DATA misses = 57. Winner = DATA
[DUEL] Epoch ended. INSTR misses = 49, DATA misses = 46. Winner = DATA
[DUEL] Epoch ended. INSTR misses = 34, DATA misses = 38. Winner = INSTR
[DUEL] Epoch ended. INSTR misses = 47, DATA misses = 45. Winner = DATA
[DUEL] Epoch ended. INSTR misses = 1, DATA misses = 2. Winner = INSTR
*** Reached end of trace: (0, "../traces/secret_traces/compute_fp/compute_fp_4.champsimtrace.xz")
[DUEL] Epoch ended. INSTR misses = 24, DATA misses = 14. Winner = DATA
[DUEL] Epoch ended. INSTR misses = 30, DATA misses = 33. Winner = INSTR
[DUEL] Epoch ended. INSTR misses = 89, DATA misses = 94. Winner = INSTR
[DUEL] Epoch ended. INSTR misses = 57, DATA misses = 44. Winner = DATA
[DUEL] Epoch ended. INSTR misses = 54, DATA misses = 69. Winner = INSTR
[DUEL] Epoch ended. INSTR misses = 46, DATA misses = 45. Winner = DATA
[DUEL] Epoch ended. INSTR misses = 32, DATA misses = 32. Winner = INSTR
[DUEL] Epoch ended. INSTR misses = 32, DATA misses = 32. Winner = INSTR
[DUEL] Epoch ended. INSTR misses = 32, DATA misses = 32. Winner = INSTR
[DUEL] Epoch ended. INSTR misses = 48, DATA misses = 42. Winner = DATA
[DUEL] Epoch ended. INSTR misses = 47, DATA misses = 48. Winner = INSTR
[DUEL] Epoch ended. INSTR misses = 44, DATA misses = 37. Winner = DATA
[DUEL] Epoch ended. INSTR misses = 48, DATA misses = 48. Winner = INSTR
[DUEL] Epoch ended. INSTR misses = 61, DATA misses = 59. Winner = DATA
[DUEL] Epoch ended. INSTR misses = 48, DATA misses = 48. Winner = INSTR
[DUEL] Epoch ended. INSTR misses = 49, DATA misses = 53. Winner = INSTR
[DUEL] Epoch ended. INSTR misses = 59, DATA misses = 42. Winner = DATA
[DUEL] Epoch ended. INSTR misses = 32, DATA misses = 32. Winner = INSTR
[DUEL] Epoch ended. INSTR misses = 47, DATA misses = 38. Winner = DATA
[DUEL] Epoch ended. INSTR misses = 46, DATA misses = 47. Winner = INSTR
[DUEL] Epoch ended. INSTR misses = 45, DATA misses = 47. Winner = INSTR
[DUEL] Epoch ended. INSTR misses = 36, DATA misses = 27. Winner = DATA
[DUEL] Epoch ended. INSTR misses = 56, DATA misses = 54. Winner = DATA
[DUEL] Epoch ended. INSTR misses = 47, DATA misses = 48. Winner = INSTR
[DUEL] Epoch ended. INSTR misses = 47, DATA misses = 48. Winner = INSTR
[DUEL] Epoch ended. INSTR misses = 62, DATA misses = 56. Winner = DATA
[DUEL] Epoch ended. INSTR misses = 53, DATA misses = 56. Winner = INSTR
[DUEL] Epoch ended. INSTR misses = 62, DATA misses = 47. Winner = DATA
Heartbeat CPU 0 instructions: 110000007 cycles: 67135449 heartbeat IPC: 1.191 cumulative IPC: 1.29 (Simulation time: 00 hr 10 min 30 sec)
[DUEL] Epoch ended. INSTR misses = 48, DATA misses = 47. Winner = DATA
[DUEL] Epoch ended. INSTR misses = 38, DATA misses = 36. Winner = DATA
[DUEL] Epoch ended. INSTR misses = 48, DATA misses = 48. Winner = INSTR
[DUEL] Epoch ended. INSTR misses = 28, DATA misses = 30. Winner = INSTR
[DUEL] Epoch ended. INSTR misses = 60, DATA misses = 63. Winner = INSTR
[DUEL] Epoch ended. INSTR misses = 40, DATA misses = 40. Winner = INSTR
[DUEL] Epoch ended. INSTR misses = 30, DATA misses = 26. Winner = DATA
[DUEL] Epoch ended. INSTR misses = 47, DATA misses = 48. Winner = INSTR
[DUEL] Epoch ended. INSTR misses = 62, DATA misses = 58. Winner = DATA
[DUEL] Epoch ended. INSTR misses = 46, DATA misses = 48. Winner = INSTR
[DUEL] Epoch ended. INSTR misses = 48, DATA misses = 48. Winner = INSTR
[DUEL] Epoch ended. INSTR misses = 46, DATA misses = 48. Winner = INSTR
[DUEL] Epoch ended. INSTR misses = 32, DATA misses = 32. Winner = INSTR
[DUEL] Epoch ended. INSTR misses = 39, DATA misses = 38. Winner = DATA
[DUEL] Epoch ended. INSTR misses = 43, DATA misses = 43. Winner = INSTR
[DUEL] Epoch ended. INSTR misses = 41, DATA misses = 41. Winner = INSTR
[DUEL] Epoch ended. INSTR misses = 47, DATA misses = 47. Winner = INSTR
[DUEL] Epoch ended. INSTR misses = 45, DATA misses = 40. Winner = DATA
[DUEL] Epoch ended. INSTR misses = 36, DATA misses = 37. Winner = INSTR
[DUEL] Epoch ended. INSTR misses = 41, DATA misses = 44. Winner = INSTR
[DUEL] Epoch ended. INSTR misses = 51, DATA misses = 57. Winner = INSTR
[DUEL] Epoch ended. INSTR misses = 45, DATA misses = 37. Winner = DATA
[DUEL] Epoch ended. INSTR misses = 48, DATA misses = 48. Winner = INSTR
[DUEL] Epoch ended. INSTR misses = 47, DATA misses = 47. Winner = INSTR
[DUEL] Epoch ended. INSTR misses = 48, DATA misses = 48. Winner = INSTR
[DUEL] Epoch ended. INSTR misses = 43, DATA misses = 39. Winner = DATA
[DUEL] Epoch ended. INSTR misses = 31, DATA misses = 32. Winner = INSTR
[DUEL] Epoch ended. INSTR misses = 48, DATA misses = 48. Winner = INSTR
[DUEL] Epoch ended. INSTR misses = 32, DATA misses = 32. Winner = INSTR
[DUEL] Epoch ended. INSTR misses = 32, DATA misses = 32. Winner = INSTR
[DUEL] Epoch ended. INSTR misses = 48, DATA misses = 48. Winner = INSTR
[DUEL] Epoch ended. INSTR misses = 36, DATA misses = 34. Winner = DATA
[DUEL] Epoch ended. INSTR misses = 57, DATA misses = 58. Winner = INSTR
[DUEL] Epoch ended. INSTR misses = 48, DATA misses = 55. Winner = INSTR
[DUEL] Epoch ended. INSTR misses = 54, DATA misses = 50. Winner = DATA
[DUEL] Epoch ended. INSTR misses = 41, DATA misses = 42. Winner = INSTR
[DUEL] Epoch ended. INSTR misses = 48, DATA misses = 48. Winner = INSTR
[DUEL] Epoch ended. INSTR misses = 46, DATA misses = 37. Winner = DATA
[DUEL] Epoch ended. INSTR misses = 48, DATA misses = 48. Winner = INSTR
Heartbeat CPU 0 instructions: 120000006 cycles: 74332566 heartbeat IPC: 1.389 cumulative IPC: 1.301 (Simulation time: 00 hr 11 min 30 sec)
[DUEL] Epoch ended. INSTR misses = 24, DATA misses = 21. Winner = DATA
[DUEL] Epoch ended. INSTR misses = 47, DATA misses = 46. Winner = DATA
[DUEL] Epoch ended. INSTR misses = 43, DATA misses = 39. Winner = DATA
[DUEL] Epoch ended. INSTR misses = 36, DATA misses = 32. Winner = DATA
[DUEL] Epoch ended. INSTR misses = 76, DATA misses = 66. Winner = DATA
[DUEL] Epoch ended. INSTR misses = 46, DATA misses = 40. Winner = DATA
[DUEL] Epoch ended. INSTR misses = 31, DATA misses = 27. Winner = DATA
[DUEL] Epoch ended. INSTR misses = 59, DATA misses = 51. Winner = DATA
[DUEL] Epoch ended. INSTR misses = 31, DATA misses = 34. Winner = INSTR
[DUEL] Epoch ended. INSTR misses = 55, DATA misses = 47. Winner = DATA
[DUEL] Epoch ended. INSTR misses = 48, DATA misses = 48. Winner = INSTR
[DUEL] Epoch ended. INSTR misses = 47, DATA misses = 41. Winner = DATA
[DUEL] Epoch ended. INSTR misses = 58, DATA misses = 57. Winner = DATA
[DUEL] Epoch ended. INSTR misses = 65, DATA misses = 64. Winner = DATA
[DUEL] Epoch ended. INSTR misses = 71, DATA misses = 63. Winner = DATA
[DUEL] Epoch ended. INSTR misses = 43, DATA misses = 54. Winner = INSTR
[DUEL] Epoch ended. INSTR misses = 43, DATA misses = 43. Winner = INSTR
[DUEL] Epoch ended. INSTR misses = 33, DATA misses = 17. Winner = DATA
[DUEL] Epoch ended. INSTR misses = 36, DATA misses = 48. Winner = INSTR
[DUEL] Epoch ended. INSTR misses = 54, DATA misses = 42. Winner = DATA
[DUEL] Epoch ended. INSTR misses = 75, DATA misses = 71. Winner = DATA
[DUEL] Epoch ended. INSTR misses = 89, DATA misses = 93. Winner = INSTR
[DUEL] Epoch ended. INSTR misses = 56, DATA misses = 46. Winner = DATA
[DUEL] Epoch ended. INSTR misses = 92, DATA misses = 94. Winner = INSTR
[DUEL] Epoch ended. INSTR misses = 94, DATA misses = 66. Winner = DATA
[DUEL] Epoch ended. INSTR misses = 55, DATA misses = 60. Winner = INSTR
[DUEL] Epoch ended. INSTR misses = 57, DATA misses = 57. Winner = INSTR
[DUEL] Epoch ended. INSTR misses = 62, DATA misses = 60. Winner = DATA
[DUEL] Epoch ended. INSTR misses = 65, DATA misses = 70. Winner = INSTR
[DUEL] Epoch ended. INSTR misses = 88, DATA misses = 85. Winner = DATA
[DUEL] Epoch ended. INSTR misses = 58, DATA misses = 57. Winner = DATA
[DUEL] Epoch ended. INSTR misses = 59, DATA misses = 51. Winner = DATA
[DUEL] Epoch ended. INSTR misses = 17, DATA misses = 16. Winner = DATA
[DUEL] Epoch ended. INSTR misses = 34, DATA misses = 32. Winner = DATA
[DUEL] Epoch ended. INSTR misses = 17, DATA misses = 16. Winner = DATA
[DUEL] Epoch ended. INSTR misses = 33, DATA misses = 32. Winner = DATA
[DUEL] Epoch ended. INSTR misses = 31, DATA misses = 26. Winner = DATA
[DUEL] Epoch ended. INSTR misses = 34, DATA misses = 32. Winner = DATA
[DUEL] Epoch ended. INSTR misses = 16, DATA misses = 16. Winner = INSTR
Heartbeat CPU 0 instructions: 130000003 cycles: 83529598 heartbeat IPC: 1.087 cumulative IPC: 1.276 (Simulation time: 00 hr 12 min 41 sec)
Simulation finished CPU 0 instructions: 100000002 cycles: 78389856 cumulative IPC: 1.276 (Simulation time: 00 hr 12 min 41 sec)
Simulation complete CPU 0 instructions: 100000002 cycles: 78389856 cumulative IPC: 1.276 (Simulation time: 00 hr 12 min 41 sec)

ChampSim completed all CPUs

=== Simulation ===
CPU 0 runs ../traces/secret_traces/compute_fp/compute_fp_4.champsimtrace.xz
Region of Interest Statistics

CPU 0 cumulative IPC: 1.276 instructions: 100000002 cycles: 78389856
CPU 0 Branch Prediction Accuracy: 97.33% MPKI: 5.333 Average ROB Occupancy at Mispredict: 40.3
Branch type MPKI
BRANCH_DIRECT_JUMP: 0.00794
BRANCH_INDIRECT: 0.0777
BRANCH_CONDITIONAL: 5.21
BRANCH_DIRECT_CALL: 0.0208
BRANCH_INDIRECT_CALL: 0.00248
BRANCH_RETURN: 0.0117

LLC TOTAL        ACCESS:    4368385 HIT:     438450 MISS:    3929935
LLC LOAD         ACCESS:     438452 HIT:      57167 MISS:     381285
LLC RFO          ACCESS:     231745 HIT:      23906 MISS:     207839
LLC PREFETCH     ACCESS:    3069535 HIT:     166615 MISS:    2902920
LLC WRITE        ACCESS:     616707 HIT:     190172 MISS:     426535
LLC TRANSLATION  ACCESS:      11946 HIT:        590 MISS:      11356
LLC PREFETCH REQUESTED:          0 ISSUED:          0 USEFUL:          0 USELESS:          0
LLC AVERAGE MISS LATENCY: 341.2 cycles
cpu0_DTLB TOTAL        ACCESS:   23551072 HIT:   23264769 MISS:     286303
cpu0_DTLB LOAD         ACCESS:   23551072 HIT:   23264769 MISS:     286303
cpu0_DTLB RFO          ACCESS:          0 HIT:          0 MISS:          0
cpu0_DTLB PREFETCH     ACCESS:          0 HIT:          0 MISS:          0
cpu0_DTLB WRITE        ACCESS:          0 HIT:          0 MISS:          0
cpu0_DTLB TRANSLATION  ACCESS:          0 HIT:          0 MISS:          0
cpu0_DTLB PREFETCH REQUESTED:          0 ISSUED:          0 USEFUL:          0 USELESS:          0
cpu0_DTLB AVERAGE MISS LATENCY: 26.54 cycles
cpu0_ITLB TOTAL        ACCESS:     118279 HIT:     116789 MISS:       1490
cpu0_ITLB LOAD         ACCESS:     118279 HIT:     116789 MISS:       1490
cpu0_ITLB RFO          ACCESS:          0 HIT:          0 MISS:          0
cpu0_ITLB PREFETCH     ACCESS:          0 HIT:          0 MISS:          0
cpu0_ITLB WRITE        ACCESS:          0 HIT:          0 MISS:          0
cpu0_ITLB TRANSLATION  ACCESS:          0 HIT:          0 MISS:          0
cpu0_ITLB PREFETCH REQUESTED:          0 ISSUED:          0 USEFUL:          0 USELESS:          0
cpu0_ITLB AVERAGE MISS LATENCY: 60.32 cycles
cpu0_L1D TOTAL        ACCESS:   49070968 HIT:   34755628 MISS:   14315340
cpu0_L1D LOAD         ACCESS:   20113488 HIT:   16268539 MISS:    3844949
cpu0_L1D RFO          ACCESS:          0 HIT:          0 MISS:          0
cpu0_L1D PREFETCH     ACCESS:   24729481 HIT:   15877483 MISS:    8851998
cpu0_L1D WRITE        ACCESS:    4160557 HIT:    2569418 MISS:    1591139
cpu0_L1D TRANSLATION  ACCESS:      67442 HIT:      40188 MISS:      27254
cpu0_L1D PREFETCH REQUESTED:  160154830 ISSUED:   24729485 USEFUL:    1654926 USELESS:     213718
cpu0_L1D AVERAGE MISS LATENCY: 51.73 cycles
cpu0_L1I TOTAL        ACCESS:     171576 HIT:     135403 MISS:      36173
cpu0_L1I LOAD         ACCESS:      59182 HIT:      48451 MISS:      10731
cpu0_L1I RFO          ACCESS:          0 HIT:          0 MISS:          0
cpu0_L1I PREFETCH     ACCESS:     112394 HIT:      86952 MISS:      25442
cpu0_L1I WRITE        ACCESS:          0 HIT:          0 MISS:          0
cpu0_L1I TRANSLATION  ACCESS:          0 HIT:          0 MISS:          0
cpu0_L1I PREFETCH REQUESTED:     163225 ISSUED:     112394 USEFUL:      13926 USELESS:       9383
cpu0_L1I AVERAGE MISS LATENCY: 107.8 cycles
cpu0_L2C TOTAL        ACCESS:   17732081 HIT:    5588803 MISS:   12143278
cpu0_L2C LOAD         ACCESS:    1352060 HIT:     549797 MISS:     802263
cpu0_L2C RFO          ACCESS:     243936 HIT:      12176 MISS:     231760
cpu0_L2C PREFETCH     ACCESS:   15431447 HIT:    4334138 MISS:   11097309
cpu0_L2C WRITE        ACCESS:     677618 HIT:     677618 MISS:          0
cpu0_L2C TRANSLATION  ACCESS:      27020 HIT:      15074 MISS:      11946
cpu0_L2C PREFETCH REQUESTED:    8963244 ISSUED:    8072631 USEFUL:     607406 USELESS:     639568
cpu0_L2C AVERAGE MISS LATENCY: 110.9 cycles
cpu0_STLB TOTAL        ACCESS:     115229 HIT:      48890 MISS:      66339
cpu0_STLB LOAD         ACCESS:     115229 HIT:      48890 MISS:      66339
cpu0_STLB RFO          ACCESS:          0 HIT:          0 MISS:          0
cpu0_STLB PREFETCH     ACCESS:          0 HIT:          0 MISS:          0
cpu0_STLB WRITE        ACCESS:          0 HIT:          0 MISS:          0
cpu0_STLB TRANSLATION  ACCESS:          0 HIT:          0 MISS:          0
cpu0_STLB PREFETCH REQUESTED:          0 ISSUED:          0 USEFUL:          0 USELESS:          0
cpu0_STLB AVERAGE MISS LATENCY: 141.8 cycles

DRAM Statistics

Channel 0 RQ ROW_BUFFER_HIT:     947920
  ROW_BUFFER_MISS:     808401
 AVG DBUS CONGESTED CYCLE: 3.943
WQ ROW_BUFFER_HIT: Channel 0 
  ROW_BUFFER_MISS:      13351
  FULL:     236882

Channel 1 RQ ROW_BUFFER_HIT:     945259
  ROW_BUFFER_MISS:     801058
 AVG DBUS CONGESTED CYCLE: 3.939
WQ ROW_BUFFER_HIT: Channel 1 
  ROW_BUFFER_MISS:      14014
  FULL:     235316
BERTI TO_L1: 57833569 TO_L2: 134339508 TO_L2_BC_MSHR: 60276717
BERTI AVG_LAT: 223.214 NUM_TRACK_LATENCY: 4286741 NUM_CANT_TRACK_LATENCY: 307
BERTI CROSS_PAGE 27766125 NO_CROSS_PAGE: 164406952
BERTI FOUND_BERTI: 32995430 NO_FOUND_BERTI: 6723222
BERTI AVERAGE_ISSUED: 3.16097
CPU 0 L1I Entangling prefetcher final stats
IP accesses: e900 3a4000 508 / 72945
IP misses: e900 3a4000 498 / 24494
IP hits: 0 0 0 / 0
IP late: 5aed 16bb40 13 / 5364
IP wrong: 2172 85c80 26 / 9334
miss rate: 0.335788
coverage: 0
coverage_late: 0.218993
accuracy: 0
accuracy_late: 0.364948
discarded: 0
evicts entangled j table: 0
evicts entangled k table: 1523
max bb size: 65
formats: 454 0 1252 728 299 737 0 
hist_lookups: 1204 1255 882 831 768 650 511 406 301 244 192 115 81 42 23 0 12 3549 
hist_lookups_evict: 0.108441 %
hist_lookups_shortlat: 32.0713 %
bb_found_hist: 0 14119 6347 2770 1063 666 229 93 59 11 15 4 12 0 3 0 17 0 0 0 0 0 0 0 0 0 0 0 0 0 0 0 0 0 0 0 0 0 0 0 0 0 0 0 0 0 0 0 0 0 0 0 0 0 0 0 0 0 0 0 0 0 0 0 
bb_found_summary: 45953 25408 1.80861
entangled_found_hist: 0 8315 4937 9145 1949 333 59 0 
entangled_found_summary: 55439 24738 2.24105
bb_ent_found_hist: 0 18132 10559 5392 2018 1450 664 257 139 16 20 0 0 0 0 0 0 0 0 0 0 0 0 0 0 0 0 0 0 0 0 0 0 0 0 0 0 0 0 0 0 0 0 0 0 0 0 0 0 0 0 0 0 0 0 0 0 0 0 0 0 0 0 0 
bb_ent_found_summary: 77987 38647 2.01794
