WARNING: physical memory size is smaller than virtual memory size.

*** ChampSim Multicore Out-of-Order Simulator ***
Warmup Instructions: 30000000
Simulation Instructions: 100000000
Number of CPUs: 1
Page size: 4096

BTB:
Basic BTB sets: 1024 ways: 8
Indirect:
history lengths: 0 0 10 16 27 44 60 96 109 219 449 487 714 1313 2146 3881 
ITTAGE tables: 64768 bytes;Region table: 240 bytes;IUM: 384 bytes;Total Storage= 65392 bytes;
RAS:
RAS size: 64
[LLC] INSTR Demand IPV: 1 2 2 1 4 Prefetch IPV: 1 2 1 1 4
[LLC] DATA  Demand IPV: 1 1 1 2 4 Prefetch IPV: 1 1 2 2 4
Berti Prefetcher
CPU 0 Entangling prefetcher
Off-chip DRAM Size: 8 GiB Channels: 2 Width: 64-bit Data Race: 6400 MT/s
[DUEL] Epoch ended. INSTR misses = 14, DATA misses = 25. Winner = INSTR
[DUEL] Epoch ended. INSTR misses = 113, DATA misses = 113. Winner = INSTR
[DUEL] Epoch ended. INSTR misses = 34, DATA misses = 42. Winner = INSTR
[DUEL] Epoch ended. INSTR misses = 45, DATA misses = 48. Winner = INSTR
[DUEL] Epoch ended. INSTR misses = 66, DATA misses = 70. Winner = INSTR
[DUEL] Epoch ended. INSTR misses = 71, DATA misses = 73. Winner = INSTR
[DUEL] Epoch ended. INSTR misses = 62, DATA misses = 55. Winner = DATA
[DUEL] Epoch ended. INSTR misses = 71, DATA misses = 62. Winner = DATA
[DUEL] Epoch ended. INSTR misses = 100, DATA misses = 112. Winner = INSTR
[DUEL] Epoch ended. INSTR misses = 145, DATA misses = 135. Winner = DATA
[DUEL] Epoch ended. INSTR misses = 51, DATA misses = 49. Winner = DATA
[DUEL] Epoch ended. INSTR misses = 94, DATA misses = 92. Winner = DATA
[DUEL] Epoch ended. INSTR misses = 75, DATA misses = 85. Winner = INSTR
[DUEL] Epoch ended. INSTR misses = 60, DATA misses = 56. Winner = DATA
[DUEL] Epoch ended. INSTR misses = 100, DATA misses = 104. Winner = INSTR
[DUEL] Epoch ended. INSTR misses = 105, DATA misses = 103. Winner = DATA
[DUEL] Epoch ended. INSTR misses = 47, DATA misses = 46. Winner = DATA
[DUEL] Epoch ended. INSTR misses = 97, DATA misses = 93. Winner = DATA
[DUEL] Epoch ended. INSTR misses = 52, DATA misses = 62. Winner = INSTR
[DUEL] Epoch ended. INSTR misses = 64, DATA misses = 69. Winner = INSTR
[DUEL] Epoch ended. INSTR misses = 123, DATA misses = 113. Winner = DATA
[DUEL] Epoch ended. INSTR misses = 79, DATA misses = 68. Winner = DATA
[DUEL] Epoch ended. INSTR misses = 58, DATA misses = 47. Winner = DATA
[DUEL] Epoch ended. INSTR misses = 94, DATA misses = 89. Winner = DATA
[DUEL] Epoch ended. INSTR misses = 90, DATA misses = 92. Winner = INSTR
[DUEL] Epoch ended. INSTR misses = 77, DATA misses = 86. Winner = INSTR
[DUEL] Epoch ended. INSTR misses = 69, DATA misses = 77. Winner = INSTR
[DUEL] Epoch ended. INSTR misses = 78, DATA misses = 80. Winner = INSTR
[DUEL] Epoch ended. INSTR misses = 77, DATA misses = 80. Winner = INSTR
[DUEL] Epoch ended. INSTR misses = 111, DATA misses = 105. Winner = DATA
[DUEL] Epoch ended. INSTR misses = 97, DATA misses = 90. Winner = DATA
[DUEL] Epoch ended. INSTR misses = 65, DATA misses = 66. Winner = INSTR
[DUEL] Epoch ended. INSTR misses = 61, DATA misses = 62. Winner = INSTR
[DUEL] Epoch ended. INSTR misses = 90, DATA misses = 88. Winner = DATA
[DUEL] Epoch ended. INSTR misses = 87, DATA misses = 88. Winner = INSTR
[DUEL] Epoch ended. INSTR misses = 112, DATA misses = 116. Winner = INSTR
[DUEL] Epoch ended. INSTR misses = 60, DATA misses = 53. Winner = DATA
[DUEL] Epoch ended. INSTR misses = 77, DATA misses = 77. Winner = INSTR
[DUEL] Epoch ended. INSTR misses = 98, DATA misses = 110. Winner = INSTR
Heartbeat CPU 0 instructions: 10000007 cycles: 1716230 heartbeat IPC: 5.827 cumulative IPC: 5.827 (Simulation time: 00 hr 00 min 31 sec)
[DUEL] Epoch ended. INSTR misses = 80, DATA misses = 72. Winner = DATA
[DUEL] Epoch ended. INSTR misses = 79, DATA misses = 76. Winner = DATA
[DUEL] Epoch ended. INSTR misses = 107, DATA misses = 101. Winner = DATA
[DUEL] Epoch ended. INSTR misses = 93, DATA misses = 91. Winner = DATA
[DUEL] Epoch ended. INSTR misses = 62, DATA misses = 61. Winner = DATA
[DUEL] Epoch ended. INSTR misses = 58, DATA misses = 60. Winner = INSTR
[DUEL] Epoch ended. INSTR misses = 117, DATA misses = 125. Winner = INSTR
[DUEL] Epoch ended. INSTR misses = 41, DATA misses = 49. Winner = INSTR
[DUEL] Epoch ended. INSTR misses = 90, DATA misses = 100. Winner = INSTR
[DUEL] Epoch ended. INSTR misses = 79, DATA misses = 93. Winner = INSTR
[DUEL] Epoch ended. INSTR misses = 46, DATA misses = 46. Winner = INSTR
[DUEL] Epoch ended. INSTR misses = 95, DATA misses = 98. Winner = INSTR
[DUEL] Epoch ended. INSTR misses = 103, DATA misses = 109. Winner = INSTR
[DUEL] Epoch ended. INSTR misses = 56, DATA misses = 67. Winner = INSTR
[DUEL] Epoch ended. INSTR misses = 92, DATA misses = 96. Winner = INSTR
[DUEL] Epoch ended. INSTR misses = 45, DATA misses = 46. Winner = INSTR
[DUEL] Epoch ended. INSTR misses = 76, DATA misses = 74. Winner = DATA
[DUEL] Epoch ended. INSTR misses = 78, DATA misses = 86. Winner = INSTR
[DUEL] Epoch ended. INSTR misses = 99, DATA misses = 95. Winner = DATA
[DUEL] Epoch ended. INSTR misses = 58, DATA misses = 63. Winner = INSTR
[DUEL] Epoch ended. INSTR misses = 71, DATA misses = 77. Winner = INSTR
[DUEL] Epoch ended. INSTR misses = 63, DATA misses = 76. Winner = INSTR
[DUEL] Epoch ended. INSTR misses = 101, DATA misses = 86. Winner = DATA
[DUEL] Epoch ended. INSTR misses = 100, DATA misses = 117. Winner = INSTR
[DUEL] Epoch ended. INSTR misses = 61, DATA misses = 49. Winner = DATA
[DUEL] Epoch ended. INSTR misses = 83, DATA misses = 79. Winner = DATA
[DUEL] Epoch ended. INSTR misses = 108, DATA misses = 107. Winner = DATA
[DUEL] Epoch ended. INSTR misses = 103, DATA misses = 105. Winner = INSTR
[DUEL] Epoch ended. INSTR misses = 89, DATA misses = 94. Winner = INSTR
[DUEL] Epoch ended. INSTR misses = 94, DATA misses = 85. Winner = DATA
[DUEL] Epoch ended. INSTR misses = 60, DATA misses = 50. Winner = DATA
[DUEL] Epoch ended. INSTR misses = 62, DATA misses = 66. Winner = INSTR
[DUEL] Epoch ended. INSTR misses = 83, DATA misses = 84. Winner = INSTR
[DUEL] Epoch ended. INSTR misses = 98, DATA misses = 80. Winner = DATA
[DUEL] Epoch ended. INSTR misses = 110, DATA misses = 87. Winner = DATA
[DUEL] Epoch ended. INSTR misses = 61, DATA misses = 72. Winner = INSTR
[DUEL] Epoch ended. INSTR misses = 93, DATA misses = 91. Winner = DATA
[DUEL] Epoch ended. INSTR misses = 59, DATA misses = 44. Winner = DATA
[DUEL] Epoch ended. INSTR misses = 51, DATA misses = 58. Winner = INSTR
Heartbeat CPU 0 instructions: 20000009 cycles: 3383406 heartbeat IPC: 5.998 cumulative IPC: 5.911 (Simulation time: 00 hr 01 min 03 sec)
[DUEL] Epoch ended. INSTR misses = 112, DATA misses = 103. Winner = DATA
[DUEL] Epoch ended. INSTR misses = 73, DATA misses = 77. Winner = INSTR
[DUEL] Epoch ended. INSTR misses = 80, DATA misses = 84. Winner = INSTR
[DUEL] Epoch ended. INSTR misses = 93, DATA misses = 93. Winner = INSTR
[DUEL] Epoch ended. INSTR misses = 63, DATA misses = 59. Winner = DATA
[DUEL] Epoch ended. INSTR misses = 104, DATA misses = 108. Winner = INSTR
[DUEL] Epoch ended. INSTR misses = 90, DATA misses = 94. Winner = INSTR
[DUEL] Epoch ended. INSTR misses = 72, DATA misses = 75. Winner = INSTR
[DUEL] Epoch ended. INSTR misses = 113, DATA misses = 122. Winner = INSTR
[DUEL] Epoch ended. INSTR misses = 105, DATA misses = 106. Winner = INSTR
[DUEL] Epoch ended. INSTR misses = 34, DATA misses = 32. Winner = DATA
[DUEL] Epoch ended. INSTR misses = 84, DATA misses = 89. Winner = INSTR
[DUEL] Epoch ended. INSTR misses = 96, DATA misses = 100. Winner = INSTR
[DUEL] Epoch ended. INSTR misses = 105, DATA misses = 102. Winner = DATA
[DUEL] Epoch ended. INSTR misses = 78, DATA misses = 74. Winner = DATA
[DUEL] Epoch ended. INSTR misses = 48, DATA misses = 46. Winner = DATA
[DUEL] Epoch ended. INSTR misses = 105, DATA misses = 108. Winner = INSTR
[DUEL] Epoch ended. INSTR misses = 77, DATA misses = 74. Winner = DATA
[DUEL] Epoch ended. INSTR misses = 98, DATA misses = 89. Winner = DATA
[DUEL] Epoch ended. INSTR misses = 105, DATA misses = 105. Winner = INSTR
[DUEL] Epoch ended. INSTR misses = 62, DATA misses = 61. Winner = DATA
[DUEL] Epoch ended. INSTR misses = 73, DATA misses = 77. Winner = INSTR
[DUEL] Epoch ended. INSTR misses = 84, DATA misses = 90. Winner = INSTR
[DUEL] Epoch ended. INSTR misses = 119, DATA misses = 124. Winner = INSTR
[DUEL] Epoch ended. INSTR misses = 133, DATA misses = 135. Winner = INSTR
[DUEL] Epoch ended. INSTR misses = 71, DATA misses = 69. Winner = DATA
[DUEL] Epoch ended. INSTR misses = 65, DATA misses = 67. Winner = INSTR
[DUEL] Epoch ended. INSTR misses = 94, DATA misses = 90. Winner = DATA
[DUEL] Epoch ended. INSTR misses = 78, DATA misses = 74. Winner = DATA
[DUEL] Epoch ended. INSTR misses = 126, DATA misses = 115. Winner = DATA
[DUEL] Epoch ended. INSTR misses = 77, DATA misses = 77. Winner = INSTR
[DUEL] Epoch ended. INSTR misses = 37, DATA misses = 41. Winner = INSTR
[DUEL] Epoch ended. INSTR misses = 51, DATA misses = 53. Winner = INSTR
[DUEL] Epoch ended. INSTR misses = 86, DATA misses = 80. Winner = DATA
[DUEL] Epoch ended. INSTR misses = 96, DATA misses = 99. Winner = INSTR
[DUEL] Epoch ended. INSTR misses = 64, DATA misses = 62. Winner = DATA
[DUEL] Epoch ended. INSTR misses = 92, DATA misses = 87. Winner = DATA
[DUEL] Epoch ended. INSTR misses = 93, DATA misses = 80. Winner = DATA
[DUEL] Epoch ended. INSTR misses = 53, DATA misses = 53. Winner = INSTR
Heartbeat CPU 0 instructions: 30000009 cycles: 5050884 heartbeat IPC: 5.997 cumulative IPC: 5.94 (Simulation time: 00 hr 01 min 36 sec)
Warmup finished CPU 0 instructions: 30000009 cycles: 5050885 cumulative IPC: 5.94 (Simulation time: 00 hr 01 min 36 sec)
Warmup complete CPU 0 instructions: 30000009 cycles: 5050885 cumulative IPC: 5.94 (Simulation time: 00 hr 01 min 36 sec)
[DUEL] Epoch ended. INSTR misses = 87, DATA misses = 90. Winner = INSTR
[DUEL] Epoch ended. INSTR misses = 108, DATA misses = 117. Winner = INSTR
[DUEL] Epoch ended. INSTR misses = 80, DATA misses = 75. Winner = DATA
[DUEL] Epoch ended. INSTR misses = 78, DATA misses = 75. Winner = DATA
[DUEL] Epoch ended. INSTR misses = 68, DATA misses = 64. Winner = DATA
[DUEL] Epoch ended. INSTR misses = 66, DATA misses = 62. Winner = DATA
[DUEL] Epoch ended. INSTR misses = 108, DATA misses = 108. Winner = INSTR
[DUEL] Epoch ended. INSTR misses = 81, DATA misses = 72. Winner = DATA
[DUEL] Epoch ended. INSTR misses = 78, DATA misses = 84. Winner = INSTR
[DUEL] Epoch ended. INSTR misses = 95, DATA misses = 97. Winner = INSTR
[DUEL] Epoch ended. INSTR misses = 74, DATA misses = 78. Winner = INSTR
[DUEL] Epoch ended. INSTR misses = 72, DATA misses = 65. Winner = DATA
[DUEL] Epoch ended. INSTR misses = 86, DATA misses = 94. Winner = INSTR
[DUEL] Epoch ended. INSTR misses = 72, DATA misses = 59. Winner = DATA
[DUEL] Epoch ended. INSTR misses = 77, DATA misses = 77. Winner = INSTR
[DUEL] Epoch ended. INSTR misses = 98, DATA misses = 91. Winner = DATA
[DUEL] Epoch ended. INSTR misses = 104, DATA misses = 77. Winner = DATA
[DUEL] Epoch ended. INSTR misses = 82, DATA misses = 104. Winner = INSTR
[DUEL] Epoch ended. INSTR misses = 48, DATA misses = 48. Winner = INSTR
[DUEL] Epoch ended. INSTR misses = 95, DATA misses = 91. Winner = DATA
[DUEL] Epoch ended. INSTR misses = 124, DATA misses = 122. Winner = DATA
[DUEL] Epoch ended. INSTR misses = 64, DATA misses = 66. Winner = INSTR
[DUEL] Epoch ended. INSTR misses = 97, DATA misses = 88. Winner = DATA
[DUEL] Epoch ended. INSTR misses = 124, DATA misses = 124. Winner = INSTR
[DUEL] Epoch ended. INSTR misses = 90, DATA misses = 96. Winner = INSTR
[DUEL] Epoch ended. INSTR misses = 62, DATA misses = 62. Winner = INSTR
[DUEL] Epoch ended. INSTR misses = 121, DATA misses = 122. Winner = INSTR
[DUEL] Epoch ended. INSTR misses = 52, DATA misses = 47. Winner = DATA
[DUEL] Epoch ended. INSTR misses = 64, DATA misses = 67. Winner = INSTR
[DUEL] Epoch ended. INSTR misses = 92, DATA misses = 90. Winner = DATA
[DUEL] Epoch ended. INSTR misses = 83, DATA misses = 80. Winner = DATA
[DUEL] Epoch ended. INSTR misses = 111, DATA misses = 103. Winner = DATA
[DUEL] Epoch ended. INSTR misses = 123, DATA misses = 122. Winner = DATA
[DUEL] Epoch ended. INSTR misses = 78, DATA misses = 80. Winner = INSTR
[DUEL] Epoch ended. INSTR misses = 85, DATA misses = 76. Winner = DATA
[DUEL] Epoch ended. INSTR misses = 88, DATA misses = 92. Winner = INSTR
[DUEL] Epoch ended. INSTR misses = 92, DATA misses = 89. Winner = DATA
[DUEL] Epoch ended. INSTR misses = 66, DATA misses = 68. Winner = INSTR
[DUEL] Epoch ended. INSTR misses = 87, DATA misses = 80. Winner = DATA
Heartbeat CPU 0 instructions: 40000000 cycles: 26448751 heartbeat IPC: 0.4673 cumulative IPC: 0.4673 (Simulation time: 00 hr 04 min 34 sec)
[DUEL] Epoch ended. INSTR misses = 83, DATA misses = 96. Winner = INSTR
[DUEL] Epoch ended. INSTR misses = 91, DATA misses = 92. Winner = INSTR
[DUEL] Epoch ended. INSTR misses = 98, DATA misses = 93. Winner = DATA
[DUEL] Epoch ended. INSTR misses = 95, DATA misses = 92. Winner = DATA
[DUEL] Epoch ended. INSTR misses = 47, DATA misses = 48. Winner = INSTR
[DUEL] Epoch ended. INSTR misses = 68, DATA misses = 67. Winner = DATA
[DUEL] Epoch ended. INSTR misses = 107, DATA misses = 105. Winner = DATA
[DUEL] Epoch ended. INSTR misses = 94, DATA misses = 94. Winner = INSTR
[DUEL] Epoch ended. INSTR misses = 79, DATA misses = 77. Winner = DATA
[DUEL] Epoch ended. INSTR misses = 78, DATA misses = 76. Winner = DATA
[DUEL] Epoch ended. INSTR misses = 94, DATA misses = 80. Winner = DATA
[DUEL] Epoch ended. INSTR misses = 65, DATA misses = 63. Winner = DATA
[DUEL] Epoch ended. INSTR misses = 62, DATA misses = 63. Winner = INSTR
[DUEL] Epoch ended. INSTR misses = 112, DATA misses = 97. Winner = DATA
[DUEL] Epoch ended. INSTR misses = 92, DATA misses = 93. Winner = INSTR
[DUEL] Epoch ended. INSTR misses = 69, DATA misses = 66. Winner = DATA
[DUEL] Epoch ended. INSTR misses = 62, DATA misses = 60. Winner = DATA
[DUEL] Epoch ended. INSTR misses = 67, DATA misses = 64. Winner = DATA
[DUEL] Epoch ended. INSTR misses = 122, DATA misses = 128. Winner = INSTR
[DUEL] Epoch ended. INSTR misses = 97, DATA misses = 92. Winner = DATA
[DUEL] Epoch ended. INSTR misses = 112, DATA misses = 108. Winner = DATA
[DUEL] Epoch ended. INSTR misses = 98, DATA misses = 92. Winner = DATA
[DUEL] Epoch ended. INSTR misses = 103, DATA misses = 109. Winner = INSTR
[DUEL] Epoch ended. INSTR misses = 88, DATA misses = 80. Winner = DATA
[DUEL] Epoch ended. INSTR misses = 76, DATA misses = 78. Winner = INSTR
[DUEL] Epoch ended. INSTR misses = 77, DATA misses = 73. Winner = DATA
[DUEL] Epoch ended. INSTR misses = 79, DATA misses = 84. Winner = INSTR
[DUEL] Epoch ended. INSTR misses = 64, DATA misses = 63. Winner = DATA
[DUEL] Epoch ended. INSTR misses = 75, DATA misses = 80. Winner = INSTR
[DUEL] Epoch ended. INSTR misses = 108, DATA misses = 112. Winner = INSTR
[DUEL] Epoch ended. INSTR misses = 63, DATA misses = 66. Winner = INSTR
[DUEL] Epoch ended. INSTR misses = 67, DATA misses = 61. Winner = DATA
[DUEL] Epoch ended. INSTR misses = 103, DATA misses = 110. Winner = INSTR
[DUEL] Epoch ended. INSTR misses = 95, DATA misses = 95. Winner = INSTR
[DUEL] Epoch ended. INSTR misses = 93, DATA misses = 83. Winner = DATA
[DUEL] Epoch ended. INSTR misses = 81, DATA misses = 84. Winner = INSTR
[DUEL] Epoch ended. INSTR misses = 92, DATA misses = 77. Winner = DATA
[DUEL] Epoch ended. INSTR misses = 49, DATA misses = 79. Winner = INSTR
[DUEL] Epoch ended. INSTR misses = 51, DATA misses = 45. Winner = DATA
Heartbeat CPU 0 instructions: 50000004 cycles: 47484706 heartbeat IPC: 0.4754 cumulative IPC: 0.4713 (Simulation time: 00 hr 07 min 27 sec)
[DUEL] Epoch ended. INSTR misses = 107, DATA misses = 102. Winner = DATA
[DUEL] Epoch ended. INSTR misses = 112, DATA misses = 111. Winner = DATA
[DUEL] Epoch ended. INSTR misses = 48, DATA misses = 45. Winner = DATA
[DUEL] Epoch ended. INSTR misses = 64, DATA misses = 64. Winner = INSTR
[DUEL] Epoch ended. INSTR misses = 108, DATA misses = 109. Winner = INSTR
[DUEL] Epoch ended. INSTR misses = 94, DATA misses = 95. Winner = INSTR
[DUEL] Epoch ended. INSTR misses = 63, DATA misses = 63. Winner = INSTR
[DUEL] Epoch ended. INSTR misses = 106, DATA misses = 108. Winner = INSTR
[DUEL] Epoch ended. INSTR misses = 79, DATA misses = 80. Winner = INSTR
[DUEL] Epoch ended. INSTR misses = 80, DATA misses = 78. Winner = DATA
[DUEL] Epoch ended. INSTR misses = 186, DATA misses = 183. Winner = DATA
[DUEL] Epoch ended. INSTR misses = 72, DATA misses = 50. Winner = DATA
[DUEL] Epoch ended. INSTR misses = 55, DATA misses = 69. Winner = INSTR
[DUEL] Epoch ended. INSTR misses = 84, DATA misses = 85. Winner = INSTR
[DUEL] Epoch ended. INSTR misses = 87, DATA misses = 92. Winner = INSTR
[DUEL] Epoch ended. INSTR misses = 63, DATA misses = 46. Winner = DATA
[DUEL] Epoch ended. INSTR misses = 77, DATA misses = 72. Winner = DATA
[DUEL] Epoch ended. INSTR misses = 69, DATA misses = 85. Winner = INSTR
[DUEL] Epoch ended. INSTR misses = 75, DATA misses = 78. Winner = INSTR
[DUEL] Epoch ended. INSTR misses = 38, DATA misses = 34. Winner = DATA
[DUEL] Epoch ended. INSTR misses = 121, DATA misses = 124. Winner = INSTR
[DUEL] Epoch ended. INSTR misses = 97, DATA misses = 89. Winner = DATA
[DUEL] Epoch ended. INSTR misses = 46, DATA misses = 58. Winner = INSTR
[DUEL] Epoch ended. INSTR misses = 107, DATA misses = 110. Winner = INSTR
[DUEL] Epoch ended. INSTR misses = 81, DATA misses = 78. Winner = DATA
[DUEL] Epoch ended. INSTR misses = 80, DATA misses = 78. Winner = DATA
[DUEL] Epoch ended. INSTR misses = 125, DATA misses = 123. Winner = DATA
[DUEL] Epoch ended. INSTR misses = 92, DATA misses = 96. Winner = INSTR
[DUEL] Epoch ended. INSTR misses = 49, DATA misses = 48. Winner = DATA
[DUEL] Epoch ended. INSTR misses = 76, DATA misses = 80. Winner = INSTR
[DUEL] Epoch ended. INSTR misses = 74, DATA misses = 80. Winner = INSTR
[DUEL] Epoch ended. INSTR misses = 90, DATA misses = 96. Winner = INSTR
[DUEL] Epoch ended. INSTR misses = 81, DATA misses = 77. Winner = DATA
[DUEL] Epoch ended. INSTR misses = 111, DATA misses = 107. Winner = DATA
[DUEL] Epoch ended. INSTR misses = 92, DATA misses = 85. Winner = DATA
[DUEL] Epoch ended. INSTR misses = 106, DATA misses = 101. Winner = DATA
[DUEL] Epoch ended. INSTR misses = 50, DATA misses = 57. Winner = INSTR
[DUEL] Epoch ended. INSTR misses = 64, DATA misses = 59. Winner = DATA
[DUEL] Epoch ended. INSTR misses = 83, DATA misses = 78. Winner = DATA
Heartbeat CPU 0 instructions: 60000000 cycles: 68369607 heartbeat IPC: 0.4788 cumulative IPC: 0.4738 (Simulation time: 00 hr 10 min 20 sec)
[DUEL] Epoch ended. INSTR misses = 81, DATA misses = 77. Winner = DATA
[DUEL] Epoch ended. INSTR misses = 62, DATA misses = 61. Winner = DATA
[DUEL] Epoch ended. INSTR misses = 109, DATA misses = 112. Winner = INSTR
[DUEL] Epoch ended. INSTR misses = 74, DATA misses = 80. Winner = INSTR
[DUEL] Epoch ended. INSTR misses = 92, DATA misses = 95. Winner = INSTR
[DUEL] Epoch ended. INSTR misses = 66, DATA misses = 64. Winner = DATA
[DUEL] Epoch ended. INSTR misses = 88, DATA misses = 94. Winner = INSTR
[DUEL] Epoch ended. INSTR misses = 96, DATA misses = 92. Winner = DATA
[DUEL] Epoch ended. INSTR misses = 86, DATA misses = 76. Winner = DATA
[DUEL] Epoch ended. INSTR misses = 45, DATA misses = 48. Winner = INSTR
[DUEL] Epoch ended. INSTR misses = 121, DATA misses = 124. Winner = INSTR
[DUEL] Epoch ended. INSTR misses = 99, DATA misses = 96. Winner = DATA
[DUEL] Epoch ended. INSTR misses = 79, DATA misses = 78. Winner = DATA
[DUEL] Epoch ended. INSTR misses = 77, DATA misses = 79. Winner = INSTR
[DUEL] Epoch ended. INSTR misses = 92, DATA misses = 96. Winner = INSTR
[DUEL] Epoch ended. INSTR misses = 96, DATA misses = 95. Winner = DATA
[DUEL] Epoch ended. INSTR misses = 68, DATA misses = 63. Winner = DATA
[DUEL] Epoch ended. INSTR misses = 112, DATA misses = 107. Winner = DATA
[DUEL] Epoch ended. INSTR misses = 91, DATA misses = 95. Winner = INSTR
[DUEL] Epoch ended. INSTR misses = 105, DATA misses = 108. Winner = INSTR
[DUEL] Epoch ended. INSTR misses = 32, DATA misses = 33. Winner = INSTR
[DUEL] Epoch ended. INSTR misses = 48, DATA misses = 48. Winner = INSTR
[DUEL] Epoch ended. INSTR misses = 96, DATA misses = 94. Winner = DATA
[DUEL] Epoch ended. INSTR misses = 49, DATA misses = 48. Winner = DATA
[DUEL] Epoch ended. INSTR misses = 137, DATA misses = 141. Winner = INSTR
[DUEL] Epoch ended. INSTR misses = 95, DATA misses = 97. Winner = INSTR
[DUEL] Epoch ended. INSTR misses = 64, DATA misses = 62. Winner = DATA
[DUEL] Epoch ended. INSTR misses = 77, DATA misses = 64. Winner = DATA
[DUEL] Epoch ended. INSTR misses = 71, DATA misses = 76. Winner = INSTR
[DUEL] Epoch ended. INSTR misses = 109, DATA misses = 106. Winner = DATA
[DUEL] Epoch ended. INSTR misses = 82, DATA misses = 80. Winner = DATA
[DUEL] Epoch ended. INSTR misses = 88, DATA misses = 88. Winner = INSTR
[DUEL] Epoch ended. INSTR misses = 70, DATA misses = 65. Winner = DATA
[DUEL] Epoch ended. INSTR misses = 116, DATA misses = 126. Winner = INSTR
[DUEL] Epoch ended. INSTR misses = 80, DATA misses = 80. Winner = INSTR
[DUEL] Epoch ended. INSTR misses = 66, DATA misses = 62. Winner = DATA
[DUEL] Epoch ended. INSTR misses = 63, DATA misses = 62. Winner = DATA
[DUEL] Epoch ended. INSTR misses = 120, DATA misses = 126. Winner = INSTR
[DUEL] Epoch ended. INSTR misses = 65, DATA misses = 60. Winner = DATA
Heartbeat CPU 0 instructions: 70000005 cycles: 89146542 heartbeat IPC: 0.4813 cumulative IPC: 0.4756 (Simulation time: 00 hr 13 min 12 sec)
[DUEL] Epoch ended. INSTR misses = 74, DATA misses = 74. Winner = INSTR
[DUEL] Epoch ended. INSTR misses = 113, DATA misses = 117. Winner = INSTR
[DUEL] Epoch ended. INSTR misses = 110, DATA misses = 104. Winner = DATA
[DUEL] Epoch ended. INSTR misses = 78, DATA misses = 75. Winner = DATA
[DUEL] Epoch ended. INSTR misses = 57, DATA misses = 58. Winner = INSTR
[DUEL] Epoch ended. INSTR misses = 83, DATA misses = 81. Winner = DATA
[DUEL] Epoch ended. INSTR misses = 79, DATA misses = 77. Winner = DATA
[DUEL] Epoch ended. INSTR misses = 66, DATA misses = 60. Winner = DATA
[DUEL] Epoch ended. INSTR misses = 92, DATA misses = 68. Winner = DATA
[DUEL] Epoch ended. INSTR misses = 99, DATA misses = 107. Winner = INSTR
[DUEL] Epoch ended. INSTR misses = 110, DATA misses = 104. Winner = DATA
[DUEL] Epoch ended. INSTR misses = 49, DATA misses = 57. Winner = INSTR
[DUEL] Epoch ended. INSTR misses = 80, DATA misses = 78. Winner = DATA
[DUEL] Epoch ended. INSTR misses = 94, DATA misses = 81. Winner = DATA
[DUEL] Epoch ended. INSTR misses = 91, DATA misses = 107. Winner = INSTR
[DUEL] Epoch ended. INSTR misses = 66, DATA misses = 64. Winner = DATA
[DUEL] Epoch ended. INSTR misses = 78, DATA misses = 79. Winner = INSTR
[DUEL] Epoch ended. INSTR misses = 121, DATA misses = 127. Winner = INSTR
[DUEL] Epoch ended. INSTR misses = 110, DATA misses = 106. Winner = DATA
[DUEL] Epoch ended. INSTR misses = 96, DATA misses = 87. Winner = DATA
[DUEL] Epoch ended. INSTR misses = 57, DATA misses = 67. Winner = INSTR
[DUEL] Epoch ended. INSTR misses = 61, DATA misses = 80. Winner = INSTR
[DUEL] Epoch ended. INSTR misses = 97, DATA misses = 94. Winner = DATA
[DUEL] Epoch ended. INSTR misses = 108, DATA misses = 108. Winner = INSTR
[DUEL] Epoch ended. INSTR misses = 64, DATA misses = 63. Winner = DATA
[DUEL] Epoch ended. INSTR misses = 79, DATA misses = 79. Winner = INSTR
[DUEL] Epoch ended. INSTR misses = 99, DATA misses = 96. Winner = DATA
[DUEL] Epoch ended. INSTR misses = 51, DATA misses = 48. Winner = DATA
[DUEL] Epoch ended. INSTR misses = 106, DATA misses = 110. Winner = INSTR
[DUEL] Epoch ended. INSTR misses = 89, DATA misses = 78. Winner = DATA
[DUEL] Epoch ended. INSTR misses = 66, DATA misses = 64. Winner = DATA
[DUEL] Epoch ended. INSTR misses = 81, DATA misses = 76. Winner = DATA
[DUEL] Epoch ended. INSTR misses = 48, DATA misses = 31. Winner = DATA
[DUEL] Epoch ended. INSTR misses = 89, DATA misses = 91. Winner = INSTR
[DUEL] Epoch ended. INSTR misses = 117, DATA misses = 103. Winner = DATA
[DUEL] Epoch ended. INSTR misses = 81, DATA misses = 75. Winner = DATA
[DUEL] Epoch ended. INSTR misses = 77, DATA misses = 60. Winner = DATA
[DUEL] Epoch ended. INSTR misses = 107, DATA misses = 107. Winner = INSTR
[DUEL] Epoch ended. INSTR misses = 85, DATA misses = 74. Winner = DATA
Heartbeat CPU 0 instructions: 80000005 cycles: 110086041 heartbeat IPC: 0.4776 cumulative IPC: 0.476 (Simulation time: 00 hr 16 min 05 sec)
[DUEL] Epoch ended. INSTR misses = 84, DATA misses = 79. Winner = DATA
[DUEL] Epoch ended. INSTR misses = 96, DATA misses = 90. Winner = DATA
[DUEL] Epoch ended. INSTR misses = 118, DATA misses = 107. Winner = DATA
[DUEL] Epoch ended. INSTR misses = 68, DATA misses = 62. Winner = DATA
[DUEL] Epoch ended. INSTR misses = 57, DATA misses = 49. Winner = DATA
[DUEL] Epoch ended. INSTR misses = 94, DATA misses = 76. Winner = DATA
[DUEL] Epoch ended. INSTR misses = 89, DATA misses = 79. Winner = DATA
[DUEL] Epoch ended. INSTR misses = 81, DATA misses = 77. Winner = DATA
[DUEL] Epoch ended. INSTR misses = 97, DATA misses = 97. Winner = INSTR
[DUEL] Epoch ended. INSTR misses = 72, DATA misses = 63. Winner = DATA
[DUEL] Epoch ended. INSTR misses = 100, DATA misses = 96. Winner = DATA
[DUEL] Epoch ended. INSTR misses = 92, DATA misses = 92. Winner = INSTR
[DUEL] Epoch ended. INSTR misses = 100, DATA misses = 96. Winner = DATA
[DUEL] Epoch ended. INSTR misses = 74, DATA misses = 78. Winner = INSTR
[DUEL] Epoch ended. INSTR misses = 86, DATA misses = 80. Winner = DATA
[DUEL] Epoch ended. INSTR misses = 116, DATA misses = 126. Winner = INSTR
[DUEL] Epoch ended. INSTR misses = 49, DATA misses = 48. Winner = DATA
[DUEL] Epoch ended. INSTR misses = 52, DATA misses = 48. Winner = DATA
[DUEL] Epoch ended. INSTR misses = 96, DATA misses = 93. Winner = DATA
[DUEL] Epoch ended. INSTR misses = 97, DATA misses = 90. Winner = DATA
[DUEL] Epoch ended. INSTR misses = 91, DATA misses = 88. Winner = DATA
[DUEL] Epoch ended. INSTR misses = 94, DATA misses = 98. Winner = INSTR
[DUEL] Epoch ended. INSTR misses = 65, DATA misses = 59. Winner = DATA
[DUEL] Epoch ended. INSTR misses = 50, DATA misses = 48. Winner = DATA
[DUEL] Epoch ended. INSTR misses = 104, DATA misses = 106. Winner = INSTR
[DUEL] Epoch ended. INSTR misses = 49, DATA misses = 56. Winner = INSTR
[DUEL] Epoch ended. INSTR misses = 92, DATA misses = 88. Winner = DATA
[DUEL] Epoch ended. INSTR misses = 124, DATA misses = 122. Winner = DATA
[DUEL] Epoch ended. INSTR misses = 79, DATA misses = 77. Winner = DATA
[DUEL] Epoch ended. INSTR misses = 66, DATA misses = 63. Winner = DATA
[DUEL] Epoch ended. INSTR misses = 103, DATA misses = 109. Winner = INSTR
[DUEL] Epoch ended. INSTR misses = 81, DATA misses = 80. Winner = DATA
[DUEL] Epoch ended. INSTR misses = 63, DATA misses = 64. Winner = INSTR
[DUEL] Epoch ended. INSTR misses = 107, DATA misses = 107. Winner = INSTR
[DUEL] Epoch ended. INSTR misses = 77, DATA misses = 75. Winner = DATA
[DUEL] Epoch ended. INSTR misses = 81, DATA misses = 82. Winner = INSTR
[DUEL] Epoch ended. INSTR misses = 107, DATA misses = 109. Winner = INSTR
[DUEL] Epoch ended. INSTR misses = 97, DATA misses = 93. Winner = DATA
[DUEL] Epoch ended. INSTR misses = 65, DATA misses = 50. Winner = DATA
Heartbeat CPU 0 instructions: 90000004 cycles: 130979818 heartbeat IPC: 0.4786 cumulative IPC: 0.4765 (Simulation time: 00 hr 18 min 58 sec)
[DUEL] Epoch ended. INSTR misses = 96, DATA misses = 104. Winner = INSTR
[DUEL] Epoch ended. INSTR misses = 44, DATA misses = 44. Winner = INSTR
[DUEL] Epoch ended. INSTR misses = 80, DATA misses = 92. Winner = INSTR
[DUEL] Epoch ended. INSTR misses = 78, DATA misses = 81. Winner = INSTR
[DUEL] Epoch ended. INSTR misses = 45, DATA misses = 49. Winner = INSTR
[DUEL] Epoch ended. INSTR misses = 97, DATA misses = 105. Winner = INSTR
[DUEL] Epoch ended. INSTR misses = 91, DATA misses = 92. Winner = INSTR
[DUEL] Epoch ended. INSTR misses = 112, DATA misses = 110. Winner = DATA
[DUEL] Epoch ended. INSTR misses = 91, DATA misses = 95. Winner = INSTR
[DUEL] Epoch ended. INSTR misses = 79, DATA misses = 78. Winner = DATA
[DUEL] Epoch ended. INSTR misses = 93, DATA misses = 94. Winner = INSTR
[DUEL] Epoch ended. INSTR misses = 110, DATA misses = 103. Winner = DATA
[DUEL] Epoch ended. INSTR misses = 82, DATA misses = 79. Winner = DATA
[DUEL] Epoch ended. INSTR misses = 94, DATA misses = 92. Winner = DATA
[DUEL] Epoch ended. INSTR misses = 66, DATA misses = 57. Winner = DATA
[DUEL] Epoch ended. INSTR misses = 95, DATA misses = 96. Winner = INSTR
[DUEL] Epoch ended. INSTR misses = 107, DATA misses = 107. Winner = INSTR
[DUEL] Epoch ended. INSTR misses = 96, DATA misses = 93. Winner = DATA
[DUEL] Epoch ended. INSTR misses = 94, DATA misses = 94. Winner = INSTR
[DUEL] Epoch ended. INSTR misses = 73, DATA misses = 64. Winner = DATA
[DUEL] Epoch ended. INSTR misses = 70, DATA misses = 78. Winner = INSTR
[DUEL] Epoch ended. INSTR misses = 123, DATA misses = 126. Winner = INSTR
[DUEL] Epoch ended. INSTR misses = 91, DATA misses = 91. Winner = INSTR
[DUEL] Epoch ended. INSTR misses = 83, DATA misses = 82. Winner = DATA
[DUEL] Epoch ended. INSTR misses = 62, DATA misses = 62. Winner = INSTR
[DUEL] Epoch ended. INSTR misses = 90, DATA misses = 90. Winner = INSTR
[DUEL] Epoch ended. INSTR misses = 110, DATA misses = 112. Winner = INSTR
[DUEL] Epoch ended. INSTR misses = 78, DATA misses = 88. Winner = INSTR
[DUEL] Epoch ended. INSTR misses = 47, DATA misses = 58. Winner = INSTR
[DUEL] Epoch ended. INSTR misses = 50, DATA misses = 48. Winner = DATA
[DUEL] Epoch ended. INSTR misses = 106, DATA misses = 95. Winner = DATA
[DUEL] Epoch ended. INSTR misses = 27, DATA misses = 29. Winner = INSTR
[DUEL] Epoch ended. INSTR misses = 58, DATA misses = 66. Winner = INSTR
[DUEL] Epoch ended. INSTR misses = 42, DATA misses = 39. Winner = DATA
[DUEL] Epoch ended. INSTR misses = 58, DATA misses = 58. Winner = INSTR
[DUEL] Epoch ended. INSTR misses = 43, DATA misses = 37. Winner = DATA
[DUEL] Epoch ended. INSTR misses = 63, DATA misses = 47. Winner = DATA
[DUEL] Epoch ended. INSTR misses = 33, DATA misses = 35. Winner = INSTR
[DUEL] Epoch ended. INSTR misses = 69, DATA misses = 62. Winner = DATA
Heartbeat CPU 0 instructions: 100000009 cycles: 151215737 heartbeat IPC: 0.4942 cumulative IPC: 0.4789 (Simulation time: 00 hr 21 min 44 sec)
*** Reached end of trace: (0, "../traces/secret_traces/compute_fp/compute_fp_9.champsimtrace.xz")
[DUEL] Epoch ended. INSTR misses = 25, DATA misses = 66. Winner = INSTR
[DUEL] Epoch ended. INSTR misses = 16, DATA misses = 26. Winner = INSTR
[DUEL] Epoch ended. INSTR misses = 36, DATA misses = 45. Winner = INSTR
[DUEL] Epoch ended. INSTR misses = 33, DATA misses = 44. Winner = INSTR
[DUEL] Epoch ended. INSTR misses = 54, DATA misses = 63. Winner = INSTR
[DUEL] Epoch ended. INSTR misses = 63, DATA misses = 66. Winner = INSTR
[DUEL] Epoch ended. INSTR misses = 68, DATA misses = 63. Winner = DATA
[DUEL] Epoch ended. INSTR misses = 72, DATA misses = 62. Winner = DATA
[DUEL] Epoch ended. INSTR misses = 63, DATA misses = 72. Winner = INSTR
[DUEL] Epoch ended. INSTR misses = 115, DATA misses = 110. Winner = DATA
[DUEL] Epoch ended. INSTR misses = 115, DATA misses = 104. Winner = DATA
[DUEL] Epoch ended. INSTR misses = 59, DATA misses = 56. Winner = DATA
[DUEL] Epoch ended. INSTR misses = 80, DATA misses = 86. Winner = INSTR
[DUEL] Epoch ended. INSTR misses = 72, DATA misses = 77. Winner = INSTR
[DUEL] Epoch ended. INSTR misses = 83, DATA misses = 84. Winner = INSTR
[DUEL] Epoch ended. INSTR misses = 78, DATA misses = 82. Winner = INSTR
[DUEL] Epoch ended. INSTR misses = 106, DATA misses = 99. Winner = DATA
[DUEL] Epoch ended. INSTR misses = 74, DATA misses = 70. Winner = DATA
[DUEL] Epoch ended. INSTR misses = 76, DATA misses = 76. Winner = INSTR
[DUEL] Epoch ended. INSTR misses = 58, DATA misses = 56. Winner = DATA
[DUEL] Epoch ended. INSTR misses = 104, DATA misses = 105. Winner = INSTR
[DUEL] Epoch ended. INSTR misses = 94, DATA misses = 92. Winner = DATA
[DUEL] Epoch ended. INSTR misses = 63, DATA misses = 58. Winner = DATA
[DUEL] Epoch ended. INSTR misses = 94, DATA misses = 88. Winner = DATA
[DUEL] Epoch ended. INSTR misses = 96, DATA misses = 92. Winner = DATA
[DUEL] Epoch ended. INSTR misses = 80, DATA misses = 80. Winner = INSTR
[DUEL] Epoch ended. INSTR misses = 60, DATA misses = 60. Winner = INSTR
[DUEL] Epoch ended. INSTR misses = 61, DATA misses = 66. Winner = INSTR
[DUEL] Epoch ended. INSTR misses = 111, DATA misses = 115. Winner = INSTR
[DUEL] Epoch ended. INSTR misses = 81, DATA misses = 76. Winner = DATA
[DUEL] Epoch ended. INSTR misses = 121, DATA misses = 119. Winner = DATA
[DUEL] Epoch ended. INSTR misses = 78, DATA misses = 79. Winner = INSTR
[DUEL] Epoch ended. INSTR misses = 79, DATA misses = 71. Winner = DATA
[DUEL] Epoch ended. INSTR misses = 69, DATA misses = 78. Winner = INSTR
[DUEL] Epoch ended. INSTR misses = 72, DATA misses = 65. Winner = DATA
[DUEL] Epoch ended. INSTR misses = 104, DATA misses = 107. Winner = INSTR
[DUEL] Epoch ended. INSTR misses = 110, DATA misses = 107. Winner = DATA
[DUEL] Epoch ended. INSTR misses = 70, DATA misses = 63. Winner = DATA
[DUEL] Epoch ended. INSTR misses = 88, DATA misses = 95. Winner = INSTR
Heartbeat CPU 0 instructions: 110000003 cycles: 171703255 heartbeat IPC: 0.4881 cumulative IPC: 0.48 (Simulation time: 00 hr 24 min 31 sec)
[DUEL] Epoch ended. INSTR misses = 91, DATA misses = 91. Winner = INSTR
[DUEL] Epoch ended. INSTR misses = 66, DATA misses = 63. Winner = DATA
[DUEL] Epoch ended. INSTR misses = 109, DATA misses = 112. Winner = INSTR
[DUEL] Epoch ended. INSTR misses = 96, DATA misses = 93. Winner = DATA
[DUEL] Epoch ended. INSTR misses = 77, DATA misses = 76. Winner = DATA
[DUEL] Epoch ended. INSTR misses = 65, DATA misses = 64. Winner = DATA
[DUEL] Epoch ended. INSTR misses = 90, DATA misses = 94. Winner = INSTR
[DUEL] Epoch ended. INSTR misses = 90, DATA misses = 96. Winner = INSTR
[DUEL] Epoch ended. INSTR misses = 73, DATA misses = 80. Winner = INSTR
[DUEL] Epoch ended. INSTR misses = 59, DATA misses = 80. Winner = INSTR
[DUEL] Epoch ended. INSTR misses = 76, DATA misses = 71. Winner = DATA
[DUEL] Epoch ended. INSTR misses = 76, DATA misses = 75. Winner = DATA
[DUEL] Epoch ended. INSTR misses = 103, DATA misses = 110. Winner = INSTR
[DUEL] Epoch ended. INSTR misses = 89, DATA misses = 93. Winner = INSTR
[DUEL] Epoch ended. INSTR misses = 76, DATA misses = 79. Winner = INSTR
[DUEL] Epoch ended. INSTR misses = 79, DATA misses = 80. Winner = INSTR
[DUEL] Epoch ended. INSTR misses = 48, DATA misses = 46. Winner = DATA
[DUEL] Epoch ended. INSTR misses = 78, DATA misses = 74. Winner = DATA
[DUEL] Epoch ended. INSTR misses = 127, DATA misses = 121. Winner = DATA
[DUEL] Epoch ended. INSTR misses = 90, DATA misses = 89. Winner = DATA
[DUEL] Epoch ended. INSTR misses = 61, DATA misses = 70. Winner = INSTR
[DUEL] Epoch ended. INSTR misses = 54, DATA misses = 64. Winner = INSTR
[DUEL] Epoch ended. INSTR misses = 76, DATA misses = 78. Winner = INSTR
[DUEL] Epoch ended. INSTR misses = 106, DATA misses = 109. Winner = INSTR
[DUEL] Epoch ended. INSTR misses = 79, DATA misses = 78. Winner = DATA
[DUEL] Epoch ended. INSTR misses = 65, DATA misses = 60. Winner = DATA
[DUEL] Epoch ended. INSTR misses = 128, DATA misses = 123. Winner = DATA
[DUEL] Epoch ended. INSTR misses = 80, DATA misses = 77. Winner = DATA
[DUEL] Epoch ended. INSTR misses = 105, DATA misses = 111. Winner = INSTR
[DUEL] Epoch ended. INSTR misses = 91, DATA misses = 90. Winner = DATA
[DUEL] Epoch ended. INSTR misses = 84, DATA misses = 78. Winner = DATA
[DUEL] Epoch ended. INSTR misses = 73, DATA misses = 74. Winner = INSTR
[DUEL] Epoch ended. INSTR misses = 61, DATA misses = 60. Winner = DATA
[DUEL] Epoch ended. INSTR misses = 94, DATA misses = 92. Winner = DATA
[DUEL] Epoch ended. INSTR misses = 106, DATA misses = 92. Winner = DATA
[DUEL] Epoch ended. INSTR misses = 98, DATA misses = 93. Winner = DATA
[DUEL] Epoch ended. INSTR misses = 90, DATA misses = 71. Winner = DATA
[DUEL] Epoch ended. INSTR misses = 63, DATA misses = 84. Winner = INSTR
[DUEL] Epoch ended. INSTR misses = 48, DATA misses = 45. Winner = DATA
Heartbeat CPU 0 instructions: 120000010 cycles: 192597667 heartbeat IPC: 0.4786 cumulative IPC: 0.4799 (Simulation time: 00 hr 27 min 24 sec)
[DUEL] Epoch ended. INSTR misses = 96, DATA misses = 88. Winner = DATA
[DUEL] Epoch ended. INSTR misses = 95, DATA misses = 98. Winner = INSTR
[DUEL] Epoch ended. INSTR misses = 76, DATA misses = 78. Winner = INSTR
[DUEL] Epoch ended. INSTR misses = 80, DATA misses = 88. Winner = INSTR
[DUEL] Epoch ended. INSTR misses = 65, DATA misses = 64. Winner = DATA
[DUEL] Epoch ended. INSTR misses = 80, DATA misses = 78. Winner = DATA
[DUEL] Epoch ended. INSTR misses = 110, DATA misses = 109. Winner = DATA
[DUEL] Epoch ended. INSTR misses = 109, DATA misses = 112. Winner = INSTR
[DUEL] Epoch ended. INSTR misses = 76, DATA misses = 77. Winner = INSTR
[DUEL] Epoch ended. INSTR misses = 108, DATA misses = 112. Winner = INSTR
[DUEL] Epoch ended. INSTR misses = 93, DATA misses = 94. Winner = INSTR
[DUEL] Epoch ended. INSTR misses = 75, DATA misses = 79. Winner = INSTR
[DUEL] Epoch ended. INSTR misses = 95, DATA misses = 95. Winner = INSTR
[DUEL] Epoch ended. INSTR misses = 95, DATA misses = 97. Winner = INSTR
[DUEL] Epoch ended. INSTR misses = 95, DATA misses = 89. Winner = DATA
[DUEL] Epoch ended. INSTR misses = 49, DATA misses = 52. Winner = INSTR
[DUEL] Epoch ended. INSTR misses = 80, DATA misses = 78. Winner = DATA
[DUEL] Epoch ended. INSTR misses = 93, DATA misses = 97. Winner = INSTR
[DUEL] Epoch ended. INSTR misses = 80, DATA misses = 77. Winner = DATA
[DUEL] Epoch ended. INSTR misses = 127, DATA misses = 123. Winner = DATA
[DUEL] Epoch ended. INSTR misses = 81, DATA misses = 77. Winner = DATA
[DUEL] Epoch ended. INSTR misses = 66, DATA misses = 64. Winner = DATA
[DUEL] Epoch ended. INSTR misses = 93, DATA misses = 88. Winner = DATA
[DUEL] Epoch ended. INSTR misses = 89, DATA misses = 100. Winner = INSTR
[DUEL] Epoch ended. INSTR misses = 155, DATA misses = 152. Winner = DATA
[DUEL] Epoch ended. INSTR misses = 97, DATA misses = 94. Winner = DATA
[DUEL] Epoch ended. INSTR misses = 61, DATA misses = 56. Winner = DATA
[DUEL] Epoch ended. INSTR misses = 72, DATA misses = 82. Winner = INSTR
[DUEL] Epoch ended. INSTR misses = 85, DATA misses = 79. Winner = DATA
[DUEL] Epoch ended. INSTR misses = 89, DATA misses = 92. Winner = INSTR
[DUEL] Epoch ended. INSTR misses = 131, DATA misses = 124. Winner = DATA
[DUEL] Epoch ended. INSTR misses = 62, DATA misses = 62. Winner = INSTR
[DUEL] Epoch ended. INSTR misses = 48, DATA misses = 46. Winner = DATA
[DUEL] Epoch ended. INSTR misses = 61, DATA misses = 59. Winner = DATA
[DUEL] Epoch ended. INSTR misses = 95, DATA misses = 99. Winner = INSTR
[DUEL] Epoch ended. INSTR misses = 79, DATA misses = 74. Winner = DATA
[DUEL] Epoch ended. INSTR misses = 80, DATA misses = 78. Winner = DATA
[DUEL] Epoch ended. INSTR misses = 113, DATA misses = 110. Winner = DATA
[DUEL] Epoch ended. INSTR misses = 64, DATA misses = 59. Winner = DATA
Heartbeat CPU 0 instructions: 130000006 cycles: 213477657 heartbeat IPC: 0.4789 cumulative IPC: 0.4798 (Simulation time: 00 hr 30 min 17 sec)
Simulation finished CPU 0 instructions: 100000009 cycles: 208426774 cumulative IPC: 0.4798 (Simulation time: 00 hr 30 min 17 sec)
Simulation complete CPU 0 instructions: 100000009 cycles: 208426774 cumulative IPC: 0.4798 (Simulation time: 00 hr 30 min 17 sec)

ChampSim completed all CPUs

=== Simulation ===
CPU 0 runs ../traces/secret_traces/compute_fp/compute_fp_9.champsimtrace.xz
Region of Interest Statistics

CPU 0 cumulative IPC: 0.4798 instructions: 100000009 cycles: 208426774
CPU 0 Branch Prediction Accuracy: 99.58% MPKI: 0.1317 Average ROB Occupancy at Mispredict: 32.5
Branch type MPKI
BRANCH_DIRECT_JUMP: 0.00703
BRANCH_INDIRECT: 0.0655
BRANCH_CONDITIONAL: 0.0262
BRANCH_DIRECT_CALL: 0.0197
BRANCH_INDIRECT_CALL: 0.00242
BRANCH_RETURN: 0.0108

LLC TOTAL        ACCESS:    8424723 HIT:     357800 MISS:    8066923
LLC LOAD         ACCESS:     289063 HIT:       1564 MISS:     287499
LLC RFO          ACCESS:      27043 HIT:       1242 MISS:      25801
LLC PREFETCH     ACCESS:    5901720 HIT:      90829 MISS:    5810891
LLC WRITE        ACCESS:    2192016 HIT:     263506 MISS:    1928510
LLC TRANSLATION  ACCESS:      14881 HIT:        659 MISS:      14222
LLC PREFETCH REQUESTED:          0 ISSUED:          0 USEFUL:          0 USELESS:          0
LLC AVERAGE MISS LATENCY: 703.3 cycles
cpu0_DTLB TOTAL        ACCESS:   24384705 HIT:   24140626 MISS:     244079
cpu0_DTLB LOAD         ACCESS:   24384705 HIT:   24140626 MISS:     244079
cpu0_DTLB RFO          ACCESS:          0 HIT:          0 MISS:          0
cpu0_DTLB PREFETCH     ACCESS:          0 HIT:          0 MISS:          0
cpu0_DTLB WRITE        ACCESS:          0 HIT:          0 MISS:          0
cpu0_DTLB TRANSLATION  ACCESS:          0 HIT:          0 MISS:          0
cpu0_DTLB PREFETCH REQUESTED:          0 ISSUED:          0 USEFUL:          0 USELESS:          0
cpu0_DTLB AVERAGE MISS LATENCY: 95.61 cycles
cpu0_ITLB TOTAL        ACCESS:     118352 HIT:     116816 MISS:       1536
cpu0_ITLB LOAD         ACCESS:     118352 HIT:     116816 MISS:       1536
cpu0_ITLB RFO          ACCESS:          0 HIT:          0 MISS:          0
cpu0_ITLB PREFETCH     ACCESS:          0 HIT:          0 MISS:          0
cpu0_ITLB WRITE        ACCESS:          0 HIT:          0 MISS:          0
cpu0_ITLB TRANSLATION  ACCESS:          0 HIT:          0 MISS:          0
cpu0_ITLB PREFETCH REQUESTED:          0 ISSUED:          0 USEFUL:          0 USELESS:          0
cpu0_ITLB AVERAGE MISS LATENCY: 63.83 cycles
cpu0_L1D TOTAL        ACCESS:   40513192 HIT:   24910224 MISS:   15602968
cpu0_L1D LOAD         ACCESS:   17072027 HIT:   10620480 MISS:    6451547
cpu0_L1D RFO          ACCESS:          0 HIT:          0 MISS:          0
cpu0_L1D PREFETCH     ACCESS:   12876443 HIT:    4793555 MISS:    8082888
cpu0_L1D WRITE        ACCESS:   10478676 HIT:    9477255 MISS:    1001421
cpu0_L1D TRANSLATION  ACCESS:      86046 HIT:      18934 MISS:      67112
cpu0_L1D PREFETCH REQUESTED:  333022917 ISSUED:   12876447 USEFUL:    1999449 USELESS:     214568
cpu0_L1D AVERAGE MISS LATENCY: 134.9 cycles
cpu0_L1I TOTAL        ACCESS:     171299 HIT:     135701 MISS:      35598
cpu0_L1I LOAD         ACCESS:      59198 HIT:      48638 MISS:      10560
cpu0_L1I RFO          ACCESS:          0 HIT:          0 MISS:          0
cpu0_L1I PREFETCH     ACCESS:     112101 HIT:      87063 MISS:      25038
cpu0_L1I WRITE        ACCESS:          0 HIT:          0 MISS:          0
cpu0_L1I TRANSLATION  ACCESS:          0 HIT:          0 MISS:          0
cpu0_L1I PREFETCH REQUESTED:     166490 ISSUED:     112101 USEFUL:      13595 USELESS:       9404
cpu0_L1I AVERAGE MISS LATENCY: 132.9 cycles
cpu0_L2C TOTAL        ACCESS:   23892215 HIT:    8121869 MISS:   15770346
cpu0_L2C LOAD         ACCESS:    3717323 HIT:    1277881 MISS:    2439442
cpu0_L2C RFO          ACCESS:      68899 HIT:      31287 MISS:      37612
cpu0_L2C PREFETCH     ACCESS:   17844538 HIT:    4566151 MISS:   13278387
cpu0_L2C WRITE        ACCESS:    2194372 HIT:    2194348 MISS:         24
cpu0_L2C TRANSLATION  ACCESS:      67083 HIT:      52202 MISS:      14881
cpu0_L2C PREFETCH REQUESTED:   14253209 ISSUED:   10812073 USEFUL:    2863669 USELESS:     654787
cpu0_L2C AVERAGE MISS LATENCY: 316.5 cycles
cpu0_STLB TOTAL        ACCESS:     116794 HIT:      31197 MISS:      85597
cpu0_STLB LOAD         ACCESS:     116794 HIT:      31197 MISS:      85597
cpu0_STLB RFO          ACCESS:          0 HIT:          0 MISS:          0
cpu0_STLB PREFETCH     ACCESS:          0 HIT:          0 MISS:          0
cpu0_STLB WRITE        ACCESS:          0 HIT:          0 MISS:          0
cpu0_STLB TRANSLATION  ACCESS:          0 HIT:          0 MISS:          0
cpu0_STLB PREFETCH REQUESTED:          0 ISSUED:          0 USEFUL:          0 USELESS:          0
cpu0_STLB AVERAGE MISS LATENCY: 336.6 cycles

DRAM Statistics

Channel 0 RQ ROW_BUFFER_HIT:    1156863
  ROW_BUFFER_MISS:    1921164
 AVG DBUS CONGESTED CYCLE: 3.954
WQ ROW_BUFFER_HIT: Channel 0 
  ROW_BUFFER_MISS:     109459
  FULL:     982964

Channel 1 RQ ROW_BUFFER_HIT:    1143229
  ROW_BUFFER_MISS:    1917125
 AVG DBUS CONGESTED CYCLE: 3.954
WQ ROW_BUFFER_HIT: Channel 1 
  ROW_BUFFER_MISS:     111302
  FULL:     980562
BERTI TO_L1: 77838494 TO_L2: 319568679 TO_L2_BC_MSHR: 229882895
BERTI AVG_LAT: 503.417 NUM_TRACK_LATENCY: 7206957 NUM_CANT_TRACK_LATENCY: 2028
BERTI CROSS_PAGE 42002196 NO_CROSS_PAGE: 355404977
BERTI FOUND_BERTI: 67703122 NO_FOUND_BERTI: 2908459
BERTI AVERAGE_ISSUED: 3.94232
CPU 0 L1I Entangling prefetcher final stats
IP accesses: 46db 11b6c0 633 / 83091
IP misses: 46db 11b6c0 622 / 34453
IP hits: 0 0 0 / 0
IP late: 215c 85700 15 / 5580
IP wrong: 2172 85c80 20 / 9360
miss rate: 0.414642
coverage: 0
coverage_late: 0.16196
accuracy: 0
accuracy_late: 0.373494
discarded: 0
evicts entangled j table: 0
evicts entangled k table: 1493
max bb size: 65
formats: 459 0 1261 723 285 653 0 
hist_lookups: 1022 1145 918 853 742 615 534 421 333 272 191 128 88 65 34 0 12 3610 
hist_lookups_evict: 0.10926 %
hist_lookups_shortlat: 32.869 %
bb_found_hist: 0 14367 6106 2843 1076 622 225 68 69 12 11 4 15 0 3 0 20 1 0 0 0 0 0 0 0 0 0 0 0 0 0 0 0 0 0 0 0 0 0 0 0 0 0 0 0 0 0 0 0 0 0 0 0 0 0 0 0 0 0 0 0 0 0 0 
bb_found_summary: 45721 25442 1.79707
entangled_found_hist: 0 8048 5324 9420 1741 437 85 0 
entangled_found_summary: 56615 25055 2.25963
bb_ent_found_hist: 0 18948 10385 5359 2178 1374 729 222 261 5 20 0 25 0 0 0 12 7 0 0 0 0 0 0 0 0 0 0 0 0 0 0 0 0 0 0 0 0 0 0 0 0 0 0 0 0 0 0 0 0 0 0 0 0 0 0 0 0 0 0 0 0 0 0 
bb_ent_found_summary: 80249 39525 2.03034
