WARNING: physical memory size is smaller than virtual memory size.

*** ChampSim Multicore Out-of-Order Simulator ***
Warmup Instructions: 30000000
Simulation Instructions: 100000000
Number of CPUs: 1
Page size: 4096

BTB:
Basic BTB sets: 1024 ways: 8
Indirect:
history lengths: 0 0 10 16 27 44 60 96 109 219 449 487 714 1313 2146 3881 
ITTAGE tables: 64768 bytes;Region table: 240 bytes;IUM: 384 bytes;Total Storage= 65392 bytes;
RAS:
RAS size: 64
[LLC] INSTR Demand IPV: 1 2 2 1 4 Prefetch IPV: 1 2 1 1 4
[LLC] DATA  Demand IPV: 1 1 1 2 4 Prefetch IPV: 1 1 2 2 4
Berti Prefetcher
CPU 0 Entangling prefetcher
Off-chip DRAM Size: 8 GiB Channels: 2 Width: 64-bit Data Race: 6400 MT/s
[DUEL] Epoch ended. INSTR misses = 10, DATA misses = 18. Winner = INSTR
[DUEL] Epoch ended. INSTR misses = 118, DATA misses = 127. Winner = INSTR
[DUEL] Epoch ended. INSTR misses = 41, DATA misses = 54. Winner = INSTR
[DUEL] Epoch ended. INSTR misses = 38, DATA misses = 3. Winner = DATA
[DUEL] Epoch ended. INSTR misses = 64, DATA misses = 0. Winner = DATA
[DUEL] Epoch ended. INSTR misses = 62, DATA misses = 0. Winner = DATA
[DUEL] Epoch ended. INSTR misses = 68, DATA misses = 0. Winner = DATA
[DUEL] Epoch ended. INSTR misses = 78, DATA misses = 16. Winner = DATA
[DUEL] Epoch ended. INSTR misses = 79, DATA misses = 16. Winner = DATA
[DUEL] Epoch ended. INSTR misses = 58, DATA misses = 0. Winner = DATA
[DUEL] Epoch ended. INSTR misses = 64, DATA misses = 0. Winner = DATA
[DUEL] Epoch ended. INSTR misses = 85, DATA misses = 32. Winner = DATA
[DUEL] Epoch ended. INSTR misses = 72, DATA misses = 0. Winner = DATA
[DUEL] Epoch ended. INSTR misses = 68, DATA misses = 0. Winner = DATA
[DUEL] Epoch ended. INSTR misses = 78, DATA misses = 16. Winner = DATA
[DUEL] Epoch ended. INSTR misses = 53, DATA misses = 1. Winner = DATA
[DUEL] Epoch ended. INSTR misses = 68, DATA misses = 17. Winner = DATA
[DUEL] Epoch ended. INSTR misses = 73, DATA misses = 0. Winner = DATA
[DUEL] Epoch ended. INSTR misses = 85, DATA misses = 24. Winner = DATA
[DUEL] Epoch ended. INSTR misses = 67, DATA misses = 12. Winner = DATA
[DUEL] Epoch ended. INSTR misses = 78, DATA misses = 22. Winner = DATA
[DUEL] Epoch ended. INSTR misses = 81, DATA misses = 42. Winner = DATA
[DUEL] Epoch ended. INSTR misses = 91, DATA misses = 16. Winner = DATA
[DUEL] Epoch ended. INSTR misses = 69, DATA misses = 0. Winner = DATA
[DUEL] Epoch ended. INSTR misses = 78, DATA misses = 16. Winner = DATA
[DUEL] Epoch ended. INSTR misses = 83, DATA misses = 15. Winner = DATA
[DUEL] Epoch ended. INSTR misses = 64, DATA misses = 0. Winner = DATA
[DUEL] Epoch ended. INSTR misses = 68, DATA misses = 0. Winner = DATA
[DUEL] Epoch ended. INSTR misses = 76, DATA misses = 0. Winner = DATA
[DUEL] Epoch ended. INSTR misses = 64, DATA misses = 14. Winner = DATA
[DUEL] Epoch ended. INSTR misses = 62, DATA misses = 0. Winner = DATA
[DUEL] Epoch ended. INSTR misses = 64, DATA misses = 0. Winner = DATA
[DUEL] Epoch ended. INSTR misses = 68, DATA misses = 0. Winner = DATA
[DUEL] Epoch ended. INSTR misses = 65, DATA misses = 2. Winner = DATA
[DUEL] Epoch ended. INSTR misses = 83, DATA misses = 29. Winner = DATA
[DUEL] Epoch ended. INSTR misses = 84, DATA misses = 29. Winner = DATA
[DUEL] Epoch ended. INSTR misses = 116, DATA misses = 61. Winner = DATA
[DUEL] Epoch ended. INSTR misses = 59, DATA misses = 0. Winner = DATA
[DUEL] Epoch ended. INSTR misses = 63, DATA misses = 0. Winner = DATA
Heartbeat CPU 0 instructions: 10000005 cycles: 1717286 heartbeat IPC: 5.823 cumulative IPC: 5.823 (Simulation time: 00 hr 00 min 23 sec)
[DUEL] Epoch ended. INSTR misses = 68, DATA misses = 0. Winner = DATA
[DUEL] Epoch ended. INSTR misses = 56, DATA misses = 0. Winner = DATA
[DUEL] Epoch ended. INSTR misses = 72, DATA misses = 16. Winner = DATA
[DUEL] Epoch ended. INSTR misses = 69, DATA misses = 0. Winner = DATA
[DUEL] Epoch ended. INSTR misses = 56, DATA misses = 0. Winner = DATA
[DUEL] Epoch ended. INSTR misses = 66, DATA misses = 0. Winner = DATA
[DUEL] Epoch ended. INSTR misses = 66, DATA misses = 0. Winner = DATA
[DUEL] Epoch ended. INSTR misses = 77, DATA misses = 16. Winner = DATA
[DUEL] Epoch ended. INSTR misses = 83, DATA misses = 32. Winner = DATA
[DUEL] Epoch ended. INSTR misses = 88, DATA misses = 29. Winner = DATA
[DUEL] Epoch ended. INSTR misses = 100, DATA misses = 32. Winner = DATA
[DUEL] Epoch ended. INSTR misses = 68, DATA misses = 0. Winner = DATA
[DUEL] Epoch ended. INSTR misses = 95, DATA misses = 31. Winner = DATA
[DUEL] Epoch ended. INSTR misses = 72, DATA misses = 0. Winner = DATA
[DUEL] Epoch ended. INSTR misses = 71, DATA misses = 16. Winner = DATA
[DUEL] Epoch ended. INSTR misses = 79, DATA misses = 0. Winner = DATA
[DUEL] Epoch ended. INSTR misses = 78, DATA misses = 32. Winner = DATA
[DUEL] Epoch ended. INSTR misses = 60, DATA misses = 0. Winner = DATA
[DUEL] Epoch ended. INSTR misses = 73, DATA misses = 16. Winner = DATA
[DUEL] Epoch ended. INSTR misses = 74, DATA misses = 0. Winner = DATA
[DUEL] Epoch ended. INSTR misses = 83, DATA misses = 32. Winner = DATA
[DUEL] Epoch ended. INSTR misses = 77, DATA misses = 0. Winner = DATA
[DUEL] Epoch ended. INSTR misses = 60, DATA misses = 0. Winner = DATA
[DUEL] Epoch ended. INSTR misses = 91, DATA misses = 30. Winner = DATA
[DUEL] Epoch ended. INSTR misses = 76, DATA misses = 16. Winner = DATA
[DUEL] Epoch ended. INSTR misses = 81, DATA misses = 32. Winner = DATA
[DUEL] Epoch ended. INSTR misses = 72, DATA misses = 0. Winner = DATA
[DUEL] Epoch ended. INSTR misses = 68, DATA misses = 0. Winner = DATA
[DUEL] Epoch ended. INSTR misses = 78, DATA misses = 32. Winner = DATA
[DUEL] Epoch ended. INSTR misses = 82, DATA misses = 0. Winner = DATA
[DUEL] Epoch ended. INSTR misses = 59, DATA misses = 0. Winner = DATA
[DUEL] Epoch ended. INSTR misses = 54, DATA misses = 0. Winner = DATA
[DUEL] Epoch ended. INSTR misses = 68, DATA misses = 0. Winner = DATA
[DUEL] Epoch ended. INSTR misses = 64, DATA misses = 0. Winner = DATA
[DUEL] Epoch ended. INSTR misses = 101, DATA misses = 64. Winner = DATA
[DUEL] Epoch ended. INSTR misses = 72, DATA misses = 16. Winner = DATA
[DUEL] Epoch ended. INSTR misses = 82, DATA misses = 16. Winner = DATA
[DUEL] Epoch ended. INSTR misses = 67, DATA misses = 16. Winner = DATA
[DUEL] Epoch ended. INSTR misses = 76, DATA misses = 16. Winner = DATA
Heartbeat CPU 0 instructions: 20000001 cycles: 3385726 heartbeat IPC: 5.994 cumulative IPC: 5.907 (Simulation time: 00 hr 00 min 46 sec)
[DUEL] Epoch ended. INSTR misses = 71, DATA misses = 16. Winner = DATA
[DUEL] Epoch ended. INSTR misses = 77, DATA misses = 0. Winner = DATA
[DUEL] Epoch ended. INSTR misses = 68, DATA misses = 0. Winner = DATA
[DUEL] Epoch ended. INSTR misses = 96, DATA misses = 48. Winner = DATA
[DUEL] Epoch ended. INSTR misses = 71, DATA misses = 0. Winner = DATA
[DUEL] Epoch ended. INSTR misses = 53, DATA misses = 0. Winner = DATA
[DUEL] Epoch ended. INSTR misses = 79, DATA misses = 10. Winner = DATA
[DUEL] Epoch ended. INSTR misses = 77, DATA misses = 21. Winner = DATA
[DUEL] Epoch ended. INSTR misses = 64, DATA misses = 0. Winner = DATA
[DUEL] Epoch ended. INSTR misses = 64, DATA misses = 0. Winner = DATA
[DUEL] Epoch ended. INSTR misses = 65, DATA misses = 0. Winner = DATA
[DUEL] Epoch ended. INSTR misses = 72, DATA misses = 0. Winner = DATA
[DUEL] Epoch ended. INSTR misses = 102, DATA misses = 48. Winner = DATA
[DUEL] Epoch ended. INSTR misses = 93, DATA misses = 48. Winner = DATA
[DUEL] Epoch ended. INSTR misses = 63, DATA misses = 79. Winner = INSTR
[DUEL] Epoch ended. INSTR misses = 42, DATA misses = 50. Winner = INSTR
[DUEL] Epoch ended. INSTR misses = 97, DATA misses = 178. Winner = INSTR
[DUEL] Epoch ended. INSTR misses = 103, DATA misses = 188. Winner = INSTR
[DUEL] Epoch ended. INSTR misses = 135, DATA misses = 222. Winner = INSTR
[DUEL] Epoch ended. INSTR misses = 116, DATA misses = 193. Winner = INSTR
[DUEL] Epoch ended. INSTR misses = 105, DATA misses = 208. Winner = INSTR
[DUEL] Epoch ended. INSTR misses = 98, DATA misses = 180. Winner = INSTR
[DUEL] Epoch ended. INSTR misses = 73, DATA misses = 182. Winner = INSTR
[DUEL] Epoch ended. INSTR misses = 83, DATA misses = 193. Winner = INSTR
[DUEL] Epoch ended. INSTR misses = 89, DATA misses = 174. Winner = INSTR
[DUEL] Epoch ended. INSTR misses = 111, DATA misses = 180. Winner = INSTR
[DUEL] Epoch ended. INSTR misses = 120, DATA misses = 218. Winner = INSTR
[DUEL] Epoch ended. INSTR misses = 147, DATA misses = 225. Winner = INSTR
[DUEL] Epoch ended. INSTR misses = 90, DATA misses = 221. Winner = INSTR
[DUEL] Epoch ended. INSTR misses = 110, DATA misses = 211. Winner = INSTR
[DUEL] Epoch ended. INSTR misses = 118, DATA misses = 240. Winner = INSTR
[DUEL] Epoch ended. INSTR misses = 74, DATA misses = 188. Winner = INSTR
[DUEL] Epoch ended. INSTR misses = 90, DATA misses = 169. Winner = INSTR
[DUEL] Epoch ended. INSTR misses = 115, DATA misses = 187. Winner = INSTR
[DUEL] Epoch ended. INSTR misses = 115, DATA misses = 212. Winner = INSTR
[DUEL] Epoch ended. INSTR misses = 102, DATA misses = 197. Winner = INSTR
[DUEL] Epoch ended. INSTR misses = 82, DATA misses = 169. Winner = INSTR
[DUEL] Epoch ended. INSTR misses = 147, DATA misses = 292. Winner = INSTR
[DUEL] Epoch ended. INSTR misses = 108, DATA misses = 196. Winner = INSTR
Heartbeat CPU 0 instructions: 30000001 cycles: 5658605 heartbeat IPC: 4.4 cumulative IPC: 5.302 (Simulation time: 00 hr 01 min 16 sec)
Warmup finished CPU 0 instructions: 30000001 cycles: 5658606 cumulative IPC: 5.302 (Simulation time: 00 hr 01 min 16 sec)
Warmup complete CPU 0 instructions: 30000001 cycles: 5658606 cumulative IPC: 5.302 (Simulation time: 00 hr 01 min 16 sec)
[DUEL] Epoch ended. INSTR misses = 98, DATA misses = 177. Winner = INSTR
[DUEL] Epoch ended. INSTR misses = 117, DATA misses = 197. Winner = INSTR
[DUEL] Epoch ended. INSTR misses = 120, DATA misses = 238. Winner = INSTR
[DUEL] Epoch ended. INSTR misses = 96, DATA misses = 188. Winner = INSTR
[DUEL] Epoch ended. INSTR misses = 76, DATA misses = 158. Winner = INSTR
[DUEL] Epoch ended. INSTR misses = 146, DATA misses = 227. Winner = INSTR
[DUEL] Epoch ended. INSTR misses = 118, DATA misses = 237. Winner = INSTR
[DUEL] Epoch ended. INSTR misses = 92, DATA misses = 190. Winner = INSTR
[DUEL] Epoch ended. INSTR misses = 92, DATA misses = 183. Winner = INSTR
[DUEL] Epoch ended. INSTR misses = 82, DATA misses = 167. Winner = INSTR
[DUEL] Epoch ended. INSTR misses = 112, DATA misses = 206. Winner = INSTR
[DUEL] Epoch ended. INSTR misses = 78, DATA misses = 185. Winner = INSTR
[DUEL] Epoch ended. INSTR misses = 83, DATA misses = 184. Winner = INSTR
[DUEL] Epoch ended. INSTR misses = 109, DATA misses = 195. Winner = INSTR
[DUEL] Epoch ended. INSTR misses = 99, DATA misses = 198. Winner = INSTR
[DUEL] Epoch ended. INSTR misses = 87, DATA misses = 180. Winner = INSTR
[DUEL] Epoch ended. INSTR misses = 77, DATA misses = 188. Winner = INSTR
[DUEL] Epoch ended. INSTR misses = 74, DATA misses = 181. Winner = INSTR
[DUEL] Epoch ended. INSTR misses = 109, DATA misses = 215. Winner = INSTR
[DUEL] Epoch ended. INSTR misses = 98, DATA misses = 181. Winner = INSTR
[DUEL] Epoch ended. INSTR misses = 95, DATA misses = 183. Winner = INSTR
[DUEL] Epoch ended. INSTR misses = 131, DATA misses = 200. Winner = INSTR
[DUEL] Epoch ended. INSTR misses = 93, DATA misses = 170. Winner = INSTR
[DUEL] Epoch ended. INSTR misses = 101, DATA misses = 168. Winner = INSTR
[DUEL] Epoch ended. INSTR misses = 116, DATA misses = 191. Winner = INSTR
[DUEL] Epoch ended. INSTR misses = 113, DATA misses = 196. Winner = INSTR
[DUEL] Epoch ended. INSTR misses = 90, DATA misses = 225. Winner = INSTR
[DUEL] Epoch ended. INSTR misses = 118, DATA misses = 215. Winner = INSTR
[DUEL] Epoch ended. INSTR misses = 98, DATA misses = 172. Winner = INSTR
[DUEL] Epoch ended. INSTR misses = 80, DATA misses = 165. Winner = INSTR
[DUEL] Epoch ended. INSTR misses = 113, DATA misses = 181. Winner = INSTR
[DUEL] Epoch ended. INSTR misses = 123, DATA misses = 207. Winner = INSTR
[DUEL] Epoch ended. INSTR misses = 85, DATA misses = 181. Winner = INSTR
[DUEL] Epoch ended. INSTR misses = 105, DATA misses = 210. Winner = INSTR
[DUEL] Epoch ended. INSTR misses = 112, DATA misses = 172. Winner = INSTR
[DUEL] Epoch ended. INSTR misses = 116, DATA misses = 220. Winner = INSTR
[DUEL] Epoch ended. INSTR misses = 112, DATA misses = 205. Winner = INSTR
[DUEL] Epoch ended. INSTR misses = 89, DATA misses = 187. Winner = INSTR
[DUEL] Epoch ended. INSTR misses = 120, DATA misses = 180. Winner = INSTR
Heartbeat CPU 0 instructions: 40000006 cycles: 49452294 heartbeat IPC: 0.2283 cumulative IPC: 0.2283 (Simulation time: 00 hr 06 min 19 sec)
[DUEL] Epoch ended. INSTR misses = 85, DATA misses = 184. Winner = INSTR
[DUEL] Epoch ended. INSTR misses = 124, DATA misses = 201. Winner = INSTR
[DUEL] Epoch ended. INSTR misses = 97, DATA misses = 206. Winner = INSTR
[DUEL] Epoch ended. INSTR misses = 110, DATA misses = 212. Winner = INSTR
[DUEL] Epoch ended. INSTR misses = 87, DATA misses = 194. Winner = INSTR
[DUEL] Epoch ended. INSTR misses = 58, DATA misses = 97. Winner = INSTR
[DUEL] Epoch ended. INSTR misses = 97, DATA misses = 98. Winner = INSTR
[DUEL] Epoch ended. INSTR misses = 16, DATA misses = 16. Winner = INSTR
[DUEL] Epoch ended. INSTR misses = 94, DATA misses = 92. Winner = DATA
[DUEL] Epoch ended. INSTR misses = 83, DATA misses = 80. Winner = DATA
[DUEL] Epoch ended. INSTR misses = 67, DATA misses = 42. Winner = DATA
[DUEL] Epoch ended. INSTR misses = 48, DATA misses = 23. Winner = DATA
[DUEL] Epoch ended. INSTR misses = 47, DATA misses = 27. Winner = DATA
[DUEL] Epoch ended. INSTR misses = 42, DATA misses = 27. Winner = DATA
[DUEL] Epoch ended. INSTR misses = 41, DATA misses = 22. Winner = DATA
[DUEL] Epoch ended. INSTR misses = 47, DATA misses = 29. Winner = DATA
[DUEL] Epoch ended. INSTR misses = 47, DATA misses = 29. Winner = DATA
[DUEL] Epoch ended. INSTR misses = 62, DATA misses = 36. Winner = DATA
[DUEL] Epoch ended. INSTR misses = 65, DATA misses = 40. Winner = DATA
[DUEL] Epoch ended. INSTR misses = 54, DATA misses = 36. Winner = DATA
[DUEL] Epoch ended. INSTR misses = 48, DATA misses = 23. Winner = DATA
[DUEL] Epoch ended. INSTR misses = 49, DATA misses = 24. Winner = DATA
[DUEL] Epoch ended. INSTR misses = 45, DATA misses = 11. Winner = DATA
[DUEL] Epoch ended. INSTR misses = 51, DATA misses = 27. Winner = DATA
[DUEL] Epoch ended. INSTR misses = 57, DATA misses = 29. Winner = DATA
[DUEL] Epoch ended. INSTR misses = 55, DATA misses = 42. Winner = DATA
[DUEL] Epoch ended. INSTR misses = 45, DATA misses = 17. Winner = DATA
[DUEL] Epoch ended. INSTR misses = 57, DATA misses = 44. Winner = DATA
[DUEL] Epoch ended. INSTR misses = 48, DATA misses = 33. Winner = DATA
[DUEL] Epoch ended. INSTR misses = 58, DATA misses = 19. Winner = DATA
[DUEL] Epoch ended. INSTR misses = 41, DATA misses = 20. Winner = DATA
[DUEL] Epoch ended. INSTR misses = 58, DATA misses = 33. Winner = DATA
[DUEL] Epoch ended. INSTR misses = 44, DATA misses = 14. Winner = DATA
[DUEL] Epoch ended. INSTR misses = 48, DATA misses = 20. Winner = DATA
[DUEL] Epoch ended. INSTR misses = 46, DATA misses = 21. Winner = DATA
[DUEL] Epoch ended. INSTR misses = 47, DATA misses = 21. Winner = DATA
[DUEL] Epoch ended. INSTR misses = 58, DATA misses = 37. Winner = DATA
[DUEL] Epoch ended. INSTR misses = 66, DATA misses = 40. Winner = DATA
[DUEL] Epoch ended. INSTR misses = 50, DATA misses = 34. Winner = DATA
Heartbeat CPU 0 instructions: 50000003 cycles: 64145780 heartbeat IPC: 0.6806 cumulative IPC: 0.342 (Simulation time: 00 hr 08 min 13 sec)
[DUEL] Epoch ended. INSTR misses = 51, DATA misses = 19. Winner = DATA
[DUEL] Epoch ended. INSTR misses = 33, DATA misses = 15. Winner = DATA
[DUEL] Epoch ended. INSTR misses = 58, DATA misses = 21. Winner = DATA
[DUEL] Epoch ended. INSTR misses = 43, DATA misses = 14. Winner = DATA
[DUEL] Epoch ended. INSTR misses = 32, DATA misses = 12. Winner = DATA
[DUEL] Epoch ended. INSTR misses = 41, DATA misses = 21. Winner = DATA
[DUEL] Epoch ended. INSTR misses = 38, DATA misses = 15. Winner = DATA
[DUEL] Epoch ended. INSTR misses = 44, DATA misses = 16. Winner = DATA
[DUEL] Epoch ended. INSTR misses = 56, DATA misses = 45. Winner = DATA
[DUEL] Epoch ended. INSTR misses = 63, DATA misses = 25. Winner = DATA
[DUEL] Epoch ended. INSTR misses = 50, DATA misses = 27. Winner = DATA
[DUEL] Epoch ended. INSTR misses = 51, DATA misses = 21. Winner = DATA
[DUEL] Epoch ended. INSTR misses = 38, DATA misses = 21. Winner = DATA
[DUEL] Epoch ended. INSTR misses = 46, DATA misses = 19. Winner = DATA
[DUEL] Epoch ended. INSTR misses = 46, DATA misses = 27. Winner = DATA
[DUEL] Epoch ended. INSTR misses = 51, DATA misses = 40. Winner = DATA
[DUEL] Epoch ended. INSTR misses = 44, DATA misses = 22. Winner = DATA
[DUEL] Epoch ended. INSTR misses = 39, DATA misses = 15. Winner = DATA
[DUEL] Epoch ended. INSTR misses = 50, DATA misses = 25. Winner = DATA
[DUEL] Epoch ended. INSTR misses = 34, DATA misses = 18. Winner = DATA
[DUEL] Epoch ended. INSTR misses = 56, DATA misses = 25. Winner = DATA
[DUEL] Epoch ended. INSTR misses = 72, DATA misses = 58. Winner = DATA
[DUEL] Epoch ended. INSTR misses = 46, DATA misses = 23. Winner = DATA
[DUEL] Epoch ended. INSTR misses = 70, DATA misses = 48. Winner = DATA
[DUEL] Epoch ended. INSTR misses = 57, DATA misses = 23. Winner = DATA
[DUEL] Epoch ended. INSTR misses = 42, DATA misses = 23. Winner = DATA
[DUEL] Epoch ended. INSTR misses = 52, DATA misses = 28. Winner = DATA
[DUEL] Epoch ended. INSTR misses = 39, DATA misses = 16. Winner = DATA
[DUEL] Epoch ended. INSTR misses = 66, DATA misses = 30. Winner = DATA
[DUEL] Epoch ended. INSTR misses = 47, DATA misses = 22. Winner = DATA
[DUEL] Epoch ended. INSTR misses = 51, DATA misses = 19. Winner = DATA
[DUEL] Epoch ended. INSTR misses = 49, DATA misses = 27. Winner = DATA
[DUEL] Epoch ended. INSTR misses = 48, DATA misses = 26. Winner = DATA
[DUEL] Epoch ended. INSTR misses = 48, DATA misses = 26. Winner = DATA
[DUEL] Epoch ended. INSTR misses = 49, DATA misses = 30. Winner = DATA
[DUEL] Epoch ended. INSTR misses = 66, DATA misses = 18. Winner = DATA
[DUEL] Epoch ended. INSTR misses = 41, DATA misses = 30. Winner = DATA
[DUEL] Epoch ended. INSTR misses = 58, DATA misses = 14. Winner = DATA
[DUEL] Epoch ended. INSTR misses = 73, DATA misses = 27. Winner = DATA
Heartbeat CPU 0 instructions: 60000006 cycles: 73536784 heartbeat IPC: 1.065 cumulative IPC: 0.442 (Simulation time: 00 hr 09 min 32 sec)
[DUEL] Epoch ended. INSTR misses = 45, DATA misses = 22. Winner = DATA
[DUEL] Epoch ended. INSTR misses = 51, DATA misses = 19. Winner = DATA
[DUEL] Epoch ended. INSTR misses = 48, DATA misses = 31. Winner = DATA
[DUEL] Epoch ended. INSTR misses = 44, DATA misses = 29. Winner = DATA
[DUEL] Epoch ended. INSTR misses = 54, DATA misses = 33. Winner = DATA
[DUEL] Epoch ended. INSTR misses = 55, DATA misses = 26. Winner = DATA
[DUEL] Epoch ended. INSTR misses = 52, DATA misses = 24. Winner = DATA
[DUEL] Epoch ended. INSTR misses = 47, DATA misses = 26. Winner = DATA
[DUEL] Epoch ended. INSTR misses = 38, DATA misses = 21. Winner = DATA
[DUEL] Epoch ended. INSTR misses = 62, DATA misses = 31. Winner = DATA
[DUEL] Epoch ended. INSTR misses = 49, DATA misses = 27. Winner = DATA
[DUEL] Epoch ended. INSTR misses = 40, DATA misses = 24. Winner = DATA
[DUEL] Epoch ended. INSTR misses = 32, DATA misses = 24. Winner = DATA
[DUEL] Epoch ended. INSTR misses = 58, DATA misses = 29. Winner = DATA
[DUEL] Epoch ended. INSTR misses = 44, DATA misses = 26. Winner = DATA
[DUEL] Epoch ended. INSTR misses = 52, DATA misses = 29. Winner = DATA
[DUEL] Epoch ended. INSTR misses = 40, DATA misses = 20. Winner = DATA
[DUEL] Epoch ended. INSTR misses = 45, DATA misses = 19. Winner = DATA
[DUEL] Epoch ended. INSTR misses = 45, DATA misses = 25. Winner = DATA
[DUEL] Epoch ended. INSTR misses = 41, DATA misses = 24. Winner = DATA
[DUEL] Epoch ended. INSTR misses = 48, DATA misses = 16. Winner = DATA
[DUEL] Epoch ended. INSTR misses = 59, DATA misses = 23. Winner = DATA
[DUEL] Epoch ended. INSTR misses = 46, DATA misses = 22. Winner = DATA
[DUEL] Epoch ended. INSTR misses = 47, DATA misses = 31. Winner = DATA
[DUEL] Epoch ended. INSTR misses = 65, DATA misses = 38. Winner = DATA
[DUEL] Epoch ended. INSTR misses = 49, DATA misses = 28. Winner = DATA
[DUEL] Epoch ended. INSTR misses = 44, DATA misses = 26. Winner = DATA
[DUEL] Epoch ended. INSTR misses = 57, DATA misses = 17. Winner = DATA
[DUEL] Epoch ended. INSTR misses = 49, DATA misses = 23. Winner = DATA
[DUEL] Epoch ended. INSTR misses = 56, DATA misses = 36. Winner = DATA
[DUEL] Epoch ended. INSTR misses = 52, DATA misses = 23. Winner = DATA
[DUEL] Epoch ended. INSTR misses = 50, DATA misses = 22. Winner = DATA
[DUEL] Epoch ended. INSTR misses = 50, DATA misses = 16. Winner = DATA
[DUEL] Epoch ended. INSTR misses = 47, DATA misses = 21. Winner = DATA
[DUEL] Epoch ended. INSTR misses = 56, DATA misses = 25. Winner = DATA
[DUEL] Epoch ended. INSTR misses = 58, DATA misses = 26. Winner = DATA
[DUEL] Epoch ended. INSTR misses = 39, DATA misses = 27. Winner = DATA
[DUEL] Epoch ended. INSTR misses = 42, DATA misses = 31. Winner = DATA
[DUEL] Epoch ended. INSTR misses = 47, DATA misses = 37. Winner = DATA
Heartbeat CPU 0 instructions: 70000005 cycles: 83222923 heartbeat IPC: 1.032 cumulative IPC: 0.5157 (Simulation time: 00 hr 10 min 53 sec)
[DUEL] Epoch ended. INSTR misses = 50, DATA misses = 29. Winner = DATA
[DUEL] Epoch ended. INSTR misses = 54, DATA misses = 20. Winner = DATA
[DUEL] Epoch ended. INSTR misses = 46, DATA misses = 22. Winner = DATA
[DUEL] Epoch ended. INSTR misses = 48, DATA misses = 26. Winner = DATA
[DUEL] Epoch ended. INSTR misses = 37, DATA misses = 19. Winner = DATA
[DUEL] Epoch ended. INSTR misses = 59, DATA misses = 18. Winner = DATA
[DUEL] Epoch ended. INSTR misses = 46, DATA misses = 23. Winner = DATA
[DUEL] Epoch ended. INSTR misses = 47, DATA misses = 20. Winner = DATA
[DUEL] Epoch ended. INSTR misses = 39, DATA misses = 26. Winner = DATA
[DUEL] Epoch ended. INSTR misses = 60, DATA misses = 50. Winner = DATA
[DUEL] Epoch ended. INSTR misses = 48, DATA misses = 23. Winner = DATA
[DUEL] Epoch ended. INSTR misses = 40, DATA misses = 25. Winner = DATA
[DUEL] Epoch ended. INSTR misses = 49, DATA misses = 15. Winner = DATA
[DUEL] Epoch ended. INSTR misses = 61, DATA misses = 26. Winner = DATA
[DUEL] Epoch ended. INSTR misses = 60, DATA misses = 24. Winner = DATA
[DUEL] Epoch ended. INSTR misses = 48, DATA misses = 29. Winner = DATA
[DUEL] Epoch ended. INSTR misses = 46, DATA misses = 24. Winner = DATA
[DUEL] Epoch ended. INSTR misses = 37, DATA misses = 28. Winner = DATA
[DUEL] Epoch ended. INSTR misses = 43, DATA misses = 27. Winner = DATA
[DUEL] Epoch ended. INSTR misses = 55, DATA misses = 33. Winner = DATA
[DUEL] Epoch ended. INSTR misses = 55, DATA misses = 24. Winner = DATA
[DUEL] Epoch ended. INSTR misses = 44, DATA misses = 26. Winner = DATA
[DUEL] Epoch ended. INSTR misses = 42, DATA misses = 27. Winner = DATA
[DUEL] Epoch ended. INSTR misses = 43, DATA misses = 15. Winner = DATA
[DUEL] Epoch ended. INSTR misses = 44, DATA misses = 21. Winner = DATA
[DUEL] Epoch ended. INSTR misses = 56, DATA misses = 20. Winner = DATA
[DUEL] Epoch ended. INSTR misses = 44, DATA misses = 20. Winner = DATA
[DUEL] Epoch ended. INSTR misses = 54, DATA misses = 27. Winner = DATA
[DUEL] Epoch ended. INSTR misses = 47, DATA misses = 26. Winner = DATA
[DUEL] Epoch ended. INSTR misses = 78, DATA misses = 62. Winner = DATA
[DUEL] Epoch ended. INSTR misses = 41, DATA misses = 26. Winner = DATA
[DUEL] Epoch ended. INSTR misses = 62, DATA misses = 16. Winner = DATA
[DUEL] Epoch ended. INSTR misses = 60, DATA misses = 18. Winner = DATA
[DUEL] Epoch ended. INSTR misses = 49, DATA misses = 29. Winner = DATA
[DUEL] Epoch ended. INSTR misses = 45, DATA misses = 18. Winner = DATA
[DUEL] Epoch ended. INSTR misses = 46, DATA misses = 22. Winner = DATA
[DUEL] Epoch ended. INSTR misses = 55, DATA misses = 28. Winner = DATA
[DUEL] Epoch ended. INSTR misses = 47, DATA misses = 25. Winner = DATA
[DUEL] Epoch ended. INSTR misses = 55, DATA misses = 33. Winner = DATA
Heartbeat CPU 0 instructions: 80000004 cycles: 92916139 heartbeat IPC: 1.032 cumulative IPC: 0.573 (Simulation time: 00 hr 12 min 14 sec)
[DUEL] Epoch ended. INSTR misses = 57, DATA misses = 31. Winner = DATA
[DUEL] Epoch ended. INSTR misses = 58, DATA misses = 28. Winner = DATA
[DUEL] Epoch ended. INSTR misses = 46, DATA misses = 24. Winner = DATA
[DUEL] Epoch ended. INSTR misses = 52, DATA misses = 23. Winner = DATA
[DUEL] Epoch ended. INSTR misses = 49, DATA misses = 26. Winner = DATA
[DUEL] Epoch ended. INSTR misses = 35, DATA misses = 30. Winner = DATA
[DUEL] Epoch ended. INSTR misses = 58, DATA misses = 21. Winner = DATA
[DUEL] Epoch ended. INSTR misses = 52, DATA misses = 19. Winner = DATA
[DUEL] Epoch ended. INSTR misses = 44, DATA misses = 26. Winner = DATA
[DUEL] Epoch ended. INSTR misses = 59, DATA misses = 34. Winner = DATA
[DUEL] Epoch ended. INSTR misses = 51, DATA misses = 34. Winner = DATA
[DUEL] Epoch ended. INSTR misses = 57, DATA misses = 33. Winner = DATA
[DUEL] Epoch ended. INSTR misses = 54, DATA misses = 27. Winner = DATA
[DUEL] Epoch ended. INSTR misses = 42, DATA misses = 22. Winner = DATA
[DUEL] Epoch ended. INSTR misses = 51, DATA misses = 16. Winner = DATA
[DUEL] Epoch ended. INSTR misses = 42, DATA misses = 20. Winner = DATA
[DUEL] Epoch ended. INSTR misses = 41, DATA misses = 17. Winner = DATA
[DUEL] Epoch ended. INSTR misses = 61, DATA misses = 22. Winner = DATA
[DUEL] Epoch ended. INSTR misses = 44, DATA misses = 17. Winner = DATA
[DUEL] Epoch ended. INSTR misses = 41, DATA misses = 12. Winner = DATA
[DUEL] Epoch ended. INSTR misses = 42, DATA misses = 13. Winner = DATA
[DUEL] Epoch ended. INSTR misses = 45, DATA misses = 34. Winner = DATA
[DUEL] Epoch ended. INSTR misses = 50, DATA misses = 25. Winner = DATA
[DUEL] Epoch ended. INSTR misses = 43, DATA misses = 14. Winner = DATA
[DUEL] Epoch ended. INSTR misses = 46, DATA misses = 15. Winner = DATA
[DUEL] Epoch ended. INSTR misses = 52, DATA misses = 35. Winner = DATA
[DUEL] Epoch ended. INSTR misses = 66, DATA misses = 46. Winner = DATA
[DUEL] Epoch ended. INSTR misses = 52, DATA misses = 20. Winner = DATA
[DUEL] Epoch ended. INSTR misses = 46, DATA misses = 17. Winner = DATA
[DUEL] Epoch ended. INSTR misses = 40, DATA misses = 13. Winner = DATA
[DUEL] Epoch ended. INSTR misses = 54, DATA misses = 24. Winner = DATA
[DUEL] Epoch ended. INSTR misses = 52, DATA misses = 24. Winner = DATA
[DUEL] Epoch ended. INSTR misses = 37, DATA misses = 12. Winner = DATA
[DUEL] Epoch ended. INSTR misses = 44, DATA misses = 26. Winner = DATA
[DUEL] Epoch ended. INSTR misses = 37, DATA misses = 20. Winner = DATA
[DUEL] Epoch ended. INSTR misses = 45, DATA misses = 15. Winner = DATA
[DUEL] Epoch ended. INSTR misses = 73, DATA misses = 51. Winner = DATA
[DUEL] Epoch ended. INSTR misses = 55, DATA misses = 27. Winner = DATA
[DUEL] Epoch ended. INSTR misses = 51, DATA misses = 24. Winner = DATA
Heartbeat CPU 0 instructions: 90000000 cycles: 102146516 heartbeat IPC: 1.083 cumulative IPC: 0.6218 (Simulation time: 00 hr 13 min 32 sec)
[DUEL] Epoch ended. INSTR misses = 44, DATA misses = 34. Winner = DATA
[DUEL] Epoch ended. INSTR misses = 51, DATA misses = 20. Winner = DATA
[DUEL] Epoch ended. INSTR misses = 59, DATA misses = 21. Winner = DATA
[DUEL] Epoch ended. INSTR misses = 51, DATA misses = 20. Winner = DATA
[DUEL] Epoch ended. INSTR misses = 33, DATA misses = 16. Winner = DATA
[DUEL] Epoch ended. INSTR misses = 47, DATA misses = 28. Winner = DATA
[DUEL] Epoch ended. INSTR misses = 47, DATA misses = 22. Winner = DATA
[DUEL] Epoch ended. INSTR misses = 61, DATA misses = 37. Winner = DATA
[DUEL] Epoch ended. INSTR misses = 52, DATA misses = 30. Winner = DATA
[DUEL] Epoch ended. INSTR misses = 43, DATA misses = 15. Winner = DATA
[DUEL] Epoch ended. INSTR misses = 37, DATA misses = 15. Winner = DATA
[DUEL] Epoch ended. INSTR misses = 40, DATA misses = 26. Winner = DATA
[DUEL] Epoch ended. INSTR misses = 46, DATA misses = 15. Winner = DATA
[DUEL] Epoch ended. INSTR misses = 55, DATA misses = 26. Winner = DATA
[DUEL] Epoch ended. INSTR misses = 33, DATA misses = 15. Winner = DATA
[DUEL] Epoch ended. INSTR misses = 51, DATA misses = 26. Winner = DATA
[DUEL] Epoch ended. INSTR misses = 61, DATA misses = 48. Winner = DATA
[DUEL] Epoch ended. INSTR misses = 46, DATA misses = 29. Winner = DATA
[DUEL] Epoch ended. INSTR misses = 48, DATA misses = 27. Winner = DATA
[DUEL] Epoch ended. INSTR misses = 61, DATA misses = 26. Winner = DATA
[DUEL] Epoch ended. INSTR misses = 46, DATA misses = 28. Winner = DATA
[DUEL] Epoch ended. INSTR misses = 41, DATA misses = 16. Winner = DATA
[DUEL] Epoch ended. INSTR misses = 49, DATA misses = 25. Winner = DATA
[DUEL] Epoch ended. INSTR misses = 44, DATA misses = 23. Winner = DATA
[DUEL] Epoch ended. INSTR misses = 38, DATA misses = 14. Winner = DATA
[DUEL] Epoch ended. INSTR misses = 47, DATA misses = 19. Winner = DATA
[DUEL] Epoch ended. INSTR misses = 49, DATA misses = 28. Winner = DATA
[DUEL] Epoch ended. INSTR misses = 32, DATA misses = 12. Winner = DATA
[DUEL] Epoch ended. INSTR misses = 44, DATA misses = 26. Winner = DATA
[DUEL] Epoch ended. INSTR misses = 48, DATA misses = 21. Winner = DATA
[DUEL] Epoch ended. INSTR misses = 61, DATA misses = 34. Winner = DATA
[DUEL] Epoch ended. INSTR misses = 42, DATA misses = 17. Winner = DATA
[DUEL] Epoch ended. INSTR misses = 57, DATA misses = 36. Winner = DATA
[DUEL] Epoch ended. INSTR misses = 45, DATA misses = 29. Winner = DATA
[DUEL] Epoch ended. INSTR misses = 49, DATA misses = 26. Winner = DATA
[DUEL] Epoch ended. INSTR misses = 50, DATA misses = 31. Winner = DATA
[DUEL] Epoch ended. INSTR misses = 42, DATA misses = 20. Winner = DATA
[DUEL] Epoch ended. INSTR misses = 41, DATA misses = 24. Winner = DATA
[DUEL] Epoch ended. INSTR misses = 59, DATA misses = 27. Winner = DATA
Heartbeat CPU 0 instructions: 100000000 cycles: 110818583 heartbeat IPC: 1.153 cumulative IPC: 0.6657 (Simulation time: 00 hr 14 min 47 sec)
*** Reached end of trace: (0, "../traces/secret_traces/compute_fp/compute_fp_15.champsimtrace.xz")
[DUEL] Epoch ended. INSTR misses = 53, DATA misses = 55. Winner = INSTR
[DUEL] Epoch ended. INSTR misses = 25, DATA misses = 39. Winner = INSTR
[DUEL] Epoch ended. INSTR misses = 37, DATA misses = 66. Winner = INSTR
[DUEL] Epoch ended. INSTR misses = 43, DATA misses = 43. Winner = INSTR
[DUEL] Epoch ended. INSTR misses = 46, DATA misses = 0. Winner = DATA
[DUEL] Epoch ended. INSTR misses = 68, DATA misses = 0. Winner = DATA
[DUEL] Epoch ended. INSTR misses = 64, DATA misses = 0. Winner = DATA
[DUEL] Epoch ended. INSTR misses = 73, DATA misses = 5. Winner = DATA
[DUEL] Epoch ended. INSTR misses = 68, DATA misses = 3. Winner = DATA
[DUEL] Epoch ended. INSTR misses = 62, DATA misses = 12. Winner = DATA
[DUEL] Epoch ended. INSTR misses = 66, DATA misses = 0. Winner = DATA
[DUEL] Epoch ended. INSTR misses = 78, DATA misses = 22. Winner = DATA
[DUEL] Epoch ended. INSTR misses = 62, DATA misses = 0. Winner = DATA
[DUEL] Epoch ended. INSTR misses = 75, DATA misses = 0. Winner = DATA
[DUEL] Epoch ended. INSTR misses = 66, DATA misses = 10. Winner = DATA
[DUEL] Epoch ended. INSTR misses = 71, DATA misses = 1. Winner = DATA
[DUEL] Epoch ended. INSTR misses = 52, DATA misses = 0. Winner = DATA
[DUEL] Epoch ended. INSTR misses = 67, DATA misses = 16. Winner = DATA
[DUEL] Epoch ended. INSTR misses = 83, DATA misses = 0. Winner = DATA
[DUEL] Epoch ended. INSTR misses = 76, DATA misses = 22. Winner = DATA
[DUEL] Epoch ended. INSTR misses = 73, DATA misses = 21. Winner = DATA
[DUEL] Epoch ended. INSTR misses = 66, DATA misses = 13. Winner = DATA
[DUEL] Epoch ended. INSTR misses = 76, DATA misses = 36. Winner = DATA
[DUEL] Epoch ended. INSTR misses = 93, DATA misses = 14. Winner = DATA
[DUEL] Epoch ended. INSTR misses = 72, DATA misses = 0. Winner = DATA
[DUEL] Epoch ended. INSTR misses = 75, DATA misses = 16. Winner = DATA
[DUEL] Epoch ended. INSTR misses = 90, DATA misses = 15. Winner = DATA
[DUEL] Epoch ended. INSTR misses = 52, DATA misses = 0. Winner = DATA
[DUEL] Epoch ended. INSTR misses = 72, DATA misses = 0. Winner = DATA
[DUEL] Epoch ended. INSTR misses = 74, DATA misses = 14. Winner = DATA
[DUEL] Epoch ended. INSTR misses = 64, DATA misses = 0. Winner = DATA
[DUEL] Epoch ended. INSTR misses = 64, DATA misses = 0. Winner = DATA
[DUEL] Epoch ended. INSTR misses = 68, DATA misses = 0. Winner = DATA
[DUEL] Epoch ended. INSTR misses = 63, DATA misses = 0. Winner = DATA
[DUEL] Epoch ended. INSTR misses = 68, DATA misses = 0. Winner = DATA
[DUEL] Epoch ended. INSTR misses = 74, DATA misses = 29. Winner = DATA
[DUEL] Epoch ended. INSTR misses = 111, DATA misses = 56. Winner = DATA
[DUEL] Epoch ended. INSTR misses = 86, DATA misses = 31. Winner = DATA
[DUEL] Epoch ended. INSTR misses = 60, DATA misses = 0. Winner = DATA
Heartbeat CPU 0 instructions: 110000008 cycles: 119093628 heartbeat IPC: 1.208 cumulative IPC: 0.7052 (Simulation time: 00 hr 15 min 56 sec)
[DUEL] Epoch ended. INSTR misses = 64, DATA misses = 0. Winner = DATA
[DUEL] Epoch ended. INSTR misses = 68, DATA misses = 0. Winner = DATA
[DUEL] Epoch ended. INSTR misses = 56, DATA misses = 0. Winner = DATA
[DUEL] Epoch ended. INSTR misses = 71, DATA misses = 16. Winner = DATA
[DUEL] Epoch ended. INSTR misses = 63, DATA misses = 0. Winner = DATA
[DUEL] Epoch ended. INSTR misses = 60, DATA misses = 0. Winner = DATA
[DUEL] Epoch ended. INSTR misses = 68, DATA misses = 0. Winner = DATA
[DUEL] Epoch ended. INSTR misses = 68, DATA misses = 0. Winner = DATA
[DUEL] Epoch ended. INSTR misses = 83, DATA misses = 46. Winner = DATA
[DUEL] Epoch ended. INSTR misses = 67, DATA misses = 0. Winner = DATA
[DUEL] Epoch ended. INSTR misses = 87, DATA misses = 29. Winner = DATA
[DUEL] Epoch ended. INSTR misses = 96, DATA misses = 32. Winner = DATA
[DUEL] Epoch ended. INSTR misses = 88, DATA misses = 31. Winner = DATA
[DUEL] Epoch ended. INSTR misses = 83, DATA misses = 0. Winner = DATA
[DUEL] Epoch ended. INSTR misses = 61, DATA misses = 0. Winner = DATA
[DUEL] Epoch ended. INSTR misses = 88, DATA misses = 16. Winner = DATA
[DUEL] Epoch ended. INSTR misses = 88, DATA misses = 32. Winner = DATA
[DUEL] Epoch ended. INSTR misses = 64, DATA misses = 0. Winner = DATA
[DUEL] Epoch ended. INSTR misses = 68, DATA misses = 12. Winner = DATA
[DUEL] Epoch ended. INSTR misses = 61, DATA misses = 4. Winner = DATA
[DUEL] Epoch ended. INSTR misses = 97, DATA misses = 32. Winner = DATA
[DUEL] Epoch ended. INSTR misses = 72, DATA misses = 0. Winner = DATA
[DUEL] Epoch ended. INSTR misses = 64, DATA misses = 0. Winner = DATA
[DUEL] Epoch ended. INSTR misses = 64, DATA misses = 0. Winner = DATA
[DUEL] Epoch ended. INSTR misses = 87, DATA misses = 30. Winner = DATA
[DUEL] Epoch ended. INSTR misses = 91, DATA misses = 48. Winner = DATA
[DUEL] Epoch ended. INSTR misses = 72, DATA misses = 0. Winner = DATA
[DUEL] Epoch ended. INSTR misses = 73, DATA misses = 0. Winner = DATA
[DUEL] Epoch ended. INSTR misses = 60, DATA misses = 0. Winner = DATA
[DUEL] Epoch ended. INSTR misses = 81, DATA misses = 32. Winner = DATA
[DUEL] Epoch ended. INSTR misses = 74, DATA misses = 0. Winner = DATA
[DUEL] Epoch ended. INSTR misses = 60, DATA misses = 0. Winner = DATA
[DUEL] Epoch ended. INSTR misses = 56, DATA misses = 0. Winner = DATA
[DUEL] Epoch ended. INSTR misses = 60, DATA misses = 0. Winner = DATA
[DUEL] Epoch ended. INSTR misses = 80, DATA misses = 32. Winner = DATA
[DUEL] Epoch ended. INSTR misses = 99, DATA misses = 47. Winner = DATA
[DUEL] Epoch ended. INSTR misses = 60, DATA misses = 0. Winner = DATA
[DUEL] Epoch ended. INSTR misses = 81, DATA misses = 18. Winner = DATA
[DUEL] Epoch ended. INSTR misses = 75, DATA misses = 30. Winner = DATA
Heartbeat CPU 0 instructions: 120000009 cycles: 126654415 heartbeat IPC: 1.323 cumulative IPC: 0.7438 (Simulation time: 00 hr 17 min 03 sec)
[DUEL] Epoch ended. INSTR misses = 85, DATA misses = 18. Winner = DATA
[DUEL] Epoch ended. INSTR misses = 72, DATA misses = 0. Winner = DATA
[DUEL] Epoch ended. INSTR misses = 60, DATA misses = 0. Winner = DATA
[DUEL] Epoch ended. INSTR misses = 86, DATA misses = 32. Winner = DATA
[DUEL] Epoch ended. INSTR misses = 81, DATA misses = 14. Winner = DATA
[DUEL] Epoch ended. INSTR misses = 68, DATA misses = 0. Winner = DATA
[DUEL] Epoch ended. INSTR misses = 56, DATA misses = 0. Winner = DATA
[DUEL] Epoch ended. INSTR misses = 83, DATA misses = 18. Winner = DATA
[DUEL] Epoch ended. INSTR misses = 73, DATA misses = 13. Winner = DATA
[DUEL] Epoch ended. INSTR misses = 59, DATA misses = 0. Winner = DATA
[DUEL] Epoch ended. INSTR misses = 68, DATA misses = 0. Winner = DATA
[DUEL] Epoch ended. INSTR misses = 69, DATA misses = 0. Winner = DATA
[DUEL] Epoch ended. INSTR misses = 90, DATA misses = 31. Winner = DATA
[DUEL] Epoch ended. INSTR misses = 85, DATA misses = 16. Winner = DATA
[DUEL] Epoch ended. INSTR misses = 83, DATA misses = 64. Winner = DATA
[DUEL] Epoch ended. INSTR misses = 61, DATA misses = 75. Winner = INSTR
[DUEL] Epoch ended. INSTR misses = 61, DATA misses = 96. Winner = INSTR
[DUEL] Epoch ended. INSTR misses = 92, DATA misses = 159. Winner = INSTR
[DUEL] Epoch ended. INSTR misses = 121, DATA misses = 214. Winner = INSTR
[DUEL] Epoch ended. INSTR misses = 160, DATA misses = 234. Winner = INSTR
[DUEL] Epoch ended. INSTR misses = 95, DATA misses = 188. Winner = INSTR
[DUEL] Epoch ended. INSTR misses = 84, DATA misses = 185. Winner = INSTR
[DUEL] Epoch ended. INSTR misses = 109, DATA misses = 185. Winner = INSTR
[DUEL] Epoch ended. INSTR misses = 83, DATA misses = 187. Winner = INSTR
[DUEL] Epoch ended. INSTR misses = 90, DATA misses = 180. Winner = INSTR
[DUEL] Epoch ended. INSTR misses = 88, DATA misses = 182. Winner = INSTR
[DUEL] Epoch ended. INSTR misses = 98, DATA misses = 180. Winner = INSTR
[DUEL] Epoch ended. INSTR misses = 160, DATA misses = 246. Winner = INSTR
[DUEL] Epoch ended. INSTR misses = 104, DATA misses = 192. Winner = INSTR
[DUEL] Epoch ended. INSTR misses = 114, DATA misses = 240. Winner = INSTR
[DUEL] Epoch ended. INSTR misses = 126, DATA misses = 246. Winner = INSTR
[DUEL] Epoch ended. INSTR misses = 93, DATA misses = 188. Winner = INSTR
[DUEL] Epoch ended. INSTR misses = 70, DATA misses = 173. Winner = INSTR
[DUEL] Epoch ended. INSTR misses = 97, DATA misses = 188. Winner = INSTR
[DUEL] Epoch ended. INSTR misses = 152, DATA misses = 221. Winner = INSTR
[DUEL] Epoch ended. INSTR misses = 69, DATA misses = 162. Winner = INSTR
[DUEL] Epoch ended. INSTR misses = 125, DATA misses = 214. Winner = INSTR
[DUEL] Epoch ended. INSTR misses = 100, DATA misses = 214. Winner = INSTR
[DUEL] Epoch ended. INSTR misses = 121, DATA misses = 229. Winner = INSTR
Heartbeat CPU 0 instructions: 130000000 cycles: 154644978 heartbeat IPC: 0.3573 cumulative IPC: 0.6712 (Simulation time: 00 hr 20 min 24 sec)
Simulation finished CPU 0 instructions: 100000011 cycles: 148986374 cumulative IPC: 0.6712 (Simulation time: 00 hr 20 min 24 sec)
Simulation complete CPU 0 instructions: 100000011 cycles: 148986374 cumulative IPC: 0.6712 (Simulation time: 00 hr 20 min 24 sec)

ChampSim completed all CPUs

=== Simulation ===
CPU 0 runs ../traces/secret_traces/compute_fp/compute_fp_15.champsimtrace.xz
Region of Interest Statistics

CPU 0 cumulative IPC: 0.6712 instructions: 100000011 cycles: 148986374
CPU 0 Branch Prediction Accuracy: 99.15% MPKI: 0.1322 Average ROB Occupancy at Mispredict: 30.16
Branch type MPKI
BRANCH_DIRECT_JUMP: 0.00713
BRANCH_INDIRECT: 0.0658
BRANCH_CONDITIONAL: 0.0259
BRANCH_DIRECT_CALL: 0.02
BRANCH_INDIRECT_CALL: 0.0023
BRANCH_RETURN: 0.011

LLC TOTAL        ACCESS:    6010478 HIT:     154786 MISS:    5855692
LLC LOAD         ACCESS:    2071557 HIT:      28306 MISS:    2043251
LLC RFO          ACCESS:     218502 HIT:      26663 MISS:     191839
LLC PREFETCH     ACCESS:    2195574 HIT:      31992 MISS:    2163582
LLC WRITE        ACCESS:    1517332 HIT:      67493 MISS:    1449839
LLC TRANSLATION  ACCESS:       7513 HIT:        332 MISS:       7181
LLC PREFETCH REQUESTED:          0 ISSUED:          0 USEFUL:          0 USELESS:          0
LLC AVERAGE MISS LATENCY: 373.4 cycles
cpu0_DTLB TOTAL        ACCESS:   16270842 HIT:   15012768 MISS:    1258074
cpu0_DTLB LOAD         ACCESS:   16270842 HIT:   15012768 MISS:    1258074
cpu0_DTLB RFO          ACCESS:          0 HIT:          0 MISS:          0
cpu0_DTLB PREFETCH     ACCESS:          0 HIT:          0 MISS:          0
cpu0_DTLB WRITE        ACCESS:          0 HIT:          0 MISS:          0
cpu0_DTLB TRANSLATION  ACCESS:          0 HIT:          0 MISS:          0
cpu0_DTLB PREFETCH REQUESTED:          0 ISSUED:          0 USEFUL:          0 USELESS:          0
cpu0_DTLB AVERAGE MISS LATENCY: 14.26 cycles
cpu0_ITLB TOTAL        ACCESS:     116188 HIT:     114700 MISS:       1488
cpu0_ITLB LOAD         ACCESS:     116188 HIT:     114700 MISS:       1488
cpu0_ITLB RFO          ACCESS:          0 HIT:          0 MISS:          0
cpu0_ITLB PREFETCH     ACCESS:          0 HIT:          0 MISS:          0
cpu0_ITLB WRITE        ACCESS:          0 HIT:          0 MISS:          0
cpu0_ITLB TRANSLATION  ACCESS:          0 HIT:          0 MISS:          0
cpu0_ITLB PREFETCH REQUESTED:          0 ISSUED:          0 USEFUL:          0 USELESS:          0
cpu0_ITLB AVERAGE MISS LATENCY: 75.04 cycles
cpu0_L1D TOTAL        ACCESS:   27394719 HIT:   14107035 MISS:   13287684
cpu0_L1D LOAD         ACCESS:   15416013 HIT:    3870851 MISS:   11545162
cpu0_L1D RFO          ACCESS:          0 HIT:          0 MISS:          0
cpu0_L1D PREFETCH     ACCESS:    1330261 HIT:     437749 MISS:     892512
cpu0_L1D WRITE        ACCESS:   10290627 HIT:    9485109 MISS:     805518
cpu0_L1D TRANSLATION  ACCESS:     357818 HIT:     313326 MISS:      44492
cpu0_L1D PREFETCH REQUESTED:   10665476 ISSUED:    1330261 USEFUL:     161766 USELESS:        722
cpu0_L1D AVERAGE MISS LATENCY: 114.6 cycles
cpu0_L1I TOTAL        ACCESS:     168322 HIT:     133382 MISS:      34940
cpu0_L1I LOAD         ACCESS:      58810 HIT:      48157 MISS:      10653
cpu0_L1I RFO          ACCESS:          0 HIT:          0 MISS:          0
cpu0_L1I PREFETCH     ACCESS:     109512 HIT:      85225 MISS:      24287
cpu0_L1I WRITE        ACCESS:          0 HIT:          0 MISS:          0
cpu0_L1I TRANSLATION  ACCESS:          0 HIT:          0 MISS:          0
cpu0_L1I PREFETCH REQUESTED:     167283 ISSUED:     109512 USEFUL:      13210 USELESS:       9016
cpu0_L1I AVERAGE MISS LATENCY: 130.5 cycles
cpu0_L2C TOTAL        ACCESS:    9346806 HIT:    2405615 MISS:    6941191
cpu0_L2C LOAD         ACCESS:    3146162 HIT:     324174 MISS:    2821988
cpu0_L2C RFO          ACCESS:     222055 HIT:       3525 MISS:     218530
cpu0_L2C PREFETCH     ACCESS:    4414702 HIT:     524826 MISS:    3889876
cpu0_L2C WRITE        ACCESS:    1520797 HIT:    1517513 MISS:       3284
cpu0_L2C TRANSLATION  ACCESS:      43090 HIT:      35577 MISS:       7513
cpu0_L2C PREFETCH REQUESTED:    3782991 ISSUED:    3780432 USEFUL:     983669 USELESS:     960959
cpu0_L2C AVERAGE MISS LATENCY: 315 cycles
cpu0_STLB TOTAL        ACCESS:     359158 HIT:       1957 MISS:     357201
cpu0_STLB LOAD         ACCESS:     359158 HIT:       1957 MISS:     357201
cpu0_STLB RFO          ACCESS:          0 HIT:          0 MISS:          0
cpu0_STLB PREFETCH     ACCESS:          0 HIT:          0 MISS:          0
cpu0_STLB WRITE        ACCESS:          0 HIT:          0 MISS:          0
cpu0_STLB TRANSLATION  ACCESS:          0 HIT:          0 MISS:          0
cpu0_STLB PREFETCH REQUESTED:          0 ISSUED:          0 USEFUL:          0 USELESS:          0
cpu0_STLB AVERAGE MISS LATENCY: 62.47 cycles

DRAM Statistics

Channel 0 RQ ROW_BUFFER_HIT:     917529
  ROW_BUFFER_MISS:    1287865
 AVG DBUS CONGESTED CYCLE: 3.928
WQ ROW_BUFFER_HIT: Channel 0 
  ROW_BUFFER_MISS:      52716
  FULL:     598561

Channel 1 RQ ROW_BUFFER_HIT:     906939
  ROW_BUFFER_MISS:    1293494
 AVG DBUS CONGESTED CYCLE: 3.955
WQ ROW_BUFFER_HIT: Channel 1 
  ROW_BUFFER_MISS:      64250
  FULL:     746604
BERTI TO_L1: 6528584 TO_L2: 11527409 TO_L2_BC_MSHR: 5629818
BERTI AVG_LAT: 387.868 NUM_TRACK_LATENCY: 4435918 NUM_CANT_TRACK_LATENCY: 913
BERTI CROSS_PAGE 10365364 NO_CROSS_PAGE: 7690629
BERTI FOUND_BERTI: 35239042 NO_FOUND_BERTI: 22292466
BERTI AVERAGE_ISSUED: 4.54427
CPU 0 L1I Entangling prefetcher final stats
IP accesses: 3996 e6580 759 / 75931
IP misses: 3996 e6580 754 / 27774
IP hits: 0 0 0 / 0
IP late: 5a81 16a040 13 / 5558
IP wrong: ea8a 3aa280 26 / 8957
miss rate: 0.36578
coverage: 0
coverage_late: 0.200116
accuracy: 0
accuracy_late: 0.382915
discarded: 0
evicts entangled j table: 0
evicts entangled k table: 1575
max bb size: 40
formats: 445 0 1274 707 324 700 0 
hist_lookups: 1069 1196 917 848 810 706 562 360 322 265 179 127 92 53 17 0 15 3666 
hist_lookups_evict: 0.133881 %
hist_lookups_shortlat: 32.7205 %
bb_found_hist: 0 14196 6221 2791 1076 661 224 75 53 19 12 29 15 0 20 2 0 3 0 4 0 0 0 0 0 0 0 0 0 0 0 0 0 0 0 0 0 0 0 0 1 0 0 0 0 0 0 0 0 0 0 0 0 0 0 0 0 0 0 0 0 0 0 0 
bb_found_summary: 46180 25402 1.81797
entangled_found_hist: 0 8326 4771 9795 2073 281 48 0 
entangled_found_summary: 57238 25294 2.26291
bb_ent_found_hist: 0 19205 10163 5465 2281 1484 583 210 101 5 19 139 0 0 0 0 0 3 0 5 0 0 0 0 0 0 0 0 0 0 0 0 0 0 0 0 0 0 0 0 1 0 0 0 0 0 0 0 0 0 0 0 0 0 0 0 0 0 0 0 0 0 0 0 
bb_ent_found_summary: 80196 39664 2.02189
