WARNING: physical memory size is smaller than virtual memory size.

*** ChampSim Multicore Out-of-Order Simulator ***
Warmup Instructions: 30000000
Simulation Instructions: 100000000
Number of CPUs: 1
Page size: 4096

BTB:
Basic BTB sets: 1024 ways: 8
Indirect:
history lengths: 0 0 10 16 27 44 60 96 109 219 449 487 714 1313 2146 3881 
ITTAGE tables: 64768 bytes;Region table: 240 bytes;IUM: 384 bytes;Total Storage= 65392 bytes;
RAS:
RAS size: 64
[LLC] INSTR Demand IPV: 1 2 2 1 4 Prefetch IPV: 1 2 1 1 4
[LLC] DATA  Demand IPV: 1 1 1 2 4 Prefetch IPV: 1 1 2 2 4
Berti Prefetcher
CPU 0 Entangling prefetcher
Off-chip DRAM Size: 8 GiB Channels: 2 Width: 64-bit Data Race: 6400 MT/s
[DUEL] Epoch ended. INSTR misses = 16, DATA misses = 16. Winner = INSTR
[DUEL] Epoch ended. INSTR misses = 0, DATA misses = 0. Winner = INSTR
[DUEL] Epoch ended. INSTR misses = 16, DATA misses = 16. Winner = INSTR
[DUEL] Epoch ended. INSTR misses = 5, DATA misses = 4. Winner = DATA
[DUEL] Epoch ended. INSTR misses = 0, DATA misses = 0. Winner = INSTR
[DUEL] Epoch ended. INSTR misses = 16, DATA misses = 16. Winner = INSTR
[DUEL] Epoch ended. INSTR misses = 0, DATA misses = 0. Winner = INSTR
[DUEL] Epoch ended. INSTR misses = 0, DATA misses = 0. Winner = INSTR
Heartbeat CPU 0 instructions: 10000005 cycles: 1666758 heartbeat IPC: 6 cumulative IPC: 6 (Simulation time: 00 hr 00 min 25 sec)
[DUEL] Epoch ended. INSTR misses = 0, DATA misses = 0. Winner = INSTR
[DUEL] Epoch ended. INSTR misses = 0, DATA misses = 4. Winner = INSTR
[DUEL] Epoch ended. INSTR misses = 0, DATA misses = 0. Winner = INSTR
[DUEL] Epoch ended. INSTR misses = 0, DATA misses = 0. Winner = INSTR
[DUEL] Epoch ended. INSTR misses = 0, DATA misses = 0. Winner = INSTR
Heartbeat CPU 0 instructions: 20000005 cycles: 3333424 heartbeat IPC: 6 cumulative IPC: 6 (Simulation time: 00 hr 00 min 51 sec)
[DUEL] Epoch ended. INSTR misses = 0, DATA misses = 0. Winner = INSTR
[DUEL] Epoch ended. INSTR misses = 0, DATA misses = 0. Winner = INSTR
[DUEL] Epoch ended. INSTR misses = 0, DATA misses = 0. Winner = INSTR
[DUEL] Epoch ended. INSTR misses = 0, DATA misses = 0. Winner = INSTR
[DUEL] Epoch ended. INSTR misses = 0, DATA misses = 0. Winner = INSTR
Heartbeat CPU 0 instructions: 30000004 cycles: 5000091 heartbeat IPC: 6 cumulative IPC: 6 (Simulation time: 00 hr 01 min 16 sec)
Warmup finished CPU 0 instructions: 30000004 cycles: 5000092 cumulative IPC: 6 (Simulation time: 00 hr 01 min 16 sec)
Warmup complete CPU 0 instructions: 30000004 cycles: 5000092 cumulative IPC: 6 (Simulation time: 00 hr 01 min 16 sec)
[DUEL] Epoch ended. INSTR misses = 0, DATA misses = 0. Winner = INSTR
[DUEL] Epoch ended. INSTR misses = 0, DATA misses = 0. Winner = INSTR
[DUEL] Epoch ended. INSTR misses = 0, DATA misses = 0. Winner = INSTR
[DUEL] Epoch ended. INSTR misses = 0, DATA misses = 0. Winner = INSTR
[DUEL] Epoch ended. INSTR misses = 0, DATA misses = 0. Winner = INSTR
[DUEL] Epoch ended. INSTR misses = 0, DATA misses = 0. Winner = INSTR
[DUEL] Epoch ended. INSTR misses = 0, DATA misses = 0. Winner = INSTR
Heartbeat CPU 0 instructions: 40000000 cycles: 6666984 heartbeat IPC: 5.999 cumulative IPC: 5.999 (Simulation time: 00 hr 01 min 44 sec)
[DUEL] Epoch ended. INSTR misses = 0, DATA misses = 0. Winner = INSTR
[DUEL] Epoch ended. INSTR misses = 0, DATA misses = 0. Winner = INSTR
[DUEL] Epoch ended. INSTR misses = 0, DATA misses = 0. Winner = INSTR
[DUEL] Epoch ended. INSTR misses = 0, DATA misses = 0. Winner = INSTR
[DUEL] Epoch ended. INSTR misses = 0, DATA misses = 0. Winner = INSTR
[DUEL] Epoch ended. INSTR misses = 0, DATA misses = 0. Winner = INSTR
[DUEL] Epoch ended. INSTR misses = 0, DATA misses = 0. Winner = INSTR
Heartbeat CPU 0 instructions: 50000005 cycles: 8333767 heartbeat IPC: 6 cumulative IPC: 5.999 (Simulation time: 00 hr 02 min 12 sec)
[DUEL] Epoch ended. INSTR misses = 0, DATA misses = 0. Winner = INSTR
[DUEL] Epoch ended. INSTR misses = 0, DATA misses = 0. Winner = INSTR
[DUEL] Epoch ended. INSTR misses = 0, DATA misses = 0. Winner = INSTR
[DUEL] Epoch ended. INSTR misses = 0, DATA misses = 0. Winner = INSTR
[DUEL] Epoch ended. INSTR misses = 0, DATA misses = 0. Winner = INSTR
[DUEL] Epoch ended. INSTR misses = 0, DATA misses = 0. Winner = INSTR
Heartbeat CPU 0 instructions: 60000010 cycles: 10000527 heartbeat IPC: 6 cumulative IPC: 5.999 (Simulation time: 00 hr 02 min 41 sec)
[DUEL] Epoch ended. INSTR misses = 0, DATA misses = 0. Winner = INSTR
[DUEL] Epoch ended. INSTR misses = 0, DATA misses = 0. Winner = INSTR
[DUEL] Epoch ended. INSTR misses = 0, DATA misses = 0. Winner = INSTR
[DUEL] Epoch ended. INSTR misses = 0, DATA misses = 0. Winner = INSTR
[DUEL] Epoch ended. INSTR misses = 0, DATA misses = 0. Winner = INSTR
[DUEL] Epoch ended. INSTR misses = 0, DATA misses = 0. Winner = INSTR
[DUEL] Epoch ended. INSTR misses = 0, DATA misses = 0. Winner = INSTR
Heartbeat CPU 0 instructions: 70000010 cycles: 11667370 heartbeat IPC: 5.999 cumulative IPC: 5.999 (Simulation time: 00 hr 03 min 09 sec)
[DUEL] Epoch ended. INSTR misses = 0, DATA misses = 0. Winner = INSTR
[DUEL] Epoch ended. INSTR misses = 0, DATA misses = 0. Winner = INSTR
[DUEL] Epoch ended. INSTR misses = 0, DATA misses = 0. Winner = INSTR
[DUEL] Epoch ended. INSTR misses = 0, DATA misses = 0. Winner = INSTR
[DUEL] Epoch ended. INSTR misses = 0, DATA misses = 0. Winner = INSTR
Heartbeat CPU 0 instructions: 80000007 cycles: 13334224 heartbeat IPC: 5.999 cumulative IPC: 5.999 (Simulation time: 00 hr 03 min 37 sec)
[DUEL] Epoch ended. INSTR misses = 0, DATA misses = 0. Winner = INSTR
[DUEL] Epoch ended. INSTR misses = 0, DATA misses = 0. Winner = INSTR
[DUEL] Epoch ended. INSTR misses = 0, DATA misses = 0. Winner = INSTR
[DUEL] Epoch ended. INSTR misses = 0, DATA misses = 0. Winner = INSTR
[DUEL] Epoch ended. INSTR misses = 0, DATA misses = 0. Winner = INSTR
Heartbeat CPU 0 instructions: 90000000 cycles: 15001023 heartbeat IPC: 6 cumulative IPC: 5.999 (Simulation time: 00 hr 04 min 05 sec)
[DUEL] Epoch ended. INSTR misses = 0, DATA misses = 0. Winner = INSTR
[DUEL] Epoch ended. INSTR misses = 0, DATA misses = 0. Winner = INSTR
[DUEL] Epoch ended. INSTR misses = 0, DATA misses = 0. Winner = INSTR
[DUEL] Epoch ended. INSTR misses = 0, DATA misses = 0. Winner = INSTR
[DUEL] Epoch ended. INSTR misses = 0, DATA misses = 0. Winner = INSTR
Heartbeat CPU 0 instructions: 100000004 cycles: 16667774 heartbeat IPC: 6 cumulative IPC: 5.999 (Simulation time: 00 hr 04 min 33 sec)
*** Reached end of trace: (0, "../traces/secret_traces/compute_fp/compute_fp_74.champsimtrace.xz")
[DUEL] Epoch ended. INSTR misses = 0, DATA misses = 0. Winner = INSTR
[DUEL] Epoch ended. INSTR misses = 0, DATA misses = 0. Winner = INSTR
[DUEL] Epoch ended. INSTR misses = 0, DATA misses = 0. Winner = INSTR
[DUEL] Epoch ended. INSTR misses = 0, DATA misses = 0. Winner = INSTR
[DUEL] Epoch ended. INSTR misses = 0, DATA misses = 0. Winner = INSTR
Heartbeat CPU 0 instructions: 110000010 cycles: 18334541 heartbeat IPC: 6 cumulative IPC: 5.999 (Simulation time: 00 hr 05 min 01 sec)
[DUEL] Epoch ended. INSTR misses = 0, DATA misses = 0. Winner = INSTR
[DUEL] Epoch ended. INSTR misses = 0, DATA misses = 0. Winner = INSTR
[DUEL] Epoch ended. INSTR misses = 0, DATA misses = 0. Winner = INSTR
[DUEL] Epoch ended. INSTR misses = 0, DATA misses = 0. Winner = INSTR
[DUEL] Epoch ended. INSTR misses = 0, DATA misses = 0. Winner = INSTR
[DUEL] Epoch ended. INSTR misses = 0, DATA misses = 0. Winner = INSTR
Heartbeat CPU 0 instructions: 120000011 cycles: 20001369 heartbeat IPC: 5.999 cumulative IPC: 5.999 (Simulation time: 00 hr 05 min 29 sec)
[DUEL] Epoch ended. INSTR misses = 0, DATA misses = 0. Winner = INSTR
[DUEL] Epoch ended. INSTR misses = 0, DATA misses = 0. Winner = INSTR
[DUEL] Epoch ended. INSTR misses = 0, DATA misses = 0. Winner = INSTR
[DUEL] Epoch ended. INSTR misses = 0, DATA misses = 0. Winner = INSTR
[DUEL] Epoch ended. INSTR misses = 0, DATA misses = 0. Winner = INSTR
Heartbeat CPU 0 instructions: 130000008 cycles: 21668246 heartbeat IPC: 5.999 cumulative IPC: 5.999 (Simulation time: 00 hr 05 min 57 sec)
Simulation finished CPU 0 instructions: 100000004 cycles: 16668155 cumulative IPC: 5.999 (Simulation time: 00 hr 05 min 57 sec)
Simulation complete CPU 0 instructions: 100000004 cycles: 16668155 cumulative IPC: 5.999 (Simulation time: 00 hr 05 min 57 sec)

ChampSim completed all CPUs

=== Simulation ===
CPU 0 runs ../traces/secret_traces/compute_fp/compute_fp_74.champsimtrace.xz
Region of Interest Statistics

CPU 0 cumulative IPC: 5.999 instructions: 100000004 cycles: 16668155
CPU 0 Branch Prediction Accuracy: 100% MPKI: 0.00077 Average ROB Occupancy at Mispredict: 99.91
Branch type MPKI
BRANCH_DIRECT_JUMP: 0
BRANCH_INDIRECT: 0
BRANCH_CONDITIONAL: 0.00077
BRANCH_DIRECT_CALL: 0
BRANCH_INDIRECT_CALL: 0
BRANCH_RETURN: 0

LLC TOTAL        ACCESS:        311 HIT:        239 MISS:         72
LLC LOAD         ACCESS:         20 HIT:         20 MISS:          0
LLC RFO          ACCESS:         20 HIT:         20 MISS:          0
LLC PREFETCH     ACCESS:        249 HIT:        179 MISS:         70
LLC WRITE        ACCESS:         20 HIT:         20 MISS:          0
LLC TRANSLATION  ACCESS:          2 HIT:          0 MISS:          2
LLC PREFETCH REQUESTED:          0 ISSUED:          0 USEFUL:          0 USELESS:          0
LLC AVERAGE MISS LATENCY: 110 cycles
cpu0_DTLB TOTAL        ACCESS:   16666751 HIT:   16652143 MISS:      14608
cpu0_DTLB LOAD         ACCESS:   16666751 HIT:   16652143 MISS:      14608
cpu0_DTLB RFO          ACCESS:          0 HIT:          0 MISS:          0
cpu0_DTLB PREFETCH     ACCESS:          0 HIT:          0 MISS:          0
cpu0_DTLB WRITE        ACCESS:          0 HIT:          0 MISS:          0
cpu0_DTLB TRANSLATION  ACCESS:          0 HIT:          0 MISS:          0
cpu0_DTLB PREFETCH REQUESTED:          0 ISSUED:          0 USEFUL:          0 USELESS:          0
cpu0_DTLB AVERAGE MISS LATENCY: 7.716 cycles
cpu0_ITLB TOTAL        ACCESS:       6491 HIT:       6491 MISS:          0
cpu0_ITLB LOAD         ACCESS:       6491 HIT:       6491 MISS:          0
cpu0_ITLB RFO          ACCESS:          0 HIT:          0 MISS:          0
cpu0_ITLB PREFETCH     ACCESS:          0 HIT:          0 MISS:          0
cpu0_ITLB WRITE        ACCESS:          0 HIT:          0 MISS:          0
cpu0_ITLB TRANSLATION  ACCESS:          0 HIT:          0 MISS:          0
cpu0_ITLB PREFETCH REQUESTED:          0 ISSUED:          0 USEFUL:          0 USELESS:          0
cpu0_ITLB AVERAGE MISS LATENCY: -nan cycles
cpu0_L1D TOTAL        ACCESS:   20418542 HIT:   19075659 MISS:    1342883
cpu0_L1D LOAD         ACCESS:   15474640 HIT:   14577849 MISS:     896791
cpu0_L1D RFO          ACCESS:          0 HIT:          0 MISS:          0
cpu0_L1D PREFETCH     ACCESS:     655649 HIT:     449910 MISS:     205739
cpu0_L1D WRITE        ACCESS:    4288250 HIT:    4047900 MISS:     240350
cpu0_L1D TRANSLATION  ACCESS:          3 HIT:          0 MISS:          3
cpu0_L1D PREFETCH REQUESTED:   67569791 ISSUED:     655653 USEFUL:     145905 USELESS:       4934
cpu0_L1D AVERAGE MISS LATENCY: 4.989 cycles
cpu0_L1I TOTAL        ACCESS:       9528 HIT:       9411 MISS:        117
cpu0_L1I LOAD         ACCESS:       5429 HIT:       5336 MISS:         93
cpu0_L1I RFO          ACCESS:          0 HIT:          0 MISS:          0
cpu0_L1I PREFETCH     ACCESS:       4099 HIT:       4075 MISS:         24
cpu0_L1I WRITE        ACCESS:          0 HIT:          0 MISS:          0
cpu0_L1I TRANSLATION  ACCESS:          0 HIT:          0 MISS:          0
cpu0_L1I PREFETCH REQUESTED:       7275 ISSUED:       4099 USEFUL:         10 USELESS:          0
cpu0_L1I AVERAGE MISS LATENCY: 4.265 cycles
cpu0_L2C TOTAL        ACCESS:    1902999 HIT:    1902637 MISS:        362
cpu0_L2C LOAD         ACCESS:     569341 HIT:     569321 MISS:         20
cpu0_L2C RFO          ACCESS:     179483 HIT:     179463 MISS:         20
cpu0_L2C PREFETCH     ACCESS:     974034 HIT:     973714 MISS:        320
cpu0_L2C WRITE        ACCESS:     180138 HIT:     180138 MISS:          0
cpu0_L2C TRANSLATION  ACCESS:          3 HIT:          1 MISS:          2
cpu0_L2C PREFETCH REQUESTED:     771758 ISSUED:     771618 USEFUL:        200 USELESS:         20
cpu0_L2C AVERAGE MISS LATENCY: 38.15 cycles
cpu0_STLB TOTAL        ACCESS:      14217 HIT:      14214 MISS:          3
cpu0_STLB LOAD         ACCESS:      14217 HIT:      14214 MISS:          3
cpu0_STLB RFO          ACCESS:          0 HIT:          0 MISS:          0
cpu0_STLB PREFETCH     ACCESS:          0 HIT:          0 MISS:          0
cpu0_STLB WRITE        ACCESS:          0 HIT:          0 MISS:          0
cpu0_STLB TRANSLATION  ACCESS:          0 HIT:          0 MISS:          0
cpu0_STLB PREFETCH REQUESTED:          0 ISSUED:          0 USEFUL:          0 USELESS:          0
cpu0_STLB AVERAGE MISS LATENCY: 261.7 cycles

DRAM Statistics

Channel 0 RQ ROW_BUFFER_HIT:         16
  ROW_BUFFER_MISS:         21
 AVG DBUS CONGESTED CYCLE: -
WQ ROW_BUFFER_HIT: Channel 0 
  ROW_BUFFER_MISS:          0
  FULL:          0

Channel 1 RQ ROW_BUFFER_HIT:         19
  ROW_BUFFER_MISS:         16
 AVG DBUS CONGESTED CYCLE: 3.5
WQ ROW_BUFFER_HIT: Channel 1 
  ROW_BUFFER_MISS:          0
  FULL:          0
BERTI TO_L1: 98830363 TO_L2: 13060384 TO_L2_BC_MSHR: 103
BERTI AVG_LAT: 251.379 NUM_TRACK_LATENCY: 931022 NUM_CANT_TRACK_LATENCY: 0
BERTI CROSS_PAGE 22030420 NO_CROSS_PAGE: 89860327
BERTI FOUND_BERTI: 9765242 NO_FOUND_BERTI: 11999182
BERTI AVERAGE_ISSUED: 2.4875
CPU 0 L1I Entangling prefetcher final stats
IP accesses: 3b34 ecd00 74 / 5429
IP misses: 3b34 ecd00 34 / 93
IP hits: 0 0 0 / 0
IP late: 5534 154d00 10 / 29
IP wrong: 0 0 0 / 0
miss rate: 0.0171303
coverage: 0
coverage_late: 0.311828
accuracy: 0
accuracy_late: 1
discarded: 0
evicts entangled j table: 0
evicts entangled k table: 1
max bb size: 15
formats: 1 0 0 2 0 1 0 
hist_lookups: 0 1 0 10 12 1 1 0 1 0 0 0 0 0 0 0 0 112 
hist_lookups_evict: 0 %
hist_lookups_shortlat: 81.1595 %
bb_found_hist: 0 1011 497 182 68 20 20 0 0 0 0 0 0 0 0 10 0 0 0 0 0 0 0 0 0 0 0 0 0 0 0 0 0 0 0 0 0 0 0 0 0 0 0 0 0 0 0 0 0 0 0 0 0 0 0 0 0 0 0 0 0 0 0 0 
bb_found_summary: 3193 1808 1.76604
entangled_found_hist: 0 412 354 143 23 10 20 0 
entangled_found_summary: 1811 962 1.88254
bb_ent_found_hist: 0 622 403 161 30 10 20 0 0 0 0 0 0 0 0 10 0 0 0 0 0 0 0 0 0 0 0 0 0 0 0 0 0 0 0 0 0 0 0 0 0 0 0 0 0 0 0 0 0 0 0 0 0 0 0 0 0 0 0 0 0 0 0 0 
bb_ent_found_summary: 2351 1256 1.87182
