WARNING: physical memory size is smaller than virtual memory size.

*** ChampSim Multicore Out-of-Order Simulator ***
Warmup Instructions: 30000000
Simulation Instructions: 100000000
Number of CPUs: 1
Page size: 4096

BTB:
Basic BTB sets: 1024 ways: 8
Indirect:
history lengths: 0 0 10 16 27 44 60 96 109 219 449 487 714 1313 2146 3881 
ITTAGE tables: 64768 bytes;Region table: 240 bytes;IUM: 384 bytes;Total Storage= 65392 bytes;
RAS:
RAS size: 64
[LLC] INSTR Demand IPV: 1 2 2 1 4 Prefetch IPV: 1 2 1 1 4
[LLC] DATA  Demand IPV: 1 1 1 2 4 Prefetch IPV: 1 1 2 2 4
Berti Prefetcher
CPU 0 Entangling prefetcher
Off-chip DRAM Size: 8 GiB Channels: 2 Width: 64-bit Data Race: 6400 MT/s
[DUEL] Epoch ended. INSTR misses = 24, DATA misses = 11. Winner = DATA
[DUEL] Epoch ended. INSTR misses = 104, DATA misses = 113. Winner = INSTR
[DUEL] Epoch ended. INSTR misses = 48, DATA misses = 49. Winner = INSTR
[DUEL] Epoch ended. INSTR misses = 25, DATA misses = 1. Winner = DATA
[DUEL] Epoch ended. INSTR misses = 72, DATA misses = 32. Winner = DATA
[DUEL] Epoch ended. INSTR misses = 72, DATA misses = 64. Winner = DATA
[DUEL] Epoch ended. INSTR misses = 76, DATA misses = 83. Winner = INSTR
[DUEL] Epoch ended. INSTR misses = 89, DATA misses = 89. Winner = INSTR
[DUEL] Epoch ended. INSTR misses = 44, DATA misses = 61. Winner = INSTR
[DUEL] Epoch ended. INSTR misses = 66, DATA misses = 93. Winner = INSTR
[DUEL] Epoch ended. INSTR misses = 45, DATA misses = 66. Winner = INSTR
[DUEL] Epoch ended. INSTR misses = 58, DATA misses = 81. Winner = INSTR
[DUEL] Epoch ended. INSTR misses = 48, DATA misses = 66. Winner = INSTR
[DUEL] Epoch ended. INSTR misses = 81, DATA misses = 102. Winner = INSTR
[DUEL] Epoch ended. INSTR misses = 46, DATA misses = 63. Winner = INSTR
[DUEL] Epoch ended. INSTR misses = 57, DATA misses = 78. Winner = INSTR
[DUEL] Epoch ended. INSTR misses = 60, DATA misses = 79. Winner = INSTR
[DUEL] Epoch ended. INSTR misses = 44, DATA misses = 69. Winner = INSTR
[DUEL] Epoch ended. INSTR misses = 47, DATA misses = 69. Winner = INSTR
[DUEL] Epoch ended. INSTR misses = 44, DATA misses = 66. Winner = INSTR
[DUEL] Epoch ended. INSTR misses = 45, DATA misses = 66. Winner = INSTR
[DUEL] Epoch ended. INSTR misses = 56, DATA misses = 79. Winner = INSTR
[DUEL] Epoch ended. INSTR misses = 48, DATA misses = 63. Winner = INSTR
[DUEL] Epoch ended. INSTR misses = 48, DATA misses = 72. Winner = INSTR
[DUEL] Epoch ended. INSTR misses = 69, DATA misses = 92. Winner = INSTR
[DUEL] Epoch ended. INSTR misses = 46, DATA misses = 60. Winner = INSTR
[DUEL] Epoch ended. INSTR misses = 61, DATA misses = 85. Winner = INSTR
[DUEL] Epoch ended. INSTR misses = 58, DATA misses = 76. Winner = INSTR
[DUEL] Epoch ended. INSTR misses = 61, DATA misses = 79. Winner = INSTR
[DUEL] Epoch ended. INSTR misses = 44, DATA misses = 66. Winner = INSTR
[DUEL] Epoch ended. INSTR misses = 49, DATA misses = 72. Winner = INSTR
[DUEL] Epoch ended. INSTR misses = 56, DATA misses = 80. Winner = INSTR
[DUEL] Epoch ended. INSTR misses = 46, DATA misses = 66. Winner = INSTR
[DUEL] Epoch ended. INSTR misses = 71, DATA misses = 95. Winner = INSTR
[DUEL] Epoch ended. INSTR misses = 60, DATA misses = 76. Winner = INSTR
[DUEL] Epoch ended. INSTR misses = 56, DATA misses = 82. Winner = INSTR
[DUEL] Epoch ended. INSTR misses = 46, DATA misses = 63. Winner = INSTR
[DUEL] Epoch ended. INSTR misses = 44, DATA misses = 66. Winner = INSTR
[DUEL] Epoch ended. INSTR misses = 59, DATA misses = 82. Winner = INSTR
Heartbeat CPU 0 instructions: 10000002 cycles: 1716576 heartbeat IPC: 5.826 cumulative IPC: 5.826 (Simulation time: 00 hr 00 min 25 sec)
[DUEL] Epoch ended. INSTR misses = 58, DATA misses = 82. Winner = INSTR
[DUEL] Epoch ended. INSTR misses = 68, DATA misses = 89. Winner = INSTR
[DUEL] Epoch ended. INSTR misses = 56, DATA misses = 67. Winner = INSTR
[DUEL] Epoch ended. INSTR misses = 59, DATA misses = 76. Winner = INSTR
[DUEL] Epoch ended. INSTR misses = 42, DATA misses = 66. Winner = INSTR
[DUEL] Epoch ended. INSTR misses = 49, DATA misses = 66. Winner = INSTR
[DUEL] Epoch ended. INSTR misses = 47, DATA misses = 66. Winner = INSTR
[DUEL] Epoch ended. INSTR misses = 58, DATA misses = 82. Winner = INSTR
[DUEL] Epoch ended. INSTR misses = 47, DATA misses = 66. Winner = INSTR
[DUEL] Epoch ended. INSTR misses = 62, DATA misses = 85. Winner = INSTR
[DUEL] Epoch ended. INSTR misses = 43, DATA misses = 63. Winner = INSTR
[DUEL] Epoch ended. INSTR misses = 60, DATA misses = 82. Winner = INSTR
[DUEL] Epoch ended. INSTR misses = 45, DATA misses = 65. Winner = INSTR
[DUEL] Epoch ended. INSTR misses = 48, DATA misses = 66. Winner = INSTR
[DUEL] Epoch ended. INSTR misses = 42, DATA misses = 68. Winner = INSTR
[DUEL] Epoch ended. INSTR misses = 74, DATA misses = 90. Winner = INSTR
[DUEL] Epoch ended. INSTR misses = 47, DATA misses = 72. Winner = INSTR
[DUEL] Epoch ended. INSTR misses = 68, DATA misses = 92. Winner = INSTR
[DUEL] Epoch ended. INSTR misses = 48, DATA misses = 66. Winner = INSTR
[DUEL] Epoch ended. INSTR misses = 52, DATA misses = 73. Winner = INSTR
[DUEL] Epoch ended. INSTR misses = 50, DATA misses = 66. Winner = INSTR
[DUEL] Epoch ended. INSTR misses = 48, DATA misses = 69. Winner = INSTR
[DUEL] Epoch ended. INSTR misses = 49, DATA misses = 69. Winner = INSTR
[DUEL] Epoch ended. INSTR misses = 47, DATA misses = 69. Winner = INSTR
[DUEL] Epoch ended. INSTR misses = 57, DATA misses = 80. Winner = INSTR
[DUEL] Epoch ended. INSTR misses = 46, DATA misses = 69. Winner = INSTR
[DUEL] Epoch ended. INSTR misses = 68, DATA misses = 86. Winner = INSTR
[DUEL] Epoch ended. INSTR misses = 44, DATA misses = 66. Winner = INSTR
[DUEL] Epoch ended. INSTR misses = 48, DATA misses = 66. Winner = INSTR
[DUEL] Epoch ended. INSTR misses = 57, DATA misses = 82. Winner = INSTR
[DUEL] Epoch ended. INSTR misses = 57, DATA misses = 76. Winner = INSTR
[DUEL] Epoch ended. INSTR misses = 73, DATA misses = 98. Winner = INSTR
[DUEL] Epoch ended. INSTR misses = 58, DATA misses = 73. Winner = INSTR
[DUEL] Epoch ended. INSTR misses = 62, DATA misses = 79. Winner = INSTR
[DUEL] Epoch ended. INSTR misses = 57, DATA misses = 76. Winner = INSTR
[DUEL] Epoch ended. INSTR misses = 59, DATA misses = 79. Winner = INSTR
[DUEL] Epoch ended. INSTR misses = 70, DATA misses = 89. Winner = INSTR
[DUEL] Epoch ended. INSTR misses = 47, DATA misses = 66. Winner = INSTR
[DUEL] Epoch ended. INSTR misses = 59, DATA misses = 85. Winner = INSTR
Heartbeat CPU 0 instructions: 20000007 cycles: 3383400 heartbeat IPC: 5.999 cumulative IPC: 5.911 (Simulation time: 00 hr 00 min 51 sec)
[DUEL] Epoch ended. INSTR misses = 44, DATA misses = 63. Winner = INSTR
[DUEL] Epoch ended. INSTR misses = 60, DATA misses = 83. Winner = INSTR
[DUEL] Epoch ended. INSTR misses = 57, DATA misses = 76. Winner = INSTR
[DUEL] Epoch ended. INSTR misses = 63, DATA misses = 79. Winner = INSTR
[DUEL] Epoch ended. INSTR misses = 68, DATA misses = 95. Winner = INSTR
[DUEL] Epoch ended. INSTR misses = 48, DATA misses = 60. Winner = INSTR
[DUEL] Epoch ended. INSTR misses = 49, DATA misses = 72. Winner = INSTR
[DUEL] Epoch ended. INSTR misses = 44, DATA misses = 66. Winner = INSTR
[DUEL] Epoch ended. INSTR misses = 52, DATA misses = 70. Winner = INSTR
[DUEL] Epoch ended. INSTR misses = 56, DATA misses = 79. Winner = INSTR
[DUEL] Epoch ended. INSTR misses = 48, DATA misses = 69. Winner = INSTR
[DUEL] Epoch ended. INSTR misses = 57, DATA misses = 79. Winner = INSTR
[DUEL] Epoch ended. INSTR misses = 48, DATA misses = 69. Winner = INSTR
[DUEL] Epoch ended. INSTR misses = 56, DATA misses = 79. Winner = INSTR
[DUEL] Epoch ended. INSTR misses = 44, DATA misses = 63. Winner = INSTR
[DUEL] Epoch ended. INSTR misses = 72, DATA misses = 98. Winner = INSTR
[DUEL] Epoch ended. INSTR misses = 45, DATA misses = 60. Winner = INSTR
[DUEL] Epoch ended. INSTR misses = 72, DATA misses = 95. Winner = INSTR
[DUEL] Epoch ended. INSTR misses = 45, DATA misses = 66. Winner = INSTR
[DUEL] Epoch ended. INSTR misses = 71, DATA misses = 83. Winner = INSTR
[DUEL] Epoch ended. INSTR misses = 57, DATA misses = 79. Winner = INSTR
[DUEL] Epoch ended. INSTR misses = 61, DATA misses = 79. Winner = INSTR
[DUEL] Epoch ended. INSTR misses = 70, DATA misses = 95. Winner = INSTR
[DUEL] Epoch ended. INSTR misses = 45, DATA misses = 63. Winner = INSTR
[DUEL] Epoch ended. INSTR misses = 73, DATA misses = 98. Winner = INSTR
[DUEL] Epoch ended. INSTR misses = 44, DATA misses = 60. Winner = INSTR
[DUEL] Epoch ended. INSTR misses = 80, DATA misses = 102. Winner = INSTR
[DUEL] Epoch ended. INSTR misses = 48, DATA misses = 66. Winner = INSTR
[DUEL] Epoch ended. INSTR misses = 58, DATA misses = 79. Winner = INSTR
[DUEL] Epoch ended. INSTR misses = 70, DATA misses = 79. Winner = INSTR
[DUEL] Epoch ended. INSTR misses = 46, DATA misses = 73. Winner = INSTR
[DUEL] Epoch ended. INSTR misses = 56, DATA misses = 82. Winner = INSTR
[DUEL] Epoch ended. INSTR misses = 48, DATA misses = 69. Winner = INSTR
[DUEL] Epoch ended. INSTR misses = 50, DATA misses = 66. Winner = INSTR
[DUEL] Epoch ended. INSTR misses = 58, DATA misses = 83. Winner = INSTR
[DUEL] Epoch ended. INSTR misses = 45, DATA misses = 66. Winner = INSTR
[DUEL] Epoch ended. INSTR misses = 69, DATA misses = 89. Winner = INSTR
[DUEL] Epoch ended. INSTR misses = 60, DATA misses = 79. Winner = INSTR
[DUEL] Epoch ended. INSTR misses = 68, DATA misses = 89. Winner = INSTR
Heartbeat CPU 0 instructions: 30000011 cycles: 5050753 heartbeat IPC: 5.998 cumulative IPC: 5.94 (Simulation time: 00 hr 01 min 16 sec)
Warmup finished CPU 0 instructions: 30000011 cycles: 5050754 cumulative IPC: 5.94 (Simulation time: 00 hr 01 min 16 sec)
Warmup complete CPU 0 instructions: 30000011 cycles: 5050754 cumulative IPC: 5.94 (Simulation time: 00 hr 01 min 16 sec)
[DUEL] Epoch ended. INSTR misses = 61, DATA misses = 82. Winner = INSTR
[DUEL] Epoch ended. INSTR misses = 45, DATA misses = 63. Winner = INSTR
[DUEL] Epoch ended. INSTR misses = 56, DATA misses = 79. Winner = INSTR
[DUEL] Epoch ended. INSTR misses = 61, DATA misses = 78. Winner = INSTR
[DUEL] Epoch ended. INSTR misses = 58, DATA misses = 76. Winner = INSTR
[DUEL] Epoch ended. INSTR misses = 74, DATA misses = 98. Winner = INSTR
[DUEL] Epoch ended. INSTR misses = 60, DATA misses = 73. Winner = INSTR
[DUEL] Epoch ended. INSTR misses = 54, DATA misses = 84. Winner = INSTR
[DUEL] Epoch ended. INSTR misses = 33, DATA misses = 255. Winner = INSTR
[DUEL] Epoch ended. INSTR misses = 30, DATA misses = 269. Winner = INSTR
[DUEL] Epoch ended. INSTR misses = 29, DATA misses = 241. Winner = INSTR
[DUEL] Epoch ended. INSTR misses = 33, DATA misses = 261. Winner = INSTR
[DUEL] Epoch ended. INSTR misses = 32, DATA misses = 256. Winner = INSTR
[DUEL] Epoch ended. INSTR misses = 32, DATA misses = 264. Winner = INSTR
[DUEL] Epoch ended. INSTR misses = 30, DATA misses = 256. Winner = INSTR
[DUEL] Epoch ended. INSTR misses = 31, DATA misses = 261. Winner = INSTR
[DUEL] Epoch ended. INSTR misses = 32, DATA misses = 260. Winner = INSTR
[DUEL] Epoch ended. INSTR misses = 32, DATA misses = 259. Winner = INSTR
[DUEL] Epoch ended. INSTR misses = 34, DATA misses = 252. Winner = INSTR
[DUEL] Epoch ended. INSTR misses = 33, DATA misses = 242. Winner = INSTR
[DUEL] Epoch ended. INSTR misses = 32, DATA misses = 256. Winner = INSTR
[DUEL] Epoch ended. INSTR misses = 32, DATA misses = 272. Winner = INSTR
[DUEL] Epoch ended. INSTR misses = 31, DATA misses = 255. Winner = INSTR
[DUEL] Epoch ended. INSTR misses = 32, DATA misses = 256. Winner = INSTR
[DUEL] Epoch ended. INSTR misses = 31, DATA misses = 257. Winner = INSTR
[DUEL] Epoch ended. INSTR misses = 34, DATA misses = 262. Winner = INSTR
[DUEL] Epoch ended. INSTR misses = 30, DATA misses = 278. Winner = INSTR
[DUEL] Epoch ended. INSTR misses = 28, DATA misses = 264. Winner = INSTR
[DUEL] Epoch ended. INSTR misses = 30, DATA misses = 251. Winner = INSTR
[DUEL] Epoch ended. INSTR misses = 29, DATA misses = 237. Winner = INSTR
[DUEL] Epoch ended. INSTR misses = 31, DATA misses = 248. Winner = INSTR
[DUEL] Epoch ended. INSTR misses = 31, DATA misses = 264. Winner = INSTR
[DUEL] Epoch ended. INSTR misses = 30, DATA misses = 253. Winner = INSTR
[DUEL] Epoch ended. INSTR misses = 29, DATA misses = 259. Winner = INSTR
[DUEL] Epoch ended. INSTR misses = 35, DATA misses = 264. Winner = INSTR
[DUEL] Epoch ended. INSTR misses = 33, DATA misses = 261. Winner = INSTR
[DUEL] Epoch ended. INSTR misses = 34, DATA misses = 251. Winner = INSTR
[DUEL] Epoch ended. INSTR misses = 32, DATA misses = 256. Winner = INSTR
[DUEL] Epoch ended. INSTR misses = 30, DATA misses = 237. Winner = INSTR
Heartbeat CPU 0 instructions: 40000003 cycles: 53414254 heartbeat IPC: 0.2068 cumulative IPC: 0.2068 (Simulation time: 00 hr 07 min 50 sec)
[DUEL] Epoch ended. INSTR misses = 32, DATA misses = 254. Winner = INSTR
[DUEL] Epoch ended. INSTR misses = 33, DATA misses = 237. Winner = INSTR
[DUEL] Epoch ended. INSTR misses = 32, DATA misses = 248. Winner = INSTR
[DUEL] Epoch ended. INSTR misses = 33, DATA misses = 264. Winner = INSTR
[DUEL] Epoch ended. INSTR misses = 29, DATA misses = 256. Winner = INSTR
[DUEL] Epoch ended. INSTR misses = 34, DATA misses = 254. Winner = INSTR
[DUEL] Epoch ended. INSTR misses = 32, DATA misses = 246. Winner = INSTR
[DUEL] Epoch ended. INSTR misses = 30, DATA misses = 245. Winner = INSTR
[DUEL] Epoch ended. INSTR misses = 219, DATA misses = 311. Winner = INSTR
[DUEL] Epoch ended. INSTR misses = 479, DATA misses = 479. Winner = INSTR
[DUEL] Epoch ended. INSTR misses = 510, DATA misses = 511. Winner = INSTR
[DUEL] Epoch ended. INSTR misses = 479, DATA misses = 479. Winner = INSTR
[DUEL] Epoch ended. INSTR misses = 481, DATA misses = 478. Winner = DATA
[DUEL] Epoch ended. INSTR misses = 510, DATA misses = 512. Winner = INSTR
[DUEL] Epoch ended. INSTR misses = 528, DATA misses = 527. Winner = DATA
[DUEL] Epoch ended. INSTR misses = 572, DATA misses = 576. Winner = INSTR
[DUEL] Epoch ended. INSTR misses = 576, DATA misses = 576. Winner = INSTR
[DUEL] Epoch ended. INSTR misses = 366, DATA misses = 368. Winner = INSTR
[DUEL] Epoch ended. INSTR misses = 432, DATA misses = 432. Winner = INSTR
[DUEL] Epoch ended. INSTR misses = 271, DATA misses = 281. Winner = INSTR
[DUEL] Epoch ended. INSTR misses = 172, DATA misses = 248. Winner = INSTR
[DUEL] Epoch ended. INSTR misses = 163, DATA misses = 248. Winner = INSTR
[DUEL] Epoch ended. INSTR misses = 168, DATA misses = 258. Winner = INSTR
[DUEL] Epoch ended. INSTR misses = 167, DATA misses = 249. Winner = INSTR
[DUEL] Epoch ended. INSTR misses = 161, DATA misses = 243. Winner = INSTR
[DUEL] Epoch ended. INSTR misses = 165, DATA misses = 255. Winner = INSTR
[DUEL] Epoch ended. INSTR misses = 160, DATA misses = 243. Winner = INSTR
[DUEL] Epoch ended. INSTR misses = 168, DATA misses = 249. Winner = INSTR
[DUEL] Epoch ended. INSTR misses = 150, DATA misses = 228. Winner = INSTR
[DUEL] Epoch ended. INSTR misses = 172, DATA misses = 252. Winner = INSTR
[DUEL] Epoch ended. INSTR misses = 168, DATA misses = 252. Winner = INSTR
[DUEL] Epoch ended. INSTR misses = 167, DATA misses = 250. Winner = INSTR
[DUEL] Epoch ended. INSTR misses = 163, DATA misses = 246. Winner = INSTR
[DUEL] Epoch ended. INSTR misses = 166, DATA misses = 255. Winner = INSTR
[DUEL] Epoch ended. INSTR misses = 172, DATA misses = 255. Winner = INSTR
[DUEL] Epoch ended. INSTR misses = 168, DATA misses = 252. Winner = INSTR
[DUEL] Epoch ended. INSTR misses = 152, DATA misses = 231. Winner = INSTR
[DUEL] Epoch ended. INSTR misses = 164, DATA misses = 243. Winner = INSTR
[DUEL] Epoch ended. INSTR misses = 164, DATA misses = 246. Winner = INSTR
Heartbeat CPU 0 instructions: 50000002 cycles: 120040973 heartbeat IPC: 0.1501 cumulative IPC: 0.1739 (Simulation time: 00 hr 14 min 54 sec)
[DUEL] Epoch ended. INSTR misses = 168, DATA misses = 252. Winner = INSTR
[DUEL] Epoch ended. INSTR misses = 172, DATA misses = 255. Winner = INSTR
[DUEL] Epoch ended. INSTR misses = 168, DATA misses = 249. Winner = INSTR
[DUEL] Epoch ended. INSTR misses = 161, DATA misses = 239. Winner = INSTR
[DUEL] Epoch ended. INSTR misses = 150, DATA misses = 229. Winner = INSTR
[DUEL] Epoch ended. INSTR misses = 163, DATA misses = 246. Winner = INSTR
[DUEL] Epoch ended. INSTR misses = 156, DATA misses = 234. Winner = INSTR
[DUEL] Epoch ended. INSTR misses = 170, DATA misses = 252. Winner = INSTR
[DUEL] Epoch ended. INSTR misses = 162, DATA misses = 246. Winner = INSTR
[DUEL] Epoch ended. INSTR misses = 159, DATA misses = 239. Winner = INSTR
[DUEL] Epoch ended. INSTR misses = 156, DATA misses = 233. Winner = INSTR
[DUEL] Epoch ended. INSTR misses = 88, DATA misses = 121. Winner = INSTR
[DUEL] Epoch ended. INSTR misses = 67, DATA misses = 74. Winner = INSTR
[DUEL] Epoch ended. INSTR misses = 89, DATA misses = 75. Winner = DATA
[DUEL] Epoch ended. INSTR misses = 47, DATA misses = 59. Winner = INSTR
[DUEL] Epoch ended. INSTR misses = 61, DATA misses = 55. Winner = DATA
[DUEL] Epoch ended. INSTR misses = 55, DATA misses = 63. Winner = INSTR
[DUEL] Epoch ended. INSTR misses = 71, DATA misses = 64. Winner = DATA
[DUEL] Epoch ended. INSTR misses = 82, DATA misses = 81. Winner = DATA
[DUEL] Epoch ended. INSTR misses = 58, DATA misses = 63. Winner = INSTR
[DUEL] Epoch ended. INSTR misses = 89, DATA misses = 76. Winner = DATA
[DUEL] Epoch ended. INSTR misses = 72, DATA misses = 85. Winner = INSTR
[DUEL] Epoch ended. INSTR misses = 52, DATA misses = 53. Winner = INSTR
[DUEL] Epoch ended. INSTR misses = 54, DATA misses = 62. Winner = INSTR
[DUEL] Epoch ended. INSTR misses = 102, DATA misses = 105. Winner = INSTR
[DUEL] Epoch ended. INSTR misses = 59, DATA misses = 59. Winner = INSTR
[DUEL] Epoch ended. INSTR misses = 57, DATA misses = 48. Winner = DATA
[DUEL] Epoch ended. INSTR misses = 75, DATA misses = 74. Winner = DATA
[DUEL] Epoch ended. INSTR misses = 48, DATA misses = 50. Winner = INSTR
[DUEL] Epoch ended. INSTR misses = 49, DATA misses = 44. Winner = DATA
[DUEL] Epoch ended. INSTR misses = 84, DATA misses = 90. Winner = INSTR
[DUEL] Epoch ended. INSTR misses = 99, DATA misses = 99. Winner = INSTR
[DUEL] Epoch ended. INSTR misses = 47, DATA misses = 49. Winner = INSTR
[DUEL] Epoch ended. INSTR misses = 90, DATA misses = 92. Winner = INSTR
[DUEL] Epoch ended. INSTR misses = 41, DATA misses = 55. Winner = INSTR
[DUEL] Epoch ended. INSTR misses = 51, DATA misses = 50. Winner = DATA
[DUEL] Epoch ended. INSTR misses = 41, DATA misses = 49. Winner = INSTR
[DUEL] Epoch ended. INSTR misses = 75, DATA misses = 73. Winner = DATA
[DUEL] Epoch ended. INSTR misses = 58, DATA misses = 67. Winner = INSTR
Heartbeat CPU 0 instructions: 60000006 cycles: 150366814 heartbeat IPC: 0.3298 cumulative IPC: 0.2064 (Simulation time: 00 hr 18 min 44 sec)
[DUEL] Epoch ended. INSTR misses = 46, DATA misses = 47. Winner = INSTR
[DUEL] Epoch ended. INSTR misses = 72, DATA misses = 73. Winner = INSTR
[DUEL] Epoch ended. INSTR misses = 84, DATA misses = 80. Winner = DATA
[DUEL] Epoch ended. INSTR misses = 49, DATA misses = 45. Winner = DATA
[DUEL] Epoch ended. INSTR misses = 74, DATA misses = 79. Winner = INSTR
[DUEL] Epoch ended. INSTR misses = 32, DATA misses = 34. Winner = INSTR
[DUEL] Epoch ended. INSTR misses = 96, DATA misses = 91. Winner = DATA
[DUEL] Epoch ended. INSTR misses = 45, DATA misses = 51. Winner = INSTR
[DUEL] Epoch ended. INSTR misses = 88, DATA misses = 91. Winner = INSTR
[DUEL] Epoch ended. INSTR misses = 56, DATA misses = 52. Winner = DATA
[DUEL] Epoch ended. INSTR misses = 78, DATA misses = 75. Winner = DATA
[DUEL] Epoch ended. INSTR misses = 54, DATA misses = 59. Winner = INSTR
[DUEL] Epoch ended. INSTR misses = 109, DATA misses = 113. Winner = INSTR
[DUEL] Epoch ended. INSTR misses = 53, DATA misses = 52. Winner = DATA
[DUEL] Epoch ended. INSTR misses = 103, DATA misses = 108. Winner = INSTR
[DUEL] Epoch ended. INSTR misses = 52, DATA misses = 39. Winner = DATA
[DUEL] Epoch ended. INSTR misses = 60, DATA misses = 75. Winner = INSTR
[DUEL] Epoch ended. INSTR misses = 81, DATA misses = 80. Winner = DATA
[DUEL] Epoch ended. INSTR misses = 65, DATA misses = 56. Winner = DATA
[DUEL] Epoch ended. INSTR misses = 105, DATA misses = 105. Winner = INSTR
[DUEL] Epoch ended. INSTR misses = 55, DATA misses = 66. Winner = INSTR
[DUEL] Epoch ended. INSTR misses = 124, DATA misses = 122. Winner = DATA
[DUEL] Epoch ended. INSTR misses = 77, DATA misses = 70. Winner = DATA
[DUEL] Epoch ended. INSTR misses = 64, DATA misses = 75. Winner = INSTR
[DUEL] Epoch ended. INSTR misses = 39, DATA misses = 48. Winner = INSTR
[DUEL] Epoch ended. INSTR misses = 67, DATA misses = 76. Winner = INSTR
[DUEL] Epoch ended. INSTR misses = 46, DATA misses = 47. Winner = INSTR
[DUEL] Epoch ended. INSTR misses = 42, DATA misses = 42. Winner = INSTR
[DUEL] Epoch ended. INSTR misses = 60, DATA misses = 56. Winner = DATA
[DUEL] Epoch ended. INSTR misses = 40, DATA misses = 45. Winner = INSTR
[DUEL] Epoch ended. INSTR misses = 105, DATA misses = 100. Winner = DATA
[DUEL] Epoch ended. INSTR misses = 64, DATA misses = 69. Winner = INSTR
[DUEL] Epoch ended. INSTR misses = 60, DATA misses = 67. Winner = INSTR
[DUEL] Epoch ended. INSTR misses = 75, DATA misses = 67. Winner = DATA
[DUEL] Epoch ended. INSTR misses = 64, DATA misses = 74. Winner = INSTR
[DUEL] Epoch ended. INSTR misses = 48, DATA misses = 48. Winner = INSTR
[DUEL] Epoch ended. INSTR misses = 104, DATA misses = 93. Winner = DATA
[DUEL] Epoch ended. INSTR misses = 53, DATA misses = 52. Winner = DATA
[DUEL] Epoch ended. INSTR misses = 81, DATA misses = 80. Winner = DATA
Heartbeat CPU 0 instructions: 70000011 cycles: 167462905 heartbeat IPC: 0.5849 cumulative IPC: 0.2463 (Simulation time: 00 hr 21 min 10 sec)
[DUEL] Epoch ended. INSTR misses = 74, DATA misses = 72. Winner = DATA
[DUEL] Epoch ended. INSTR misses = 128, DATA misses = 129. Winner = INSTR
[DUEL] Epoch ended. INSTR misses = 61, DATA misses = 65. Winner = INSTR
[DUEL] Epoch ended. INSTR misses = 64, DATA misses = 64. Winner = INSTR
[DUEL] Epoch ended. INSTR misses = 47, DATA misses = 50. Winner = INSTR
[DUEL] Epoch ended. INSTR misses = 58, DATA misses = 61. Winner = INSTR
[DUEL] Epoch ended. INSTR misses = 58, DATA misses = 68. Winner = INSTR
[DUEL] Epoch ended. INSTR misses = 50, DATA misses = 39. Winner = DATA
[DUEL] Epoch ended. INSTR misses = 47, DATA misses = 54. Winner = INSTR
[DUEL] Epoch ended. INSTR misses = 51, DATA misses = 59. Winner = INSTR
[DUEL] Epoch ended. INSTR misses = 56, DATA misses = 56. Winner = INSTR
[DUEL] Epoch ended. INSTR misses = 79, DATA misses = 87. Winner = INSTR
[DUEL] Epoch ended. INSTR misses = 58, DATA misses = 58. Winner = INSTR
[DUEL] Epoch ended. INSTR misses = 54, DATA misses = 57. Winner = INSTR
[DUEL] Epoch ended. INSTR misses = 71, DATA misses = 83. Winner = INSTR
[DUEL] Epoch ended. INSTR misses = 50, DATA misses = 50. Winner = INSTR
[DUEL] Epoch ended. INSTR misses = 46, DATA misses = 43. Winner = DATA
[DUEL] Epoch ended. INSTR misses = 46, DATA misses = 54. Winner = INSTR
[DUEL] Epoch ended. INSTR misses = 44, DATA misses = 52. Winner = INSTR
[DUEL] Epoch ended. INSTR misses = 63, DATA misses = 66. Winner = INSTR
[DUEL] Epoch ended. INSTR misses = 64, DATA misses = 63. Winner = DATA
[DUEL] Epoch ended. INSTR misses = 57, DATA misses = 62. Winner = INSTR
[DUEL] Epoch ended. INSTR misses = 43, DATA misses = 44. Winner = INSTR
[DUEL] Epoch ended. INSTR misses = 54, DATA misses = 58. Winner = INSTR
[DUEL] Epoch ended. INSTR misses = 98, DATA misses = 94. Winner = DATA
[DUEL] Epoch ended. INSTR misses = 41, DATA misses = 44. Winner = INSTR
[DUEL] Epoch ended. INSTR misses = 78, DATA misses = 77. Winner = DATA
[DUEL] Epoch ended. INSTR misses = 63, DATA misses = 63. Winner = INSTR
[DUEL] Epoch ended. INSTR misses = 81, DATA misses = 83. Winner = INSTR
[DUEL] Epoch ended. INSTR misses = 57, DATA misses = 62. Winner = INSTR
[DUEL] Epoch ended. INSTR misses = 39, DATA misses = 46. Winner = INSTR
[DUEL] Epoch ended. INSTR misses = 42, DATA misses = 33. Winner = DATA
[DUEL] Epoch ended. INSTR misses = 46, DATA misses = 52. Winner = INSTR
[DUEL] Epoch ended. INSTR misses = 43, DATA misses = 42. Winner = DATA
[DUEL] Epoch ended. INSTR misses = 81, DATA misses = 84. Winner = INSTR
[DUEL] Epoch ended. INSTR misses = 79, DATA misses = 87. Winner = INSTR
[DUEL] Epoch ended. INSTR misses = 75, DATA misses = 73. Winner = DATA
[DUEL] Epoch ended. INSTR misses = 45, DATA misses = 51. Winner = INSTR
[DUEL] Epoch ended. INSTR misses = 46, DATA misses = 39. Winner = DATA
Heartbeat CPU 0 instructions: 80000004 cycles: 185016448 heartbeat IPC: 0.5697 cumulative IPC: 0.2778 (Simulation time: 00 hr 23 min 39 sec)
[DUEL] Epoch ended. INSTR misses = 67, DATA misses = 60. Winner = DATA
[DUEL] Epoch ended. INSTR misses = 51, DATA misses = 49. Winner = DATA
[DUEL] Epoch ended. INSTR misses = 55, DATA misses = 71. Winner = INSTR
[DUEL] Epoch ended. INSTR misses = 124, DATA misses = 110. Winner = DATA
[DUEL] Epoch ended. INSTR misses = 70, DATA misses = 80. Winner = INSTR
[DUEL] Epoch ended. INSTR misses = 63, DATA misses = 71. Winner = INSTR
[DUEL] Epoch ended. INSTR misses = 46, DATA misses = 52. Winner = INSTR
[DUEL] Epoch ended. INSTR misses = 59, DATA misses = 71. Winner = INSTR
[DUEL] Epoch ended. INSTR misses = 48, DATA misses = 46. Winner = DATA
[DUEL] Epoch ended. INSTR misses = 62, DATA misses = 68. Winner = INSTR
[DUEL] Epoch ended. INSTR misses = 62, DATA misses = 68. Winner = INSTR
[DUEL] Epoch ended. INSTR misses = 49, DATA misses = 47. Winner = DATA
[DUEL] Epoch ended. INSTR misses = 70, DATA misses = 77. Winner = INSTR
[DUEL] Epoch ended. INSTR misses = 46, DATA misses = 50. Winner = INSTR
[DUEL] Epoch ended. INSTR misses = 73, DATA misses = 75. Winner = INSTR
[DUEL] Epoch ended. INSTR misses = 46, DATA misses = 44. Winner = DATA
[DUEL] Epoch ended. INSTR misses = 46, DATA misses = 49. Winner = INSTR
[DUEL] Epoch ended. INSTR misses = 59, DATA misses = 64. Winner = INSTR
[DUEL] Epoch ended. INSTR misses = 48, DATA misses = 38. Winner = DATA
[DUEL] Epoch ended. INSTR misses = 94, DATA misses = 99. Winner = INSTR
[DUEL] Epoch ended. INSTR misses = 45, DATA misses = 37. Winner = DATA
[DUEL] Epoch ended. INSTR misses = 66, DATA misses = 72. Winner = INSTR
[DUEL] Epoch ended. INSTR misses = 69, DATA misses = 68. Winner = DATA
[DUEL] Epoch ended. INSTR misses = 44, DATA misses = 52. Winner = INSTR
[DUEL] Epoch ended. INSTR misses = 79, DATA misses = 89. Winner = INSTR
[DUEL] Epoch ended. INSTR misses = 48, DATA misses = 54. Winner = INSTR
[DUEL] Epoch ended. INSTR misses = 42, DATA misses = 47. Winner = INSTR
[DUEL] Epoch ended. INSTR misses = 52, DATA misses = 57. Winner = INSTR
[DUEL] Epoch ended. INSTR misses = 51, DATA misses = 50. Winner = DATA
[DUEL] Epoch ended. INSTR misses = 44, DATA misses = 49. Winner = INSTR
[DUEL] Epoch ended. INSTR misses = 30, DATA misses = 47. Winner = INSTR
[DUEL] Epoch ended. INSTR misses = 68, DATA misses = 67. Winner = DATA
[DUEL] Epoch ended. INSTR misses = 63, DATA misses = 69. Winner = INSTR
[DUEL] Epoch ended. INSTR misses = 49, DATA misses = 56. Winner = INSTR
[DUEL] Epoch ended. INSTR misses = 60, DATA misses = 76. Winner = INSTR
[DUEL] Epoch ended. INSTR misses = 45, DATA misses = 67. Winner = INSTR
[DUEL] Epoch ended. INSTR misses = 61, DATA misses = 81. Winner = INSTR
[DUEL] Epoch ended. INSTR misses = 77, DATA misses = 96. Winner = INSTR
[DUEL] Epoch ended. INSTR misses = 71, DATA misses = 101. Winner = INSTR
Heartbeat CPU 0 instructions: 90000008 cycles: 202520841 heartbeat IPC: 0.5713 cumulative IPC: 0.3038 (Simulation time: 00 hr 26 min 05 sec)
[DUEL] Epoch ended. INSTR misses = 54, DATA misses = 62. Winner = INSTR
[DUEL] Epoch ended. INSTR misses = 61, DATA misses = 81. Winner = INSTR
[DUEL] Epoch ended. INSTR misses = 56, DATA misses = 78. Winner = INSTR
[DUEL] Epoch ended. INSTR misses = 73, DATA misses = 89. Winner = INSTR
[DUEL] Epoch ended. INSTR misses = 45, DATA misses = 66. Winner = INSTR
[DUEL] Epoch ended. INSTR misses = 45, DATA misses = 66. Winner = INSTR
[DUEL] Epoch ended. INSTR misses = 61, DATA misses = 82. Winner = INSTR
[DUEL] Epoch ended. INSTR misses = 44, DATA misses = 63. Winner = INSTR
[DUEL] Epoch ended. INSTR misses = 53, DATA misses = 79. Winner = INSTR
[DUEL] Epoch ended. INSTR misses = 66, DATA misses = 79. Winner = INSTR
[DUEL] Epoch ended. INSTR misses = 44, DATA misses = 63. Winner = INSTR
[DUEL] Epoch ended. INSTR misses = 75, DATA misses = 98. Winner = INSTR
[DUEL] Epoch ended. INSTR misses = 36, DATA misses = 45. Winner = INSTR
[DUEL] Epoch ended. INSTR misses = 44, DATA misses = 69. Winner = INSTR
[DUEL] Epoch ended. INSTR misses = 44, DATA misses = 63. Winner = INSTR
[DUEL] Epoch ended. INSTR misses = 51, DATA misses = 73. Winner = INSTR
[DUEL] Epoch ended. INSTR misses = 56, DATA misses = 76. Winner = INSTR
[DUEL] Epoch ended. INSTR misses = 45, DATA misses = 69. Winner = INSTR
[DUEL] Epoch ended. INSTR misses = 62, DATA misses = 85. Winner = INSTR
[DUEL] Epoch ended. INSTR misses = 41, DATA misses = 60. Winner = INSTR
[DUEL] Epoch ended. INSTR misses = 60, DATA misses = 85. Winner = INSTR
[DUEL] Epoch ended. INSTR misses = 32, DATA misses = 48. Winner = INSTR
[DUEL] Epoch ended. INSTR misses = 77, DATA misses = 95. Winner = INSTR
[DUEL] Epoch ended. INSTR misses = 41, DATA misses = 60. Winner = INSTR
[DUEL] Epoch ended. INSTR misses = 76, DATA misses = 98. Winner = INSTR
[DUEL] Epoch ended. INSTR misses = 60, DATA misses = 82. Winner = INSTR
[DUEL] Epoch ended. INSTR misses = 58, DATA misses = 76. Winner = INSTR
[DUEL] Epoch ended. INSTR misses = 57, DATA misses = 79. Winner = INSTR
[DUEL] Epoch ended. INSTR misses = 49, DATA misses = 64. Winner = INSTR
[DUEL] Epoch ended. INSTR misses = 72, DATA misses = 89. Winner = INSTR
[DUEL] Epoch ended. INSTR misses = 37, DATA misses = 54. Winner = INSTR
[DUEL] Epoch ended. INSTR misses = 57, DATA misses = 79. Winner = INSTR
[DUEL] Epoch ended. INSTR misses = 63, DATA misses = 79. Winner = INSTR
[DUEL] Epoch ended. INSTR misses = 76, DATA misses = 101. Winner = INSTR
[DUEL] Epoch ended. INSTR misses = 60, DATA misses = 79. Winner = INSTR
[DUEL] Epoch ended. INSTR misses = 45, DATA misses = 63. Winner = INSTR
[DUEL] Epoch ended. INSTR misses = 73, DATA misses = 95. Winner = INSTR
[DUEL] Epoch ended. INSTR misses = 60, DATA misses = 79. Winner = INSTR
[DUEL] Epoch ended. INSTR misses = 40, DATA misses = 66. Winner = INSTR
Heartbeat CPU 0 instructions: 100000006 cycles: 220198980 heartbeat IPC: 0.5657 cumulative IPC: 0.3254 (Simulation time: 00 hr 28 min 23 sec)
*** Reached end of trace: (0, "../traces/secret_traces/compute_fp/compute_fp_116.champsimtrace.xz")
[DUEL] Epoch ended. INSTR misses = 49, DATA misses = 54. Winner = INSTR
[DUEL] Epoch ended. INSTR misses = 2, DATA misses = 27. Winner = INSTR
[DUEL] Epoch ended. INSTR misses = 4, DATA misses = 0. Winner = DATA
[DUEL] Epoch ended. INSTR misses = 36, DATA misses = 33. Winner = DATA
[DUEL] Epoch ended. INSTR misses = 43, DATA misses = 13. Winner = DATA
[DUEL] Epoch ended. INSTR misses = 74, DATA misses = 35. Winner = DATA
[DUEL] Epoch ended. INSTR misses = 60, DATA misses = 66. Winner = INSTR
[DUEL] Epoch ended. INSTR misses = 74, DATA misses = 68. Winner = DATA
[DUEL] Epoch ended. INSTR misses = 64, DATA misses = 64. Winner = INSTR
[DUEL] Epoch ended. INSTR misses = 61, DATA misses = 84. Winner = INSTR
[DUEL] Epoch ended. INSTR misses = 51, DATA misses = 74. Winner = INSTR
[DUEL] Epoch ended. INSTR misses = 49, DATA misses = 72. Winner = INSTR
[DUEL] Epoch ended. INSTR misses = 54, DATA misses = 75. Winner = INSTR
[DUEL] Epoch ended. INSTR misses = 46, DATA misses = 66. Winner = INSTR
[DUEL] Epoch ended. INSTR misses = 83, DATA misses = 101. Winner = INSTR
[DUEL] Epoch ended. INSTR misses = 45, DATA misses = 61. Winner = INSTR
[DUEL] Epoch ended. INSTR misses = 72, DATA misses = 95. Winner = INSTR
[DUEL] Epoch ended. INSTR misses = 44, DATA misses = 63. Winner = INSTR
[DUEL] Epoch ended. INSTR misses = 44, DATA misses = 66. Winner = INSTR
[DUEL] Epoch ended. INSTR misses = 44, DATA misses = 66. Winner = INSTR
[DUEL] Epoch ended. INSTR misses = 52, DATA misses = 78. Winner = INSTR
[DUEL] Epoch ended. INSTR misses = 44, DATA misses = 63. Winner = INSTR
[DUEL] Epoch ended. INSTR misses = 57, DATA misses = 73. Winner = INSTR
[DUEL] Epoch ended. INSTR misses = 48, DATA misses = 72. Winner = INSTR
[DUEL] Epoch ended. INSTR misses = 44, DATA misses = 66. Winner = INSTR
[DUEL] Epoch ended. INSTR misses = 70, DATA misses = 89. Winner = INSTR
[DUEL] Epoch ended. INSTR misses = 49, DATA misses = 69. Winner = INSTR
[DUEL] Epoch ended. INSTR misses = 59, DATA misses = 76. Winner = INSTR
[DUEL] Epoch ended. INSTR misses = 60, DATA misses = 82. Winner = INSTR
[DUEL] Epoch ended. INSTR misses = 57, DATA misses = 76. Winner = INSTR
[DUEL] Epoch ended. INSTR misses = 46, DATA misses = 69. Winner = INSTR
[DUEL] Epoch ended. INSTR misses = 47, DATA misses = 69. Winner = INSTR
[DUEL] Epoch ended. INSTR misses = 55, DATA misses = 80. Winner = INSTR
[DUEL] Epoch ended. INSTR misses = 49, DATA misses = 72. Winner = INSTR
[DUEL] Epoch ended. INSTR misses = 64, DATA misses = 83. Winner = INSTR
[DUEL] Epoch ended. INSTR misses = 64, DATA misses = 85. Winner = INSTR
[DUEL] Epoch ended. INSTR misses = 56, DATA misses = 76. Winner = INSTR
[DUEL] Epoch ended. INSTR misses = 47, DATA misses = 66. Winner = INSTR
[DUEL] Epoch ended. INSTR misses = 48, DATA misses = 72. Winner = INSTR
Heartbeat CPU 0 instructions: 110000011 cycles: 237882547 heartbeat IPC: 0.5655 cumulative IPC: 0.3436 (Simulation time: 00 hr 30 min 41 sec)
[DUEL] Epoch ended. INSTR misses = 56, DATA misses = 76. Winner = INSTR
[DUEL] Epoch ended. INSTR misses = 60, DATA misses = 79. Winner = INSTR
[DUEL] Epoch ended. INSTR misses = 65, DATA misses = 89. Winner = INSTR
[DUEL] Epoch ended. INSTR misses = 59, DATA misses = 70. Winner = INSTR
[DUEL] Epoch ended. INSTR misses = 56, DATA misses = 76. Winner = INSTR
[DUEL] Epoch ended. INSTR misses = 44, DATA misses = 66. Winner = INSTR
[DUEL] Epoch ended. INSTR misses = 46, DATA misses = 66. Winner = INSTR
[DUEL] Epoch ended. INSTR misses = 61, DATA misses = 85. Winner = INSTR
[DUEL] Epoch ended. INSTR misses = 45, DATA misses = 63. Winner = INSTR
[DUEL] Epoch ended. INSTR misses = 50, DATA misses = 72. Winner = INSTR
[DUEL] Epoch ended. INSTR misses = 55, DATA misses = 75. Winner = INSTR
[DUEL] Epoch ended. INSTR misses = 50, DATA misses = 72. Winner = INSTR
[DUEL] Epoch ended. INSTR misses = 55, DATA misses = 75. Winner = INSTR
[DUEL] Epoch ended. INSTR misses = 48, DATA misses = 71. Winner = INSTR
[DUEL] Epoch ended. INSTR misses = 46, DATA misses = 66. Winner = INSTR
[DUEL] Epoch ended. INSTR misses = 44, DATA misses = 66. Winner = INSTR
[DUEL] Epoch ended. INSTR misses = 71, DATA misses = 92. Winner = INSTR
[DUEL] Epoch ended. INSTR misses = 45, DATA misses = 66. Winner = INSTR
[DUEL] Epoch ended. INSTR misses = 71, DATA misses = 90. Winner = INSTR
[DUEL] Epoch ended. INSTR misses = 44, DATA misses = 66. Winner = INSTR
[DUEL] Epoch ended. INSTR misses = 57, DATA misses = 69. Winner = INSTR
[DUEL] Epoch ended. INSTR misses = 47, DATA misses = 72. Winner = INSTR
[DUEL] Epoch ended. INSTR misses = 47, DATA misses = 66. Winner = INSTR
[DUEL] Epoch ended. INSTR misses = 49, DATA misses = 72. Winner = INSTR
[DUEL] Epoch ended. INSTR misses = 46, DATA misses = 66. Winner = INSTR
[DUEL] Epoch ended. INSTR misses = 59, DATA misses = 80. Winner = INSTR
[DUEL] Epoch ended. INSTR misses = 53, DATA misses = 80. Winner = INSTR
[DUEL] Epoch ended. INSTR misses = 56, DATA misses = 74. Winner = INSTR
[DUEL] Epoch ended. INSTR misses = 48, DATA misses = 72. Winner = INSTR
[DUEL] Epoch ended. INSTR misses = 58, DATA misses = 79. Winner = INSTR
[DUEL] Epoch ended. INSTR misses = 44, DATA misses = 63. Winner = INSTR
[DUEL] Epoch ended. INSTR misses = 61, DATA misses = 81. Winner = INSTR
[DUEL] Epoch ended. INSTR misses = 74, DATA misses = 92. Winner = INSTR
[DUEL] Epoch ended. INSTR misses = 70, DATA misses = 92. Winner = INSTR
[DUEL] Epoch ended. INSTR misses = 57, DATA misses = 73. Winner = INSTR
[DUEL] Epoch ended. INSTR misses = 49, DATA misses = 69. Winner = INSTR
[DUEL] Epoch ended. INSTR misses = 81, DATA misses = 102. Winner = INSTR
[DUEL] Epoch ended. INSTR misses = 45, DATA misses = 60. Winner = INSTR
[DUEL] Epoch ended. INSTR misses = 49, DATA misses = 72. Winner = INSTR
Heartbeat CPU 0 instructions: 120000007 cycles: 256000499 heartbeat IPC: 0.5519 cumulative IPC: 0.3586 (Simulation time: 00 hr 33 min 03 sec)
[DUEL] Epoch ended. INSTR misses = 61, DATA misses = 82. Winner = INSTR
[DUEL] Epoch ended. INSTR misses = 44, DATA misses = 66. Winner = INSTR
[DUEL] Epoch ended. INSTR misses = 57, DATA misses = 80. Winner = INSTR
[DUEL] Epoch ended. INSTR misses = 70, DATA misses = 83. Winner = INSTR
[DUEL] Epoch ended. INSTR misses = 49, DATA misses = 72. Winner = INSTR
[DUEL] Epoch ended. INSTR misses = 71, DATA misses = 86. Winner = INSTR
[DUEL] Epoch ended. INSTR misses = 48, DATA misses = 72. Winner = INSTR
[DUEL] Epoch ended. INSTR misses = 44, DATA misses = 66. Winner = INSTR
[DUEL] Epoch ended. INSTR misses = 48, DATA misses = 72. Winner = INSTR
[DUEL] Epoch ended. INSTR misses = 51, DATA misses = 70. Winner = INSTR
[DUEL] Epoch ended. INSTR misses = 56, DATA misses = 77. Winner = INSTR
[DUEL] Epoch ended. INSTR misses = 49, DATA misses = 71. Winner = INSTR
[DUEL] Epoch ended. INSTR misses = 54, DATA misses = 76. Winner = INSTR
[DUEL] Epoch ended. INSTR misses = 44, DATA misses = 69. Winner = INSTR
[DUEL] Epoch ended. INSTR misses = 60, DATA misses = 79. Winner = INSTR
[cpu0_PTW_MSHR] entry:   0 address: 0xfde5100 v_addr: 0xf007100 translation_level: 0 event_cycle: 18446744073709551615

DRAM Channel 0
[RQ] entry:   0 empty
[RQ] entry:   1 empty
[RQ] entry:   2 empty
[RQ] entry:   3 empty
[RQ] entry:   4 empty
[RQ] entry:   5 empty
[RQ] entry:   6 empty
[RQ] entry:   7 empty
[RQ] entry:   8 empty
[RQ] entry:   9 empty
[RQ] entry:  10 empty
[RQ] entry:  11 empty
[RQ] entry:  12 empty
[RQ] entry:  13 empty
[RQ] entry:  14 empty
[RQ] entry:  15 empty
[RQ] entry:  16 empty
[RQ] entry:  17 empty
[RQ] entry:  18 empty
[RQ] entry:  19 empty
[RQ] entry:  20 empty
[RQ] entry:  21 empty
[RQ] entry:  22 empty
[RQ] entry:  23 empty
[RQ] entry:  24 empty
[RQ] entry:  25 empty
[RQ] entry:  26 empty
[RQ] entry:  27 empty
[RQ] entry:  28 empty
[RQ] entry:  29 empty
[RQ] entry:  30 empty
[RQ] entry:  31 empty
[RQ] entry:  32 empty
[RQ] entry:  33 empty
[RQ] entry:  34 empty
[RQ] entry:  35 empty
[RQ] entry:  36 empty
[RQ] entry:  37 empty
[RQ] entry:  38 empty
[RQ] entry:  39 empty
[RQ] entry:  40 empty
[RQ] entry:  41 empty
[RQ] entry:  42 empty
[RQ] entry:  43 empty
[RQ] entry:  44 empty
[RQ] entry:  45 empty
[RQ] entry:  46 empty
[RQ] entry:  47 empty
[RQ] entry:  48 empty
[RQ] entry:  49 empty
[RQ] entry:  50 empty
[RQ] entry:  51 empty
[RQ] entry:  52 empty
[RQ] entry:  53 empty
[RQ] entry:  54 empty
[RQ] entry:  55 empty
[RQ] entry:  56 empty
[RQ] entry:  57 empty
[RQ] entry:  58 empty
[RQ] entry:  59 empty
[RQ] entry:  60 empty
[RQ] entry:  61 empty
[RQ] entry:  62 empty
[RQ] entry:  63 empty

[WQ] entry:   0 empty
[WQ] entry:   1 empty
[WQ] entry:   2 empty
[WQ] entry:   3 empty
[WQ] entry:   4 empty
[WQ] entry:   5 empty
[WQ] entry:   6 empty
[WQ] entry:   7 empty
[WQ] entry:   8 empty
[WQ] entry:   9 empty
[WQ] entry:  10 empty
[WQ] entry:  11 empty
[WQ] entry:  12 empty
[WQ] entry:  13 empty
[WQ] entry:  14 empty
[WQ] entry:  15 empty
[WQ] entry:  16 empty
[WQ] entry:  17 empty
[WQ] entry:  18 empty
[WQ] entry:  19 empty
[WQ] entry:  20 empty
[WQ] entry:  21 empty
[WQ] entry:  22 empty
[WQ] entry:  23 empty
[WQ] entry:  24 empty
[WQ] entry:  25 empty
[WQ] entry:  26 empty
[WQ] entry:  27 empty
[WQ] entry:  28 empty
[WQ] entry:  29 empty
[WQ] entry:  30 empty
[WQ] entry:  31 empty
[WQ] entry:  32 empty
[WQ] entry:  33 empty
[WQ] entry:  34 empty
[WQ] entry:  35 empty
[WQ] entry:  36 empty
[WQ] entry:  37 empty
[WQ] entry:  38 empty
[WQ] entry:  39 empty
[WQ] entry:  40 empty
[WQ] entry:  41 empty
[WQ] entry:  42 empty
[WQ] entry:  43 empty
[WQ] entry:  44 empty
[WQ] entry:  45 empty
[WQ] entry:  46 empty
[WQ] entry:  47 empty
[WQ] entry:  48 empty
[WQ] entry:  49 empty
[WQ] entry:  50 empty
[WQ] entry:  51 empty
[WQ] entry:  52 empty
[WQ] entry:  53 empty
[WQ] entry:  54 empty
[WQ] entry:  55 empty
[WQ] entry:  56 empty
[WQ] entry:  57 empty
[WQ] entry:  58 empty
[WQ] entry:  59 empty
[WQ] entry:  60 empty
[WQ] entry:  61 empty
[WQ] entry:  62 empty
[WQ] entry:  63 empty

DRAM Channel 1
[RQ] entry:   0 empty
[RQ] entry:   1 empty
[RQ] entry:   2 empty
[RQ] entry:   3 empty
[RQ] entry:   4 empty
[RQ] entry:   5 empty
[RQ] entry:   6 empty
[RQ] entry:   7 empty
[RQ] entry:   8 empty
[RQ] entry:   9 empty
[RQ] entry:  10 empty
[RQ] entry:  11 empty
[RQ] entry:  12 empty
[RQ] entry:  13 empty
[RQ] entry:  14 empty
[RQ] entry:  15 empty
[RQ] entry:  16 empty
[RQ] entry:  17 empty
[RQ] entry:  18 empty
[RQ] entry:  19 empty
[RQ] entry:  20 empty
[RQ] entry:  21 empty
[RQ] entry:  22 empty
[RQ] entry:  23 empty
[RQ] entry:  24 empty
[RQ] entry:  25 empty
[RQ] entry:  26 empty
[RQ] entry:  27 empty
[RQ] entry:  28 empty
[RQ] entry:  29 empty
[RQ] entry:  30 empty
[RQ] entry:  31 empty
[RQ] entry:  32 empty
[RQ] entry:  33 empty
[RQ] entry:  34 empty
[RQ] entry:  35 empty
[RQ] entry:  36 empty
[RQ] entry:  37 empty
[RQ] entry:  38 empty
[RQ] entry:  39 empty
[RQ] entry:  40 empty
[RQ] entry:  41 empty
[RQ] entry:  42 empty
[RQ] entry:  43 empty
[RQ] entry:  44 empty
[RQ] entry:  45 empty
[RQ] entry:  46 empty
[RQ] entry:  47 empty
[RQ] entry:  48 empty
[RQ] entry:  49 empty
[RQ] entry:  50 empty
[RQ] entry:  51 empty
[RQ] entry:  52 empty
[RQ] entry:  53 empty
[RQ] entry:  54 empty
[RQ] entry:  55 empty
[RQ] entry:  56 empty
[RQ] entry:  57 empty
[RQ] entry:  58 empty
[RQ] entry:  59 empty
[RQ] entry:  60 empty
[RQ] entry:  61 empty
[RQ] entry:  62 empty
[RQ] entry:  63 empty

[WQ] entry:   0 empty
[WQ] entry:   1 empty
[WQ] entry:   2 empty
[WQ] entry:   3 empty
[WQ] entry:   4 empty
[WQ] entry:   5 empty
[WQ] entry:   6 empty
[WQ] entry:   7 empty
[WQ] entry:   8 empty
[WQ] entry:   9 empty
[WQ] entry:  10 empty
[WQ] entry:  11 empty
[WQ] entry:  12 empty
[WQ] entry:  13 empty
[WQ] entry:  14 empty
[WQ] entry:  15 empty
[WQ] entry:  16 empty
[WQ] entry:  17 empty
[WQ] entry:  18 empty
[WQ] entry:  19 empty
[WQ] entry:  20 empty
[WQ] entry:  21 empty
[WQ] entry:  22 empty
[WQ] entry:  23 empty
[WQ] entry:  24 empty
[WQ] entry:  25 empty
[WQ] entry:  26 empty
[WQ] entry:  27 empty
[WQ] entry:  28 empty
[WQ] entry:  29 empty
[WQ] entry:  30 empty
[WQ] entry:  31 empty
[WQ] entry:  32 empty
[WQ] entry:  33 empty
[WQ] entry:  34 empty
[WQ] entry:  35 empty
[WQ] entry:  36 empty
[WQ] entry:  37 empty
[WQ] entry:  38 empty
[WQ] entry:  39 empty
[WQ] entry:  40 empty
[WQ] entry:  41 empty
[WQ] entry:  42 empty
[WQ] entry:  43 empty
[WQ] entry:  44 empty
[WQ] entry:  45 empty
[WQ] entry:  46 empty
[WQ] entry:  47 empty
[WQ] entry:  48 empty
[WQ] entry:  49 empty
[WQ] entry:  50 empty
[WQ] entry:  51 empty
[WQ] entry:  52 empty
[WQ] entry:  53 empty
[WQ] entry:  54 empty
[WQ] entry:  55 empty
[WQ] entry:  56 empty
[WQ] entry:  57 empty
[WQ] entry:  58 empty
[WQ] entry:  59 empty
[WQ] entry:  60 empty
[WQ] entry:  61 empty
[WQ] entry:  62 empty
[WQ] entry:  63 empty

DEADLOCK! CPU 0 cycle 262576989
[cpu0_IFETCH] entry:   0 instr_id: 123722084 fetched: 2 scheduled: 0 executed: 0 num_reg_dependent: 0 num_mem_ops: 0 event: 262572359
[cpu0_IFETCH] entry:   1 instr_id: 123722085 fetched: 2 scheduled: 0 executed: 0 num_reg_dependent: 0 num_mem_ops: 0 event: 262572359
[cpu0_IFETCH] entry:   2 instr_id: 123722086 fetched: 2 scheduled: 0 executed: 0 num_reg_dependent: 0 num_mem_ops: 0 event: 262572360
[cpu0_IFETCH] entry:   3 instr_id: 123722087 fetched: 2 scheduled: 0 executed: 0 num_reg_dependent: 0 num_mem_ops: 1 event: 262572361
[cpu0_IFETCH] entry:   4 instr_id: 123722088 fetched: 2 scheduled: 0 executed: 0 num_reg_dependent: 0 num_mem_ops: 1 event: 262572361
[cpu0_IFETCH] entry:   5 instr_id: 123722089 fetched: 2 scheduled: 0 executed: 0 num_reg_dependent: 0 num_mem_ops: 1 event: 262572361
[cpu0_IFETCH] entry:   6 instr_id: 123722090 fetched: 2 scheduled: 0 executed: 0 num_reg_dependent: 0 num_mem_ops: 1 event: 262572361
[cpu0_IFETCH] entry:   7 instr_id: 123722091 fetched: 2 scheduled: 0 executed: 0 num_reg_dependent: 0 num_mem_ops: 1 event: 262572361
[cpu0_IFETCH] entry:   8 instr_id: 123722092 fetched: 2 scheduled: 0 executed: 0 num_reg_dependent: 0 num_mem_ops: 0 event: 262572361
[cpu0_IFETCH] entry:   9 instr_id: 123722093 fetched: 2 scheduled: 0 executed: 0 num_reg_dependent: 0 num_mem_ops: 0 event: 262572362
[cpu0_IFETCH] entry:  10 instr_id: 123722094 fetched: 2 scheduled: 0 executed: 0 num_reg_dependent: 0 num_mem_ops: 0 event: 262572362
[cpu0_IFETCH] entry:  11 instr_id: 123722095 fetched: 2 scheduled: 0 executed: 0 num_reg_dependent: 0 num_mem_ops: 0 event: 262572362
[cpu0_IFETCH] entry:  12 instr_id: 123722096 fetched: 2 scheduled: 0 executed: 0 num_reg_dependent: 0 num_mem_ops: 0 event: 262572362
[cpu0_IFETCH] entry:  13 instr_id: 123722097 fetched: 2 scheduled: 0 executed: 0 num_reg_dependent: 0 num_mem_ops: 0 event: 262572362
[cpu0_IFETCH] entry:  14 instr_id: 123722098 fetched: 2 scheduled: 0 executed: 0 num_reg_dependent: 0 num_mem_ops: 0 event: 262572362
[cpu0_IFETCH] entry:  15 instr_id: 123722099 fetched: 2 scheduled: 0 executed: 0 num_reg_dependent: 0 num_mem_ops: 0 event: 262572363
[cpu0_IFETCH] entry:  16 instr_id: 123722100 fetched: 2 scheduled: 0 executed: 0 num_reg_dependent: 0 num_mem_ops: 0 event: 262572363
[cpu0_IFETCH] entry:  17 instr_id: 123722101 fetched: 2 scheduled: 0 executed: 0 num_reg_dependent: 0 num_mem_ops: 0 event: 262572363
[cpu0_IFETCH] entry:  18 instr_id: 123722102 fetched: 2 scheduled: 0 executed: 0 num_reg_dependent: 0 num_mem_ops: 0 event: 262572363
[cpu0_IFETCH] entry:  19 instr_id: 123722103 fetched: 2 scheduled: 0 executed: 0 num_reg_dependent: 0 num_mem_ops: 0 event: 262572363
[cpu0_IFETCH] entry:  20 instr_id: 123722104 fetched: 2 scheduled: 0 executed: 0 num_reg_dependent: 0 num_mem_ops: 0 event: 262572363
[cpu0_IFETCH] entry:  21 instr_id: 123722105 fetched: 2 scheduled: 0 executed: 0 num_reg_dependent: 0 num_mem_ops: 0 event: 262572364
[cpu0_IFETCH] entry:  22 instr_id: 123722106 fetched: 2 scheduled: 0 executed: 0 num_reg_dependent: 0 num_mem_ops: 0 event: 262572364
[cpu0_IFETCH] entry:  23 instr_id: 123722107 fetched: 2 scheduled: 0 executed: 0 num_reg_dependent: 0 num_mem_ops: 1 event: 262572364
[cpu0_IFETCH] entry:  24 instr_id: 123722108 fetched: 2 scheduled: 0 executed: 0 num_reg_dependent: 0 num_mem_ops: 1 event: 262572364
[cpu0_IFETCH] entry:  25 instr_id: 123722109 fetched: 2 scheduled: 0 executed: 0 num_reg_dependent: 0 num_mem_ops: 0 event: 262572364
[cpu0_IFETCH] entry:  26 instr_id: 123722110 fetched: 2 scheduled: 0 executed: 0 num_reg_dependent: 0 num_mem_ops: 1 event: 262572364
[cpu0_IFETCH] entry:  27 instr_id: 123722111 fetched: 2 scheduled: 0 executed: 0 num_reg_dependent: 0 num_mem_ops: 1 event: 262572365
[cpu0_IFETCH] entry:  28 instr_id: 123722112 fetched: 2 scheduled: 0 executed: 0 num_reg_dependent: 0 num_mem_ops: 1 event: 262572365
[cpu0_IFETCH] entry:  29 instr_id: 123722113 fetched: 2 scheduled: 0 executed: 0 num_reg_dependent: 0 num_mem_ops: 0 event: 262572365
[cpu0_IFETCH] entry:  30 instr_id: 123722114 fetched: 2 scheduled: 0 executed: 0 num_reg_dependent: 0 num_mem_ops: 0 event: 262572365
[cpu0_IFETCH] entry:  31 instr_id: 123722115 fetched: 2 scheduled: 0 executed: 0 num_reg_dependent: 0 num_mem_ops: 0 event: 262572365
[cpu0_IFETCH] entry:  32 instr_id: 123722116 fetched: 2 scheduled: 0 executed: 0 num_reg_dependent: 0 num_mem_ops: 0 event: 262572365
[cpu0_IFETCH] entry:  33 instr_id: 123722117 fetched: 2 scheduled: 0 executed: 0 num_reg_dependent: 0 num_mem_ops: 0 event: 262572366
[cpu0_IFETCH] entry:  34 instr_id: 123722118 fetched: 2 scheduled: 0 executed: 0 num_reg_dependent: 0 num_mem_ops: 0 event: 262572366
[cpu0_IFETCH] entry:  35 instr_id: 123722119 fetched: 2 scheduled: 0 executed: 0 num_reg_dependent: 0 num_mem_ops: 0 event: 262572366
[cpu0_IFETCH] entry:  36 instr_id: 123722120 fetched: 2 scheduled: 0 executed: 0 num_reg_dependent: 0 num_mem_ops: 0 event: 262572366
[cpu0_IFETCH] entry:  37 instr_id: 123722121 fetched: 2 scheduled: 0 executed: 0 num_reg_dependent: 0 num_mem_ops: 0 event: 262572366
[cpu0_IFETCH] entry:  38 instr_id: 123722122 fetched: 2 scheduled: 0 executed: 0 num_reg_dependent: 0 num_mem_ops: 0 event: 262572366
[cpu0_IFETCH] entry:  39 instr_id: 123722123 fetched: 2 scheduled: 0 executed: 0 num_reg_dependent: 0 num_mem_ops: 0 event: 262572367
[cpu0_IFETCH] entry:  40 instr_id: 123722124 fetched: 2 scheduled: 0 executed: 0 num_reg_dependent: 0 num_mem_ops: 0 event: 262572367
[cpu0_IFETCH] entry:  41 instr_id: 123722125 fetched: 2 scheduled: 0 executed: 0 num_reg_dependent: 0 num_mem_ops: 0 event: 262572367
[cpu0_IFETCH] entry:  42 instr_id: 123722126 fetched: 2 scheduled: 0 executed: 0 num_reg_dependent: 0 num_mem_ops: 0 event: 262572367
[cpu0_IFETCH] entry:  43 instr_id: 123722127 fetched: 2 scheduled: 0 executed: 0 num_reg_dependent: 0 num_mem_ops: 0 event: 262572367
[cpu0_IFETCH] entry:  44 instr_id: 123722128 fetched: 2 scheduled: 0 executed: 0 num_reg_dependent: 0 num_mem_ops: 1 event: 262572367
[cpu0_IFETCH] entry:  45 instr_id: 123722129 fetched: 2 scheduled: 0 executed: 0 num_reg_dependent: 0 num_mem_ops: 1 event: 262572368
[cpu0_IFETCH] entry:  46 instr_id: 123722130 fetched: 2 scheduled: 0 executed: 0 num_reg_dependent: 0 num_mem_ops: 1 event: 262572368
[cpu0_IFETCH] entry:  47 instr_id: 123722131 fetched: 2 scheduled: 0 executed: 0 num_reg_dependent: 0 num_mem_ops: 1 event: 262572368
[cpu0_IFETCH] entry:  48 instr_id: 123722132 fetched: 2 scheduled: 0 executed: 0 num_reg_dependent: 0 num_mem_ops: 0 event: 262572368
[cpu0_IFETCH] entry:  49 instr_id: 123722133 fetched: 2 scheduled: 0 executed: 0 num_reg_dependent: 0 num_mem_ops: 0 event: 262572368
[cpu0_IFETCH] entry:  50 instr_id: 123722134 fetched: 2 scheduled: 0 executed: 0 num_reg_dependent: 0 num_mem_ops: 0 event: 262572368
[cpu0_IFETCH] entry:  51 instr_id: 123722135 fetched: 2 scheduled: 0 executed: 0 num_reg_dependent: 0 num_mem_ops: 0 event: 262572369
[cpu0_IFETCH] entry:  52 instr_id: 123722136 fetched: 2 scheduled: 0 executed: 0 num_reg_dependent: 0 num_mem_ops: 0 event: 262572369
[cpu0_IFETCH] entry:  53 instr_id: 123722137 fetched: 2 scheduled: 0 executed: 0 num_reg_dependent: 0 num_mem_ops: 0 event: 262572369
[cpu0_IFETCH] entry:  54 instr_id: 123722138 fetched: 2 scheduled: 0 executed: 0 num_reg_dependent: 0 num_mem_ops: 0 event: 262572369
[cpu0_IFETCH] entry:  55 instr_id: 123722139 fetched: 2 scheduled: 0 executed: 0 num_reg_dependent: 0 num_mem_ops: 0 event: 262572369
[cpu0_IFETCH] entry:  56 instr_id: 123722140 fetched: 2 scheduled: 0 executed: 0 num_reg_dependent: 0 num_mem_ops: 0 event: 262572369
[cpu0_IFETCH] entry:  57 instr_id: 123722141 fetched: 2 scheduled: 0 executed: 0 num_reg_dependent: 0 num_mem_ops: 0 event: 262572370
[cpu0_IFETCH] entry:  58 instr_id: 123722142 fetched: 2 scheduled: 0 executed: 0 num_reg_dependent: 0 num_mem_ops: 0 event: 262572370
[cpu0_IFETCH] entry:  59 instr_id: 123722143 fetched: 2 scheduled: 0 executed: 0 num_reg_dependent: 0 num_mem_ops: 0 event: 262572370
[cpu0_IFETCH] entry:  60 instr_id: 123722144 fetched: 2 scheduled: 0 executed: 0 num_reg_dependent: 0 num_mem_ops: 0 event: 262572370
[cpu0_IFETCH] entry:  61 instr_id: 123722145 fetched: 2 scheduled: 0 executed: 0 num_reg_dependent: 0 num_mem_ops: 0 event: 262572370
[cpu0_IFETCH] entry:  62 instr_id: 123722146 fetched: 2 scheduled: 0 executed: 0 num_reg_dependent: 0 num_mem_ops: 0 event: 262572370
[cpu0_IFETCH] entry:  63 instr_id: 123722147 fetched: 2 scheduled: 0 executed: 0 num_reg_dependent: 0 num_mem_ops: 1 event: 262572371
[cpu0_IFETCH] entry:  64 instr_id: 123722148 fetched: 2 scheduled: 0 executed: 0 num_reg_dependent: 0 num_mem_ops: 1 event: 262572371
[cpu0_IFETCH] entry:  65 instr_id: 123722149 fetched: 2 scheduled: 0 executed: 0 num_reg_dependent: 0 num_mem_ops: 1 event: 262572371
[cpu0_IFETCH] entry:  66 instr_id: 123722150 fetched: 2 scheduled: 0 executed: 0 num_reg_dependent: 0 num_mem_ops: 1 event: 262572371
[cpu0_IFETCH] entry:  67 instr_id: 123722151 fetched: 2 scheduled: 0 executed: 0 num_reg_dependent: 0 num_mem_ops: 0 event: 262572371
[cpu0_IFETCH] entry:  68 instr_id: 123722152 fetched: 2 scheduled: 0 executed: 0 num_reg_dependent: 0 num_mem_ops: 0 event: 262572371
[cpu0_IFETCH] entry:  69 instr_id: 123722153 fetched: 2 scheduled: 0 executed: 0 num_reg_dependent: 0 num_mem_ops: 0 event: 262572372
[cpu0_IFETCH] entry:  70 instr_id: 123722154 fetched: 2 scheduled: 0 executed: 0 num_reg_dependent: 0 num_mem_ops: 0 event: 262572372
[cpu0_IFETCH] entry:  71 instr_id: 123722155 fetched: 2 scheduled: 0 executed: 0 num_reg_dependent: 0 num_mem_ops: 0 event: 262572372
[cpu0_IFETCH] entry:  72 instr_id: 123722156 fetched: 2 scheduled: 0 executed: 0 num_reg_dependent: 0 num_mem_ops: 0 event: 262572372
[cpu0_IFETCH] entry:  73 instr_id: 123722157 fetched: 2 scheduled: 0 executed: 0 num_reg_dependent: 0 num_mem_ops: 0 event: 262572372
[cpu0_IFETCH] entry:  74 instr_id: 123722158 fetched: 2 scheduled: 0 executed: 0 num_reg_dependent: 0 num_mem_ops: 0 event: 262572372
[cpu0_IFETCH] entry:  75 instr_id: 123722159 fetched: 2 scheduled: 0 executed: 0 num_reg_dependent: 0 num_mem_ops: 0 event: 262572373
[cpu0_IFETCH] entry:  76 instr_id: 123722160 fetched: 2 scheduled: 0 executed: 0 num_reg_dependent: 0 num_mem_ops: 0 event: 262572373
[cpu0_IFETCH] entry:  77 instr_id: 123722161 fetched: 2 scheduled: 0 executed: 0 num_reg_dependent: 0 num_mem_ops: 0 event: 262572373
[cpu0_IFETCH] entry:  78 instr_id: 123722162 fetched: 2 scheduled: 0 executed: 0 num_reg_dependent: 0 num_mem_ops: 0 event: 262572373
[cpu0_IFETCH] entry:  79 instr_id: 123722163 fetched: 2 scheduled: 0 executed: 0 num_reg_dependent: 0 num_mem_ops: 0 event: 262572373
[cpu0_IFETCH] entry:  80 instr_id: 123722164 fetched: 2 scheduled: 0 executed: 0 num_reg_dependent: 0 num_mem_ops: 0 event: 262572373
[cpu0_IFETCH] entry:  81 instr_id: 123722165 fetched: 2 scheduled: 0 executed: 0 num_reg_dependent: 0 num_mem_ops: 0 event: 262572374
[cpu0_IFETCH] entry:  82 instr_id: 123722166 fetched: 2 scheduled: 0 executed: 0 num_reg_dependent: 0 num_mem_ops: 1 event: 262572374
[cpu0_IFETCH] entry:  83 instr_id: 123722167 fetched: 2 scheduled: 0 executed: 0 num_reg_dependent: 0 num_mem_ops: 1 event: 262572374
[cpu0_IFETCH] entry:  84 instr_id: 123722168 fetched: 2 scheduled: 0 executed: 0 num_reg_dependent: 0 num_mem_ops: 1 event: 262572374
[cpu0_IFETCH] entry:  85 instr_id: 123722169 fetched: 2 scheduled: 0 executed: 0 num_reg_dependent: 0 num_mem_ops: 1 event: 262572374
[cpu0_IFETCH] entry:  86 instr_id: 123722170 fetched: 2 scheduled: 0 executed: 0 num_reg_dependent: 0 num_mem_ops: 0 event: 262572374
[cpu0_IFETCH] entry:  87 instr_id: 123722171 fetched: 2 scheduled: 0 executed: 0 num_reg_dependent: 0 num_mem_ops: 0 event: 262572375
[cpu0_IFETCH] entry:  88 instr_id: 123722172 fetched: 2 scheduled: 0 executed: 0 num_reg_dependent: 0 num_mem_ops: 0 event: 262572375
[cpu0_IFETCH] entry:  89 instr_id: 123722173 fetched: 2 scheduled: 0 executed: 0 num_reg_dependent: 0 num_mem_ops: 0 event: 262572375
[cpu0_IFETCH] entry:  90 instr_id: 123722174 fetched: 2 scheduled: 0 executed: 0 num_reg_dependent: 0 num_mem_ops: 0 event: 262572375
[cpu0_IFETCH] entry:  91 instr_id: 123722175 fetched: 2 scheduled: 0 executed: 0 num_reg_dependent: 0 num_mem_ops: 0 event: 262572375
[cpu0_IFETCH] entry:  92 instr_id: 123722176 fetched: 2 scheduled: 0 executed: 0 num_reg_dependent: 0 num_mem_ops: 0 event: 262572375
[cpu0_IFETCH] entry:  93 instr_id: 123722177 fetched: 2 scheduled: 0 executed: 0 num_reg_dependent: 0 num_mem_ops: 0 event: 262572376
[cpu0_IFETCH] entry:  94 instr_id: 123722178 fetched: 2 scheduled: 0 executed: 0 num_reg_dependent: 0 num_mem_ops: 0 event: 262572376
[cpu0_IFETCH] entry:  95 instr_id: 123722179 fetched: 2 scheduled: 0 executed: 0 num_reg_dependent: 0 num_mem_ops: 0 event: 262572376
[cpu0_IFETCH] entry:  96 instr_id: 123722180 fetched: 2 scheduled: 0 executed: 0 num_reg_dependent: 0 num_mem_ops: 0 event: 262572376
[cpu0_IFETCH] entry:  97 instr_id: 123722181 fetched: 2 scheduled: 0 executed: 0 num_reg_dependent: 0 num_mem_ops: 0 event: 262572376
[cpu0_IFETCH] entry:  98 instr_id: 123722182 fetched: 2 scheduled: 0 executed: 0 num_reg_dependent: 0 num_mem_ops: 0 event: 262572376
[cpu0_IFETCH] entry:  99 instr_id: 123722183 fetched: 2 scheduled: 0 executed: 0 num_reg_dependent: 0 num_mem_ops: 0 event: 262572377
[cpu0_IFETCH] entry: 100 instr_id: 123722184 fetched: 2 scheduled: 0 executed: 0 num_reg_dependent: 0 num_mem_ops: 0 event: 262572377
[cpu0_IFETCH] entry: 101 instr_id: 123722185 fetched: 2 scheduled: 0 executed: 0 num_reg_dependent: 0 num_mem_ops: 1 event: 262572377
[cpu0_IFETCH] entry: 102 instr_id: 123722186 fetched: 2 scheduled: 0 executed: 0 num_reg_dependent: 0 num_mem_ops: 1 event: 262572377
[cpu0_IFETCH] entry: 103 instr_id: 123722187 fetched: 2 scheduled: 0 executed: 0 num_reg_dependent: 0 num_mem_ops: 1 event: 262572377
[cpu0_IFETCH] entry: 104 instr_id: 123722188 fetched: 2 scheduled: 0 executed: 0 num_reg_dependent: 0 num_mem_ops: 1 event: 262572377
[cpu0_IFETCH] entry: 105 instr_id: 123722189 fetched: 2 scheduled: 0 executed: 0 num_reg_dependent: 0 num_mem_ops: 0 event: 262572378
[cpu0_IFETCH] entry: 106 instr_id: 123722190 fetched: 2 scheduled: 0 executed: 0 num_reg_dependent: 0 num_mem_ops: 0 event: 262572378
[cpu0_IFETCH] entry: 107 instr_id: 123722191 fetched: 2 scheduled: 0 executed: 0 num_reg_dependent: 0 num_mem_ops: 0 event: 262572378
[cpu0_IFETCH] entry: 108 instr_id: 123722192 fetched: 2 scheduled: 0 executed: 0 num_reg_dependent: 0 num_mem_ops: 0 event: 262572378
[cpu0_IFETCH] entry: 109 instr_id: 123722193 fetched: 2 scheduled: 0 executed: 0 num_reg_dependent: 0 num_mem_ops: 0 event: 262572378
[cpu0_IFETCH] entry: 110 instr_id: 123722194 fetched: 2 scheduled: 0 executed: 0 num_reg_dependent: 0 num_mem_ops: 0 event: 262572378
[cpu0_IFETCH] entry: 111 instr_id: 123722195 fetched: 2 scheduled: 0 executed: 0 num_reg_dependent: 0 num_mem_ops: 0 event: 262572379
[cpu0_IFETCH] entry: 112 instr_id: 123722196 fetched: 2 scheduled: 0 executed: 0 num_reg_dependent: 0 num_mem_ops: 0 event: 262572379
[cpu0_IFETCH] entry: 113 instr_id: 123722197 fetched: 2 scheduled: 0 executed: 0 num_reg_dependent: 0 num_mem_ops: 0 event: 262572379
[cpu0_IFETCH] entry: 114 instr_id: 123722198 fetched: 2 scheduled: 0 executed: 0 num_reg_dependent: 0 num_mem_ops: 0 event: 262572379
[cpu0_IFETCH] entry: 115 instr_id: 123722199 fetched: 2 scheduled: 0 executed: 0 num_reg_dependent: 0 num_mem_ops: 0 event: 262572379
[cpu0_IFETCH] entry: 116 instr_id: 123722200 fetched: 2 scheduled: 0 executed: 0 num_reg_dependent: 0 num_mem_ops: 0 event: 262572379
[cpu0_IFETCH] entry: 117 instr_id: 123722201 fetched: 2 scheduled: 0 executed: 0 num_reg_dependent: 0 num_mem_ops: 0 event: 262572380
[cpu0_IFETCH] entry: 118 instr_id: 123722202 fetched: 2 scheduled: 0 executed: 0 num_reg_dependent: 0 num_mem_ops: 0 event: 262572380
[cpu0_IFETCH] entry: 119 instr_id: 123722203 fetched: 2 scheduled: 0 executed: 0 num_reg_dependent: 0 num_mem_ops: 0 event: 262572380
[cpu0_IFETCH] entry: 120 instr_id: 123722204 fetched: 2 scheduled: 0 executed: 0 num_reg_dependent: 0 num_mem_ops: 1 event: 262572380
[cpu0_IFETCH] entry: 121 instr_id: 123722205 fetched: 2 scheduled: 0 executed: 0 num_reg_dependent: 0 num_mem_ops: 1 event: 262572380
[cpu0_IFETCH] entry: 122 instr_id: 123722206 fetched: 2 scheduled: 0 executed: 0 num_reg_dependent: 0 num_mem_ops: 1 event: 262572380
[cpu0_IFETCH] entry: 123 instr_id: 123722207 fetched: 2 scheduled: 0 executed: 0 num_reg_dependent: 0 num_mem_ops: 1 event: 262572381
[cpu0_IFETCH] entry: 124 instr_id: 123722208 fetched: 2 scheduled: 0 executed: 0 num_reg_dependent: 0 num_mem_ops: 0 event: 262572381
[cpu0_IFETCH] entry: 125 instr_id: 123722209 fetched: 2 scheduled: 0 executed: 0 num_reg_dependent: 0 num_mem_ops: 0 event: 262572381
[cpu0_IFETCH] entry: 126 instr_id: 123722210 fetched: 2 scheduled: 0 executed: 0 num_reg_dependent: 0 num_mem_ops: 0 event: 262572381
[cpu0_IFETCH] entry: 127 instr_id: 123722211 fetched: 2 scheduled: 0 executed: 0 num_reg_dependent: 0 num_mem_ops: 0 event: 262572381
[cpu0_IFETCH] entry: 128 instr_id: 123722212 fetched: 2 scheduled: 0 executed: 0 num_reg_dependent: 0 num_mem_ops: 0 event: 262572381
[cpu0_IFETCH] entry: 129 instr_id: 123722213 fetched: 2 scheduled: 0 executed: 0 num_reg_dependent: 0 num_mem_ops: 0 event: 262572382
[cpu0_IFETCH] entry: 130 instr_id: 123722214 fetched: 2 scheduled: 0 executed: 0 num_reg_dependent: 0 num_mem_ops: 0 event: 262572382
[cpu0_IFETCH] entry: 131 instr_id: 123722215 fetched: 2 scheduled: 0 executed: 0 num_reg_dependent: 0 num_mem_ops: 0 event: 262572382
[cpu0_IFETCH] entry: 132 instr_id: 123722216 fetched: 2 scheduled: 0 executed: 0 num_reg_dependent: 0 num_mem_ops: 0 event: 262572382
[cpu0_IFETCH] entry: 133 instr_id: 123722217 fetched: 2 scheduled: 0 executed: 0 num_reg_dependent: 0 num_mem_ops: 0 event: 262572382
[cpu0_IFETCH] entry: 134 instr_id: 123722218 fetched: 2 scheduled: 0 executed: 0 num_reg_dependent: 0 num_mem_ops: 0 event: 262572382
[cpu0_IFETCH] entry: 135 instr_id: 123722219 fetched: 2 scheduled: 0 executed: 0 num_reg_dependent: 0 num_mem_ops: 0 event: 262572383
[cpu0_IFETCH] entry: 136 instr_id: 123722220 fetched: 2 scheduled: 0 executed: 0 num_reg_dependent: 0 num_mem_ops: 0 event: 262572383
[cpu0_IFETCH] entry: 137 instr_id: 123722221 fetched: 2 scheduled: 0 executed: 0 num_reg_dependent: 0 num_mem_ops: 0 event: 262572383
[cpu0_IFETCH] entry: 138 instr_id: 123722222 fetched: 2 scheduled: 0 executed: 0 num_reg_dependent: 0 num_mem_ops: 0 event: 262572383
[cpu0_IFETCH] entry: 139 instr_id: 123722223 fetched: 2 scheduled: 0 executed: 0 num_reg_dependent: 0 num_mem_ops: 1 event: 262572383
[cpu0_IFETCH] entry: 140 instr_id: 123722224 fetched: 2 scheduled: 0 executed: 0 num_reg_dependent: 0 num_mem_ops: 1 event: 262572383
[cpu0_IFETCH] entry: 141 instr_id: 123722225 fetched: 2 scheduled: 0 executed: 0 num_reg_dependent: 0 num_mem_ops: 1 event: 262572384
[cpu0_IFETCH] entry: 142 instr_id: 123722226 fetched: 2 scheduled: 0 executed: 0 num_reg_dependent: 0 num_mem_ops: 1 event: 262572384
[cpu0_IFETCH] entry: 143 instr_id: 123722227 fetched: 2 scheduled: 0 executed: 0 num_reg_dependent: 0 num_mem_ops: 0 event: 262572384
[cpu0_IFETCH] entry: 144 instr_id: 123722228 fetched: 2 scheduled: 0 executed: 0 num_reg_dependent: 0 num_mem_ops: 0 event: 262572384
[cpu0_IFETCH] entry: 145 instr_id: 123722229 fetched: 2 scheduled: 0 executed: 0 num_reg_dependent: 0 num_mem_ops: 0 event: 262572384
[cpu0_IFETCH] entry: 146 instr_id: 123722230 fetched: 2 scheduled: 0 executed: 0 num_reg_dependent: 0 num_mem_ops: 0 event: 262572384
[cpu0_IFETCH] entry: 147 instr_id: 123722231 fetched: 2 scheduled: 0 executed: 0 num_reg_dependent: 0 num_mem_ops: 0 event: 262572385
[cpu0_IFETCH] entry: 148 instr_id: 123722232 fetched: 2 scheduled: 0 executed: 0 num_reg_dependent: 0 num_mem_ops: 0 event: 262572385
[cpu0_IFETCH] entry: 149 instr_id: 123722233 fetched: 2 scheduled: 0 executed: 0 num_reg_dependent: 0 num_mem_ops: 0 event: 262572385
[cpu0_IFETCH] entry: 150 instr_id: 123722234 fetched: 2 scheduled: 0 executed: 0 num_reg_dependent: 0 num_mem_ops: 0 event: 262572385
[cpu0_IFETCH] entry: 151 instr_id: 123722235 fetched: 2 scheduled: 0 executed: 0 num_reg_dependent: 0 num_mem_ops: 0 event: 262572385
[cpu0_IFETCH] entry: 152 instr_id: 123722236 fetched: 2 scheduled: 0 executed: 0 num_reg_dependent: 0 num_mem_ops: 0 event: 262572385
[cpu0_IFETCH] entry: 153 instr_id: 123722237 fetched: 2 scheduled: 0 executed: 0 num_reg_dependent: 0 num_mem_ops: 0 event: 262572386
[cpu0_IFETCH] entry: 154 instr_id: 123722238 fetched: 2 scheduled: 0 executed: 0 num_reg_dependent: 0 num_mem_ops: 0 event: 262572386
[cpu0_IFETCH] entry: 155 instr_id: 123722239 fetched: 2 scheduled: 0 executed: 0 num_reg_dependent: 0 num_mem_ops: 0 event: 262572386
[cpu0_IFETCH] entry: 156 instr_id: 123722240 fetched: 2 scheduled: 0 executed: 0 num_reg_dependent: 0 num_mem_ops: 0 event: 262572386
[cpu0_IFETCH] entry: 157 instr_id: 123722241 fetched: 2 scheduled: 0 executed: 0 num_reg_dependent: 0 num_mem_ops: 0 event: 262572386
[cpu0_IFETCH] entry: 158 instr_id: 123722242 fetched: 2 scheduled: 0 executed: 0 num_reg_dependent: 0 num_mem_ops: 1 event: 262572386
[cpu0_IFETCH] entry: 159 instr_id: 123722243 fetched: 2 scheduled: 0 executed: 0 num_reg_dependent: 0 num_mem_ops: 0 event: 262572387
[cpu0_IFETCH] entry: 160 instr_id: 123722244 fetched: 2 scheduled: 0 executed: 0 num_reg_dependent: 0 num_mem_ops: 1 event: 262572388
[cpu0_IFETCH] entry: 161 instr_id: 123722245 fetched: 2 scheduled: 0 executed: 0 num_reg_dependent: 0 num_mem_ops: 0 event: 262572388
[cpu0_IFETCH] entry: 162 instr_id: 123722246 fetched: 2 scheduled: 0 executed: 0 num_reg_dependent: 0 num_mem_ops: 0 event: 262572388
[cpu0_IFETCH] entry: 163 instr_id: 123722247 fetched: 2 scheduled: 0 executed: 0 num_reg_dependent: 0 num_mem_ops: 1 event: 262572388
[cpu0_IFETCH] entry: 164 instr_id: 123722248 fetched: 2 scheduled: 0 executed: 0 num_reg_dependent: 0 num_mem_ops: 1 event: 262572388
[cpu0_IFETCH] entry: 165 instr_id: 123722249 fetched: 2 scheduled: 0 executed: 0 num_reg_dependent: 0 num_mem_ops: 1 event: 262572388
[cpu0_IFETCH] entry: 166 instr_id: 123722250 fetched: 2 scheduled: 0 executed: 0 num_reg_dependent: 0 num_mem_ops: 1 event: 262572388
[cpu0_IFETCH] entry: 167 instr_id: 123722251 fetched: 2 scheduled: 0 executed: 0 num_reg_dependent: 0 num_mem_ops: 1 event: 262572388
[cpu0_IFETCH] entry: 168 instr_id: 123722252 fetched: 2 scheduled: 0 executed: 0 num_reg_dependent: 0 num_mem_ops: 1 event: 262572388
[cpu0_IFETCH] entry: 169 instr_id: 123722253 fetched: 2 scheduled: 0 executed: 0 num_reg_dependent: 0 num_mem_ops: 0 event: 262572388
[cpu0_IFETCH] entry: 170 instr_id: 123722254 fetched: 2 scheduled: 0 executed: 0 num_reg_dependent: 0 num_mem_ops: 0 event: 262572388
[cpu0_IFETCH] entry: 171 instr_id: 123722255 fetched: 2 scheduled: 0 executed: 0 num_reg_dependent: 0 num_mem_ops: 1 event: 262572389
[cpu0_IFETCH] entry: 172 instr_id: 123722256 fetched: 2 scheduled: 0 executed: 0 num_reg_dependent: 0 num_mem_ops: 0 event: 262572389
[cpu0_IFETCH] entry: 173 instr_id: 123722257 fetched: 2 scheduled: 0 executed: 0 num_reg_dependent: 0 num_mem_ops: 1 event: 262572389
[cpu0_IFETCH] entry: 174 instr_id: 123722258 fetched: 2 scheduled: 0 executed: 0 num_reg_dependent: 0 num_mem_ops: 0 event: 262572482
[cpu0_IFETCH] entry: 175 instr_id: 123722259 fetched: 2 scheduled: 0 executed: 0 num_reg_dependent: 0 num_mem_ops: 0 event: 262572482
[cpu0_IFETCH] entry: 176 instr_id: 123722260 fetched: 2 scheduled: 0 executed: 0 num_reg_dependent: 0 num_mem_ops: 0 event: 262572482
[cpu0_IFETCH] entry: 177 instr_id: 123722261 fetched: 2 scheduled: 0 executed: 0 num_reg_dependent: 0 num_mem_ops: 0 event: 262572482
[cpu0_IFETCH] entry: 178 instr_id: 123722262 fetched: 2 scheduled: 0 executed: 0 num_reg_dependent: 0 num_mem_ops: 1 event: 262572483
[cpu0_IFETCH] entry: 179 instr_id: 123722263 fetched: 2 scheduled: 0 executed: 0 num_reg_dependent: 0 num_mem_ops: 1 event: 262572483
[cpu0_IFETCH] entry: 180 instr_id: 123722264 fetched: 2 scheduled: 0 executed: 0 num_reg_dependent: 0 num_mem_ops: 0 event: 262572483
[cpu0_IFETCH] entry: 181 instr_id: 123722265 fetched: 2 scheduled: 0 executed: 0 num_reg_dependent: 0 num_mem_ops: 0 event: 262572483
[cpu0_IFETCH] entry: 182 instr_id: 123722266 fetched: 2 scheduled: 0 executed: 0 num_reg_dependent: 0 num_mem_ops: 1 event: 262572483
[cpu0_IFETCH] entry: 183 instr_id: 123722267 fetched: 2 scheduled: 0 executed: 0 num_reg_dependent: 0 num_mem_ops: 0 event: 262572484
[cpu0_IFETCH] entry: 184 instr_id: 123722268 fetched: 2 scheduled: 0 executed: 0 num_reg_dependent: 0 num_mem_ops: 0 event: 262572484
[cpu0_IFETCH] entry: 185 instr_id: 123722269 fetched: 2 scheduled: 0 executed: 0 num_reg_dependent: 0 num_mem_ops: 1 event: 262572484
[cpu0_IFETCH] entry: 186 instr_id: 123722270 fetched: 2 scheduled: 0 executed: 0 num_reg_dependent: 0 num_mem_ops: 0 event: 262572484
[cpu0_IFETCH] entry: 187 instr_id: 123722271 fetched: 2 scheduled: 0 executed: 0 num_reg_dependent: 0 num_mem_ops: 0 event: 262572485
[cpu0_IFETCH] entry: 188 instr_id: 123722272 fetched: 2 scheduled: 0 executed: 0 num_reg_dependent: 0 num_mem_ops: 0 event: 262572485
[cpu0_IFETCH] entry: 189 instr_id: 123722273 fetched: 2 scheduled: 0 executed: 0 num_reg_dependent: 0 num_mem_ops: 0 event: 262572486
[cpu0_IFETCH] entry: 190 instr_id: 123722274 fetched: 2 scheduled: 0 executed: 0 num_reg_dependent: 0 num_mem_ops: 0 event: 262572486
[cpu0_IFETCH] entry: 191 instr_id: 123722275 fetched: 2 scheduled: 0 executed: 0 num_reg_dependent: 0 num_mem_ops: 1 event: 262572487

[cpu0_DECODE] entry:   0 instr_id: 123721940 fetched: 2 scheduled: 0 executed: 0 num_reg_dependent: 0 num_mem_ops: 1 event: 262572367
[cpu0_DECODE] entry:   1 instr_id: 123721941 fetched: 2 scheduled: 0 executed: 0 num_reg_dependent: 0 num_mem_ops: 1 event: 262572367
[cpu0_DECODE] entry:   2 instr_id: 123721942 fetched: 2 scheduled: 0 executed: 0 num_reg_dependent: 0 num_mem_ops: 1 event: 262572367
[cpu0_DECODE] entry:   3 instr_id: 123721943 fetched: 2 scheduled: 0 executed: 0 num_reg_dependent: 0 num_mem_ops: 1 event: 262572368
[cpu0_DECODE] entry:   4 instr_id: 123721944 fetched: 2 scheduled: 0 executed: 0 num_reg_dependent: 0 num_mem_ops: 0 event: 262572368
[cpu0_DECODE] entry:   5 instr_id: 123721945 fetched: 2 scheduled: 0 executed: 0 num_reg_dependent: 0 num_mem_ops: 0 event: 262572368
[cpu0_DECODE] entry:   6 instr_id: 123721946 fetched: 2 scheduled: 0 executed: 0 num_reg_dependent: 0 num_mem_ops: 0 event: 262572368
[cpu0_DECODE] entry:   7 instr_id: 123721947 fetched: 2 scheduled: 0 executed: 0 num_reg_dependent: 0 num_mem_ops: 0 event: 262572368
[cpu0_DECODE] entry:   8 instr_id: 123721948 fetched: 2 scheduled: 0 executed: 0 num_reg_dependent: 0 num_mem_ops: 0 event: 262572368
[cpu0_DECODE] entry:   9 instr_id: 123721949 fetched: 2 scheduled: 0 executed: 0 num_reg_dependent: 0 num_mem_ops: 0 event: 262572369
[cpu0_DECODE] entry:  10 instr_id: 123721950 fetched: 2 scheduled: 0 executed: 0 num_reg_dependent: 0 num_mem_ops: 0 event: 262572369
[cpu0_DECODE] entry:  11 instr_id: 123721951 fetched: 2 scheduled: 0 executed: 0 num_reg_dependent: 0 num_mem_ops: 0 event: 262572369
[cpu0_DECODE] entry:  12 instr_id: 123721952 fetched: 2 scheduled: 0 executed: 0 num_reg_dependent: 0 num_mem_ops: 0 event: 262572369
[cpu0_DECODE] entry:  13 instr_id: 123721953 fetched: 2 scheduled: 0 executed: 0 num_reg_dependent: 0 num_mem_ops: 0 event: 262572369
[cpu0_DECODE] entry:  14 instr_id: 123721954 fetched: 2 scheduled: 0 executed: 0 num_reg_dependent: 0 num_mem_ops: 0 event: 262572369
[cpu0_DECODE] entry:  15 instr_id: 123721955 fetched: 2 scheduled: 0 executed: 0 num_reg_dependent: 0 num_mem_ops: 0 event: 262572370
[cpu0_DECODE] entry:  16 instr_id: 123721956 fetched: 2 scheduled: 0 executed: 0 num_reg_dependent: 0 num_mem_ops: 0 event: 262572370
[cpu0_DECODE] entry:  17 instr_id: 123721957 fetched: 2 scheduled: 0 executed: 0 num_reg_dependent: 0 num_mem_ops: 0 event: 262572370
[cpu0_DECODE] entry:  18 instr_id: 123721958 fetched: 2 scheduled: 0 executed: 0 num_reg_dependent: 0 num_mem_ops: 0 event: 262572370
[cpu0_DECODE] entry:  19 instr_id: 123721959 fetched: 2 scheduled: 0 executed: 0 num_reg_dependent: 0 num_mem_ops: 1 event: 262572370
[cpu0_DECODE] entry:  20 instr_id: 123721960 fetched: 2 scheduled: 0 executed: 0 num_reg_dependent: 0 num_mem_ops: 1 event: 262572370
[cpu0_DECODE] entry:  21 instr_id: 123721961 fetched: 2 scheduled: 0 executed: 0 num_reg_dependent: 0 num_mem_ops: 1 event: 262572371
[cpu0_DECODE] entry:  22 instr_id: 123721962 fetched: 2 scheduled: 0 executed: 0 num_reg_dependent: 0 num_mem_ops: 1 event: 262572371
[cpu0_DECODE] entry:  23 instr_id: 123721963 fetched: 2 scheduled: 0 executed: 0 num_reg_dependent: 0 num_mem_ops: 0 event: 262572371
[cpu0_DECODE] entry:  24 instr_id: 123721964 fetched: 2 scheduled: 0 executed: 0 num_reg_dependent: 0 num_mem_ops: 0 event: 262572371
[cpu0_DECODE] entry:  25 instr_id: 123721965 fetched: 2 scheduled: 0 executed: 0 num_reg_dependent: 0 num_mem_ops: 0 event: 262572371
[cpu0_DECODE] entry:  26 instr_id: 123721966 fetched: 2 scheduled: 0 executed: 0 num_reg_dependent: 0 num_mem_ops: 0 event: 262572371
[cpu0_DECODE] entry:  27 instr_id: 123721967 fetched: 2 scheduled: 0 executed: 0 num_reg_dependent: 0 num_mem_ops: 0 event: 262572372
[cpu0_DECODE] entry:  28 instr_id: 123721968 fetched: 2 scheduled: 0 executed: 0 num_reg_dependent: 0 num_mem_ops: 0 event: 262572372
[cpu0_DECODE] entry:  29 instr_id: 123721969 fetched: 2 scheduled: 0 executed: 0 num_reg_dependent: 0 num_mem_ops: 0 event: 262572372
[cpu0_DECODE] entry:  30 instr_id: 123721970 fetched: 2 scheduled: 0 executed: 0 num_reg_dependent: 0 num_mem_ops: 0 event: 262572372
[cpu0_DECODE] entry:  31 instr_id: 123721971 fetched: 2 scheduled: 0 executed: 0 num_reg_dependent: 0 num_mem_ops: 0 event: 262572372
[cpu0_DECODE] entry:  32 instr_id: 123721972 fetched: 2 scheduled: 0 executed: 0 num_reg_dependent: 0 num_mem_ops: 0 event: 262572372
[cpu0_DECODE] entry:  33 instr_id: 123721973 fetched: 2 scheduled: 0 executed: 0 num_reg_dependent: 0 num_mem_ops: 0 event: 262572373
[cpu0_DECODE] entry:  34 instr_id: 123721974 fetched: 2 scheduled: 0 executed: 0 num_reg_dependent: 0 num_mem_ops: 0 event: 262572373
[cpu0_DECODE] entry:  35 instr_id: 123721975 fetched: 2 scheduled: 0 executed: 0 num_reg_dependent: 0 num_mem_ops: 0 event: 262572373
[cpu0_DECODE] entry:  36 instr_id: 123721976 fetched: 2 scheduled: 0 executed: 0 num_reg_dependent: 0 num_mem_ops: 0 event: 262572373
[cpu0_DECODE] entry:  37 instr_id: 123721977 fetched: 2 scheduled: 0 executed: 0 num_reg_dependent: 0 num_mem_ops: 0 event: 262572373
[cpu0_DECODE] entry:  38 instr_id: 123721978 fetched: 2 scheduled: 0 executed: 0 num_reg_dependent: 0 num_mem_ops: 1 event: 262572373
[cpu0_DECODE] entry:  39 instr_id: 123721979 fetched: 2 scheduled: 0 executed: 0 num_reg_dependent: 0 num_mem_ops: 1 event: 262572374
[cpu0_DECODE] entry:  40 instr_id: 123721980 fetched: 2 scheduled: 0 executed: 0 num_reg_dependent: 0 num_mem_ops: 1 event: 262572374
[cpu0_DECODE] entry:  41 instr_id: 123721981 fetched: 2 scheduled: 0 executed: 0 num_reg_dependent: 0 num_mem_ops: 1 event: 262572374
[cpu0_DECODE] entry:  42 instr_id: 123721982 fetched: 2 scheduled: 0 executed: 0 num_reg_dependent: 0 num_mem_ops: 0 event: 262572374
[cpu0_DECODE] entry:  43 instr_id: 123721983 fetched: 2 scheduled: 0 executed: 0 num_reg_dependent: 0 num_mem_ops: 0 event: 262572374
[cpu0_DECODE] entry:  44 instr_id: 123721984 fetched: 2 scheduled: 0 executed: 0 num_reg_dependent: 0 num_mem_ops: 0 event: 262572374
[cpu0_DECODE] entry:  45 instr_id: 123721985 fetched: 2 scheduled: 0 executed: 0 num_reg_dependent: 0 num_mem_ops: 0 event: 262572375
[cpu0_DECODE] entry:  46 instr_id: 123721986 fetched: 2 scheduled: 0 executed: 0 num_reg_dependent: 0 num_mem_ops: 0 event: 262572375
[cpu0_DECODE] entry:  47 instr_id: 123721987 fetched: 2 scheduled: 0 executed: 0 num_reg_dependent: 0 num_mem_ops: 0 event: 262572375
[cpu0_DECODE] entry:  48 instr_id: 123721988 fetched: 2 scheduled: 0 executed: 0 num_reg_dependent: 0 num_mem_ops: 0 event: 262572375
[cpu0_DECODE] entry:  49 instr_id: 123721989 fetched: 2 scheduled: 0 executed: 0 num_reg_dependent: 0 num_mem_ops: 0 event: 262572375
[cpu0_DECODE] entry:  50 instr_id: 123721990 fetched: 2 scheduled: 0 executed: 0 num_reg_dependent: 0 num_mem_ops: 0 event: 262572375
[cpu0_DECODE] entry:  51 instr_id: 123721991 fetched: 2 scheduled: 0 executed: 0 num_reg_dependent: 0 num_mem_ops: 0 event: 262572376
[cpu0_DECODE] entry:  52 instr_id: 123721992 fetched: 2 scheduled: 0 executed: 0 num_reg_dependent: 0 num_mem_ops: 0 event: 262572376
[cpu0_DECODE] entry:  53 instr_id: 123721993 fetched: 2 scheduled: 0 executed: 0 num_reg_dependent: 0 num_mem_ops: 0 event: 262572376
[cpu0_DECODE] entry:  54 instr_id: 123721994 fetched: 2 scheduled: 0 executed: 0 num_reg_dependent: 0 num_mem_ops: 0 event: 262572376
[cpu0_DECODE] entry:  55 instr_id: 123721995 fetched: 2 scheduled: 0 executed: 0 num_reg_dependent: 0 num_mem_ops: 0 event: 262572376
[cpu0_DECODE] entry:  56 instr_id: 123721996 fetched: 2 scheduled: 0 executed: 0 num_reg_dependent: 0 num_mem_ops: 0 event: 262572376
[cpu0_DECODE] entry:  57 instr_id: 123721997 fetched: 2 scheduled: 0 executed: 0 num_reg_dependent: 0 num_mem_ops: 1 event: 262572377
[cpu0_DECODE] entry:  58 instr_id: 123721998 fetched: 2 scheduled: 0 executed: 0 num_reg_dependent: 0 num_mem_ops: 1 event: 262572377
[cpu0_DECODE] entry:  59 instr_id: 123721999 fetched: 2 scheduled: 0 executed: 0 num_reg_dependent: 0 num_mem_ops: 1 event: 262572377
[cpu0_DECODE] entry:  60 instr_id: 123722000 fetched: 2 scheduled: 0 executed: 0 num_reg_dependent: 0 num_mem_ops: 1 event: 262572377
[cpu0_DECODE] entry:  61 instr_id: 123722001 fetched: 2 scheduled: 0 executed: 0 num_reg_dependent: 0 num_mem_ops: 0 event: 262572377
[cpu0_DECODE] entry:  62 instr_id: 123722002 fetched: 2 scheduled: 0 executed: 0 num_reg_dependent: 0 num_mem_ops: 0 event: 262572377
[cpu0_DECODE] entry:  63 instr_id: 123722003 fetched: 2 scheduled: 0 executed: 0 num_reg_dependent: 0 num_mem_ops: 0 event: 262572378
[cpu0_DECODE] entry:  64 instr_id: 123722004 fetched: 2 scheduled: 0 executed: 0 num_reg_dependent: 0 num_mem_ops: 0 event: 262572378
[cpu0_DECODE] entry:  65 instr_id: 123722005 fetched: 2 scheduled: 0 executed: 0 num_reg_dependent: 0 num_mem_ops: 0 event: 262572378
[cpu0_DECODE] entry:  66 instr_id: 123722006 fetched: 2 scheduled: 0 executed: 0 num_reg_dependent: 0 num_mem_ops: 0 event: 262572378
[cpu0_DECODE] entry:  67 instr_id: 123722007 fetched: 2 scheduled: 0 executed: 0 num_reg_dependent: 0 num_mem_ops: 0 event: 262572378
[cpu0_DECODE] entry:  68 instr_id: 123722008 fetched: 2 scheduled: 0 executed: 0 num_reg_dependent: 0 num_mem_ops: 0 event: 262572378
[cpu0_DECODE] entry:  69 instr_id: 123722009 fetched: 2 scheduled: 0 executed: 0 num_reg_dependent: 0 num_mem_ops: 0 event: 262572379
[cpu0_DECODE] entry:  70 instr_id: 123722010 fetched: 2 scheduled: 0 executed: 0 num_reg_dependent: 0 num_mem_ops: 0 event: 262572379
[cpu0_DECODE] entry:  71 instr_id: 123722011 fetched: 2 scheduled: 0 executed: 0 num_reg_dependent: 0 num_mem_ops: 0 event: 262572379
[cpu0_DECODE] entry:  72 instr_id: 123722012 fetched: 2 scheduled: 0 executed: 0 num_reg_dependent: 0 num_mem_ops: 0 event: 262572379
[cpu0_DECODE] entry:  73 instr_id: 123722013 fetched: 2 scheduled: 0 executed: 0 num_reg_dependent: 0 num_mem_ops: 0 event: 262572379
[cpu0_DECODE] entry:  74 instr_id: 123722014 fetched: 2 scheduled: 0 executed: 0 num_reg_dependent: 0 num_mem_ops: 0 event: 262572379
[cpu0_DECODE] entry:  75 instr_id: 123722015 fetched: 2 scheduled: 0 executed: 0 num_reg_dependent: 0 num_mem_ops: 0 event: 262572380
[cpu0_DECODE] entry:  76 instr_id: 123722016 fetched: 2 scheduled: 0 executed: 0 num_reg_dependent: 0 num_mem_ops: 1 event: 262572380
[cpu0_DECODE] entry:  77 instr_id: 123722017 fetched: 2 scheduled: 0 executed: 0 num_reg_dependent: 0 num_mem_ops: 1 event: 262572380
[cpu0_DECODE] entry:  78 instr_id: 123722018 fetched: 2 scheduled: 0 executed: 0 num_reg_dependent: 0 num_mem_ops: 1 event: 262572380
[cpu0_DECODE] entry:  79 instr_id: 123722019 fetched: 2 scheduled: 0 executed: 0 num_reg_dependent: 0 num_mem_ops: 1 event: 262572380
[cpu0_DECODE] entry:  80 instr_id: 123722020 fetched: 2 scheduled: 0 executed: 0 num_reg_dependent: 0 num_mem_ops: 0 event: 262572380
[...]
[cpu0_LQ] entry:  52 instr_id: 123721735 address: 0x296221b0 fetch_issued: true event_cycle: 0 waits on -
[cpu0_LQ] entry:  53 instr_id: 123721642 address: 0x29622190 fetch_issued: true event_cycle: 0 waits on -
[cpu0_LQ] entry:  54 instr_id: 123721643 address: 0x29622180 fetch_issued: true event_cycle: 0 waits on -
[cpu0_LQ] entry:  55 instr_id: 123721736 address: 0x296221c0 fetch_issued: true event_cycle: 0 waits on -
[cpu0_LQ] entry:  56 instr_id: 123721753 address: 0x296221d0 fetch_issued: true event_cycle: 0 waits on -
[cpu0_LQ] entry:  57 instr_id: 123721754 address: 0x296221e0 fetch_issued: true event_cycle: 0 waits on -
[cpu0_LQ] entry:  58 instr_id: 123721755 address: 0x296221f0 fetch_issued: true event_cycle: 0 waits on -
[cpu0_LQ] entry:  59 instr_id: 123721772 address: 0x296221d0 fetch_issued: true event_cycle: 0 waits on -
[cpu0_LQ] entry:  60 instr_id: 123721773 address: 0x296221e0 fetch_issued: true event_cycle: 0 waits on -
[cpu0_LQ] entry:  61 instr_id: 123721660 address: 0x29622170 fetch_issued: true event_cycle: 0 waits on -
[cpu0_LQ] entry:  62 instr_id: 123721661 address: 0x29622190 fetch_issued: true event_cycle: 0 waits on -
[cpu0_LQ] entry:  63 instr_id: 123721662 address: 0x29622180 fetch_issued: true event_cycle: 0 waits on -
[cpu0_LQ] entry:  64 instr_id: 123721680 address: 0x14748200 fetch_issued: true event_cycle: 0 waits on -
[cpu0_LQ] entry:  65 instr_id: 123721683 address: 0xf006100 fetch_issued: true event_cycle: 0 waits on -
[cpu0_LQ] entry:  66 instr_id: 123721684 address: 0xf006110 fetch_issued: true event_cycle: 0 waits on -
[cpu0_LQ] entry:  67 instr_id: 123721685 address: 0x296221a0 fetch_issued: true event_cycle: 0 waits on -
[cpu0_LQ] entry:  68 instr_id: 123721686 address: 0xf006120 fetch_issued: true event_cycle: 0 waits on -
[cpu0_LQ] entry:  69 instr_id: 123721774 address: 0x296221f0 fetch_issued: true event_cycle: 0 waits on -
[cpu0_LQ] entry:  70 instr_id: 123721791 address: 0x296221d0 fetch_issued: true event_cycle: 0 waits on -
[cpu0_LQ] entry:  71 instr_id: 123721792 address: 0x296221e0 fetch_issued: true event_cycle: 0 waits on -
[cpu0_LQ] entry:  72 instr_id: 123721793 address: 0x296221f0 fetch_issued: true event_cycle: 0 waits on -
[cpu0_LQ] entry:  73 instr_id: 123721687 address: 0x296221b0 fetch_issued: true event_cycle: 0 waits on -
[cpu0_LQ] entry:  74 instr_id: 123721688 address: 0x296221c0 fetch_issued: true event_cycle: 0 waits on -
[cpu0_LQ] entry:  75 instr_id: 123721691 address: 0xf006130 fetch_issued: true event_cycle: 0 waits on -
[cpu0_LQ] entry:  76 instr_id: 123721693 address: 0xf006140 fetch_issued: true event_cycle: 0 waits on -
[cpu0_LQ] entry:  77 instr_id: 123721698 address: 0xf006150 fetch_issued: true event_cycle: 0 waits on -
[cpu0_LQ] entry:  78 instr_id: 123721699 address: 0xf006160 fetch_issued: true event_cycle: 0 waits on -
[cpu0_LQ] entry:  79 instr_id: 123721702 address: 0xf006170 fetch_issued: true event_cycle: 0 waits on -
[cpu0_LQ] entry:  80 instr_id: 123721810 address: 0x29622200 fetch_issued: true event_cycle: 0 waits on -
[cpu0_LQ] entry:  81 empty
[cpu0_LQ] entry:  82 empty
[cpu0_LQ] entry:  83 instr_id: 123721811 address: 0x29622210 fetch_issued: true event_cycle: 0 waits on -
[cpu0_LQ] entry:  84 instr_id: 123721812 address: 0x29622220 fetch_issued: true event_cycle: 0 waits on -
[cpu0_LQ] entry:  85 instr_id: 123721829 address: 0x29622200 fetch_issued: true event_cycle: 0 waits on -
[cpu0_LQ] entry:  86 instr_id: 123721830 address: 0x29622220 fetch_issued: true event_cycle: 0 waits on -
[cpu0_LQ] entry:  87 instr_id: 123721831 address: 0x29622210 fetch_issued: true event_cycle: 0 waits on -
[cpu0_LQ] entry:  88 instr_id: 123721848 address: 0x29622200 fetch_issued: true event_cycle: 0 waits on -
[cpu0_LQ] entry:  89 instr_id: 123721849 address: 0x29622220 fetch_issued: true event_cycle: 0 waits on -
[cpu0_LQ] entry:  90 instr_id: 123721850 address: 0x29622210 fetch_issued: true event_cycle: 0 waits on -
[cpu0_LQ] entry:  91 instr_id: 123721868 address: 0x14748208 fetch_issued: true event_cycle: 0 waits on -
[cpu0_LQ] entry:  92 instr_id: 123721871 address: 0xf006900 fetch_issued: true event_cycle: 0 waits on -
[cpu0_LQ] entry:  93 instr_id: 123721872 address: 0xf006910 fetch_issued: true event_cycle: 0 waits on -
[cpu0_LQ] entry:  94 instr_id: 123721873 address: 0x29622230 fetch_issued: true event_cycle: 0 waits on -
[cpu0_LQ] entry:  95 instr_id: 123721874 address: 0xf006920 fetch_issued: true event_cycle: 0 waits on -
[cpu0_LQ] entry:  96 instr_id: 123721875 address: 0x29622240 fetch_issued: true event_cycle: 0 waits on -
[cpu0_LQ] entry:  97 instr_id: 123721876 address: 0x29622250 fetch_issued: true event_cycle: 0 waits on -
[cpu0_LQ] entry:  98 instr_id: 123721879 address: 0xf006930 fetch_issued: true event_cycle: 0 waits on -
[cpu0_LQ] entry:  99 instr_id: 123721881 address: 0xf006940 fetch_issued: true event_cycle: 0 waits on -
[cpu0_LQ] entry: 100 instr_id: 123721886 address: 0xf006950 fetch_issued: true event_cycle: 0 waits on -
[cpu0_LQ] entry: 101 instr_id: 123721887 address: 0xf006960 fetch_issued: true event_cycle: 0 waits on -
[cpu0_LQ] entry: 102 empty
[cpu0_LQ] entry: 103 empty
[cpu0_LQ] entry: 104 empty
[cpu0_LQ] entry: 105 empty
[cpu0_LQ] entry: 106 empty
[cpu0_LQ] entry: 107 empty
[cpu0_LQ] entry: 108 empty
[cpu0_LQ] entry: 109 empty
[cpu0_LQ] entry: 110 empty
[cpu0_LQ] entry: 111 empty
[cpu0_LQ] entry: 112 empty
[cpu0_LQ] entry: 113 empty
[cpu0_LQ] entry: 114 empty
[cpu0_LQ] entry: 115 empty
[cpu0_LQ] entry: 116 empty
[cpu0_LQ] entry: 117 empty
[cpu0_LQ] entry: 118 empty
[cpu0_LQ] entry: 119 empty
[cpu0_LQ] entry: 120 empty
[cpu0_LQ] entry: 121 empty
[cpu0_LQ] entry: 122 empty
[cpu0_LQ] entry: 123 empty
[cpu0_LQ] entry: 124 empty
[cpu0_LQ] entry: 125 empty
[cpu0_LQ] entry: 126 empty
[cpu0_LQ] entry: 127 empty
[cpu0_LQ] entry: 128 empty
[cpu0_LQ] entry: 129 empty
[cpu0_LQ] entry: 130 empty
[cpu0_LQ] entry: 131 empty
[cpu0_LQ] entry: 132 empty
[cpu0_LQ] entry: 133 empty
[cpu0_LQ] entry: 134 empty
[cpu0_LQ] entry: 135 empty
[cpu0_LQ] entry: 136 empty
[cpu0_LQ] entry: 137 empty
[cpu0_LQ] entry: 138 empty
[cpu0_LQ] entry: 139 empty
[cpu0_LQ] entry: 140 empty
[cpu0_LQ] entry: 141 empty
[cpu0_LQ] entry: 142 empty
[cpu0_LQ] entry: 143 empty
[cpu0_LQ] entry: 144 empty
[cpu0_LQ] entry: 145 empty
[cpu0_LQ] entry: 146 empty
[cpu0_LQ] entry: 147 empty
[cpu0_LQ] entry: 148 empty
[cpu0_LQ] entry: 149 empty
[cpu0_LQ] entry: 150 empty
[cpu0_LQ] entry: 151 empty
[cpu0_LQ] entry: 152 empty
[cpu0_LQ] entry: 153 empty
[cpu0_LQ] entry: 154 empty
[cpu0_LQ] entry: 155 empty
[cpu0_LQ] entry: 156 empty
[cpu0_LQ] entry: 157 empty
[cpu0_LQ] entry: 158 empty
[cpu0_LQ] entry: 159 empty
[cpu0_LQ] entry: 160 empty
[cpu0_LQ] entry: 161 empty
[cpu0_LQ] entry: 162 empty
[cpu0_LQ] entry: 163 empty
[cpu0_LQ] entry: 164 empty
[cpu0_LQ] entry: 165 empty
[cpu0_LQ] entry: 166 empty
[cpu0_LQ] entry: 167 empty
[cpu0_LQ] entry: 168 empty
[cpu0_LQ] entry: 169 empty
[cpu0_LQ] entry: 170 empty
[cpu0_LQ] entry: 171 empty
[cpu0_LQ] entry: 172 empty
[cpu0_LQ] entry: 173 empty
[cpu0_LQ] entry: 174 empty
[cpu0_LQ] entry: 175 empty
[cpu0_LQ] entry: 176 empty
[cpu0_LQ] entry: 177 empty
[cpu0_LQ] entry: 178 empty
[cpu0_LQ] entry: 179 empty
[cpu0_LQ] entry: 180 empty
[cpu0_LQ] entry: 181 empty
[cpu0_LQ] entry: 182 empty
[cpu0_LQ] entry: 183 empty
[cpu0_LQ] entry: 184 empty
[cpu0_LQ] entry: 185 empty
[cpu0_LQ] entry: 186 empty
[cpu0_LQ] entry: 187 empty
[cpu0_LQ] entry: 188 empty
[cpu0_LQ] entry: 189 empty
[cpu0_LQ] entry: 190 empty
[cpu0_LQ] entry: 191 empty

[cpu0_SQ] entry:   0 instr_id: 123721414 address: 0xf005720 fetch_issued: true event_cycle: 262572302 LQ waiting: []
[cpu0_SQ] entry:   1 instr_id: 123721433 address: 0xf005730 fetch_issued: true event_cycle: 262572305 LQ waiting: []
[cpu0_SQ] entry:   2 instr_id: 123721452 address: 0xf005740 fetch_issued: true event_cycle: 262572308 LQ waiting: []
[cpu0_SQ] entry:   3 instr_id: 123721471 address: 0xf005750 fetch_issued: true event_cycle: 262572311 LQ waiting: []
[cpu0_SQ] entry:   4 instr_id: 123721490 address: 0xf005760 fetch_issued: true event_cycle: 262572315 LQ waiting: []
[cpu0_SQ] entry:   5 instr_id: 123721523 address: 0xf005ee0 fetch_issued: true event_cycle: 262572320 LQ waiting: []
[cpu0_SQ] entry:   6 instr_id: 123721524 address: 0xf005ee8 fetch_issued: true event_cycle: 262572320 LQ waiting: []
[cpu0_SQ] entry:   7 instr_id: 123721543 address: 0xf005ef0 fetch_issued: true event_cycle: 262572323 LQ waiting: []
[cpu0_SQ] entry:   8 instr_id: 123721544 address: 0xf005ef8 fetch_issued: true event_cycle: 262572324 LQ waiting: []
[cpu0_SQ] entry:   9 instr_id: 123721564 address: 0xf005f00 fetch_issued: true event_cycle: 262572327 LQ waiting: []
[cpu0_SQ] entry:  10 instr_id: 123721583 address: 0xf005f10 fetch_issued: true event_cycle: 262572330 LQ waiting: []
[cpu0_SQ] entry:  11 instr_id: 123721602 address: 0xf005f20 fetch_issued: true event_cycle: 262572333 LQ waiting: []
[cpu0_SQ] entry:  12 instr_id: 123721621 address: 0xf005f30 fetch_issued: true event_cycle: 262572336 LQ waiting: []
[cpu0_SQ] entry:  13 instr_id: 123721640 address: 0xf005f40 fetch_issued: true event_cycle: 262572340 LQ waiting: []
[cpu0_SQ] entry:  14 instr_id: 123721659 address: 0xf005f50 fetch_issued: true event_cycle: 262572343 LQ waiting: []
[cpu0_SQ] entry:  15 instr_id: 123721678 address: 0xf005f60 fetch_issued: true event_cycle: 262572346 LQ waiting: []
[cpu0_SQ] entry:  16 instr_id: 123721711 address: 0xf0066e0 fetch_issued: true event_cycle: 262572357 LQ waiting: []
[cpu0_SQ] entry:  17 instr_id: 123721712 address: 0xf0066e8 fetch_issued: true event_cycle: 262572358 LQ waiting: []
[cpu0_SQ] entry:  18 instr_id: 123721731 address: 0xf0066f0 fetch_issued: true event_cycle: 262572363 LQ waiting: []
[cpu0_SQ] entry:  19 instr_id: 123721732 address: 0xf0066f8 fetch_issued: true event_cycle: 262572363 LQ waiting: []
[cpu0_SQ] entry:  20 instr_id: 123721752 address: 0xf006700 fetch_issued: true event_cycle: 262572366 LQ waiting: []
[cpu0_SQ] entry:  21 instr_id: 123721771 address: 0xf006710 fetch_issued: true event_cycle: 262572369 LQ waiting: []
[cpu0_SQ] entry:  22 instr_id: 123721790 address: 0xf006720 fetch_issued: true event_cycle: 262572372 LQ waiting: []
[cpu0_SQ] entry:  23 instr_id: 123721809 address: 0xf006730 fetch_issued: true event_cycle: 262572376 LQ waiting: []
[cpu0_SQ] entry:  24 instr_id: 123721828 address: 0xf006740 fetch_issued: true event_cycle: 262572379 LQ waiting: []
[cpu0_SQ] entry:  25 instr_id: 123721847 address: 0xf006750 fetch_issued: true event_cycle: 262572382 LQ waiting: []
[cpu0_SQ] entry:  26 instr_id: 123721866 address: 0xf006760 fetch_issued: true event_cycle: 262572385 LQ waiting: []
[cpu0_SQ] entry:  27 instr_id: 123721899 address: 0xf006ee0 fetch_issued: true event_cycle: 262572484 LQ waiting: []
[cpu0_SQ] entry:  28 instr_id: 123721900 address: 0xf006ee8 fetch_issued: true event_cycle: 262572484 LQ waiting: []

LLC_MSHR empty

LLC_tags empty

LLC_translation empty

LLC_RQ empty

LLC_WQ empty

LLC_PQ empty

[cpu0_DTLB_MSHR] entry:   0 instr_id: 0 address: 0xf007180 v_addr: 0xf007180 type: LOAD event: 18446744073709551615

cpu0_DTLB_tags empty

cpu0_DTLB_translation empty

cpu0_DTLB_RQ empty

cpu0_DTLB_WQ empty

cpu0_DTLB_PQ empty

cpu0_ITLB_MSHR empty

cpu0_ITLB_tags empty

cpu0_ITLB_translation empty

cpu0_ITLB_RQ empty

cpu0_ITLB_WQ empty

cpu0_ITLB_PQ empty

cpu0_L1D_MSHR empty

cpu0_L1D_tags empty

[cpu0_L1D_translation] entry:   0 instr_id: 0 address: 0xf007100 v_addr: 0xf007100 is_translated: false translate_issued: true event_cycle: 262571946
[cpu0_L1D_translation] entry:   1 instr_id: 0 address: 0xf007180 v_addr: 0xf007180 is_translated: false translate_issued: true event_cycle: 262572059
[cpu0_L1D_translation] entry:   2 instr_id: 0 address: 0xf007180 v_addr: 0xf007180 is_translated: false translate_issued: true event_cycle: 262572060
[cpu0_L1D_translation] entry:   3 instr_id: 0 address: 0xf007180 v_addr: 0xf007180 is_translated: false translate_issued: true event_cycle: 262572061
[cpu0_L1D_translation] entry:   4 instr_id: 0 address: 0xf007180 v_addr: 0xf007180 is_translated: false translate_issued: true event_cycle: 262572062
[cpu0_L1D_translation] entry:   5 instr_id: 0 address: 0xf007180 v_addr: 0xf007180 is_translated: false translate_issued: true event_cycle: 262572063
[cpu0_L1D_translation] entry:   6 instr_id: 0 address: 0xf007180 v_addr: 0xf007180 is_translated: false translate_issued: true event_cycle: 262572066
[cpu0_L1D_translation] entry:   7 instr_id: 0 address: 0xf007180 v_addr: 0xf007180 is_translated: false translate_issued: true event_cycle: 262572068
[cpu0_L1D_translation] entry:   8 instr_id: 0 address: 0xf007180 v_addr: 0xf007180 is_translated: false translate_issued: true event_cycle: 262572072
[cpu0_L1D_translation] entry:   9 instr_id: 0 address: 0xf007180 v_addr: 0xf007180 is_translated: false translate_issued: true event_cycle: 262572078
[cpu0_L1D_translation] entry:  10 instr_id: 0 address: 0xf007180 v_addr: 0xf007180 is_translated: false translate_issued: true event_cycle: 262572084
[cpu0_L1D_translation] entry:  11 instr_id: 0 address: 0xf007180 v_addr: 0xf007180 is_translated: false translate_issued: true event_cycle: 262572088
[cpu0_L1D_translation] entry:  12 instr_id: 0 address: 0xf007180 v_addr: 0xf007180 is_translated: false translate_issued: true event_cycle: 262572088
[cpu0_L1D_translation] entry:  13 instr_id: 0 address: 0xf007180 v_addr: 0xf007180 is_translated: false translate_issued: true event_cycle: 262572089
[cpu0_L1D_translation] entry:  14 instr_id: 0 address: 0xf007180 v_addr: 0xf007180 is_translated: false translate_issued: true event_cycle: 262572090
[cpu0_L1D_translation] entry:  15 instr_id: 0 address: 0xf007180 v_addr: 0xf007180 is_translated: false translate_issued: true event_cycle: 262572090
[cpu0_L1D_translation] entry:  16 instr_id: 0 address: 0xf007180 v_addr: 0xf007180 is_translated: false translate_issued: true event_cycle: 262572091
[cpu0_L1D_translation] entry:  17 instr_id: 0 address: 0xf007180 v_addr: 0xf007180 is_translated: false translate_issued: true event_cycle: 262572094
[cpu0_L1D_translation] entry:  18 instr_id: 0 address: 0xf007180 v_addr: 0xf007180 is_translated: false translate_issued: true event_cycle: 262572094
[cpu0_L1D_translation] entry:  19 instr_id: 0 address: 0xf007180 v_addr: 0xf007180 is_translated: false translate_issued: true event_cycle: 262572095

cpu0_L1D_RQ empty

cpu0_L1D_WQ empty

cpu0_L1D_PQ empty

[cpu0_L1D_RQ] entry:   0 instr_id: 123721396 address: 0x296220b0 v_addr: 0x296220b0 type: LOAD translated: false
[cpu0_L1D_RQ] entry:   1 instr_id: 123721397 address: 0x296220c0 v_addr: 0x296220c0 type: LOAD translated: false
[cpu0_L1D_RQ] entry:   2 instr_id: 123721436 address: 0x29622100 v_addr: 0x29622100 type: LOAD translated: false
[cpu0_L1D_RQ] entry:   3 instr_id: 123721492 address: 0x147481f8 v_addr: 0x147481f8 type: LOAD translated: false
[cpu0_L1D_RQ] entry:   4 instr_id: 123721495 address: 0xf005900 v_addr: 0xf005900 type: LOAD translated: false
[cpu0_L1D_RQ] entry:   5 instr_id: 123721505 address: 0xf005940 v_addr: 0xf005940 type: LOAD translated: false
[cpu0_L1D_RQ] entry:   6 instr_id: 123721517 address: 0xf005980 v_addr: 0xf005980 type: LOAD translated: false
[cpu0_L1D_RQ] entry:   7 instr_id: 123721565 address: 0x29622140 v_addr: 0x29622140 type: LOAD translated: false
[cpu0_L1D_RQ] entry:   8 instr_id: 123721623 address: 0x29622180 v_addr: 0x29622180 type: LOAD translated: false
[cpu0_L1D_RQ] entry:   9 instr_id: 123721680 address: 0x14748200 v_addr: 0x14748200 type: LOAD translated: false
[cpu0_L1D_RQ] entry:  10 instr_id: 123721683 address: 0xf006100 v_addr: 0xf006100 type: LOAD translated: false
[cpu0_L1D_RQ] entry:  11 instr_id: 123721688 address: 0x296221c0 v_addr: 0x296221c0 type: LOAD translated: false
[cpu0_L1D_RQ] entry:  12 instr_id: 123721693 address: 0xf006140 v_addr: 0xf006140 type: LOAD translated: false
[cpu0_L1D_RQ] entry:  13 instr_id: 123721705 address: 0xf006180 v_addr: 0xf006180 type: LOAD translated: false
[cpu0_L1D_RQ] entry:  14 instr_id: 123721810 address: 0x29622200 v_addr: 0x29622200 type: LOAD translated: false
[cpu0_L1D_RQ] entry:  15 instr_id: 123721871 address: 0xf006900 v_addr: 0xf006900 type: LOAD translated: false
[cpu0_L1D_RQ] entry:  16 instr_id: 123721875 address: 0x29622240 v_addr: 0x29622240 type: LOAD translated: false
[cpu0_L1D_RQ] entry:  17 instr_id: 123721881 address: 0xf006940 v_addr: 0xf006940 type: LOAD translated: false
[cpu0_L1D_RQ] entry:  18 instr_id: 123721893 address: 0xf006980 v_addr: 0xf006980 type: LOAD translated: false

[cpu0_L1D_WQ] entry:   0 instr_id: 123720888 address: 0xf003f40 v_addr: 0xf003f40 type: WRITE translated: false
[cpu0_L1D_WQ] entry:   1 instr_id: 123720907 address: 0xf003f50 v_addr: 0xf003f50 type: WRITE translated: false
[cpu0_L1D_WQ] entry:   2 instr_id: 123720926 address: 0xf003f60 v_addr: 0xf003f60 type: WRITE translated: false
[cpu0_L1D_WQ] entry:   3 instr_id: 123720959 address: 0xf0046e0 v_addr: 0xf0046e0 type: WRITE translated: false
[cpu0_L1D_WQ] entry:   4 instr_id: 123720960 address: 0xf0046e8 v_addr: 0xf0046e8 type: WRITE translated: false
[cpu0_L1D_WQ] entry:   5 instr_id: 123720979 address: 0xf0046f0 v_addr: 0xf0046f0 type: WRITE translated: false
[cpu0_L1D_WQ] entry:   6 instr_id: 123720980 address: 0xf0046f8 v_addr: 0xf0046f8 type: WRITE translated: false
[cpu0_L1D_WQ] entry:   7 instr_id: 123721000 address: 0xf004700 v_addr: 0xf004700 type: WRITE translated: false
[cpu0_L1D_WQ] entry:   8 instr_id: 123721019 address: 0xf004710 v_addr: 0xf004710 type: WRITE translated: false
[cpu0_L1D_WQ] entry:   9 instr_id: 123721038 address: 0xf004720 v_addr: 0xf004720 type: WRITE translated: false
[cpu0_L1D_WQ] entry:  10 instr_id: 123721057 address: 0xf004730 v_addr: 0xf004730 type: WRITE translated: false
[cpu0_L1D_WQ] entry:  11 instr_id: 123721076 address: 0xf004740 v_addr: 0xf004740 type: WRITE translated: false
[cpu0_L1D_WQ] entry:  12 instr_id: 123721095 address: 0xf004750 v_addr: 0xf004750 type: WRITE translated: false
[cpu0_L1D_WQ] entry:  13 instr_id: 123721114 address: 0xf004760 v_addr: 0xf004760 type: WRITE translated: false
[cpu0_L1D_WQ] entry:  14 instr_id: 123721147 address: 0xf004ee0 v_addr: 0xf004ee0 type: WRITE translated: false
[cpu0_L1D_WQ] entry:  15 instr_id: 123721148 address: 0xf004ee8 v_addr: 0xf004ee8 type: WRITE translated: false
[cpu0_L1D_WQ] entry:  16 instr_id: 123721167 address: 0xf004ef0 v_addr: 0xf004ef0 type: WRITE translated: false
[cpu0_L1D_WQ] entry:  17 instr_id: 123721168 address: 0xf004ef8 v_addr: 0xf004ef8 type: WRITE translated: false
[cpu0_L1D_WQ] entry:  18 instr_id: 123721188 address: 0xf004f00 v_addr: 0xf004f00 type: WRITE translated: false
[cpu0_L1D_WQ] entry:  19 instr_id: 123721207 address: 0xf004f10 v_addr: 0xf004f10 type: WRITE translated: false
[cpu0_L1D_WQ] entry:  20 instr_id: 123721226 address: 0xf004f20 v_addr: 0xf004f20 type: WRITE translated: false
[cpu0_L1D_WQ] entry:  21 instr_id: 123721245 address: 0xf004f30 v_addr: 0xf004f30 type: WRITE translated: false
[cpu0_L1D_WQ] entry:  22 instr_id: 123721264 address: 0xf004f40 v_addr: 0xf004f40 type: WRITE translated: false
[cpu0_L1D_WQ] entry:  23 instr_id: 123721283 address: 0xf004f50 v_addr: 0xf004f50 type: WRITE translated: false
[cpu0_L1D_WQ] entry:  24 instr_id: 123721302 address: 0xf004f60 v_addr: 0xf004f60 type: WRITE translated: false
[cpu0_L1D_WQ] entry:  25 instr_id: 123721335 address: 0xf0056e0 v_addr: 0xf0056e0 type: WRITE translated: false
[cpu0_L1D_WQ] entry:  26 instr_id: 123721336 address: 0xf0056e8 v_addr: 0xf0056e8 type: WRITE translated: false
[cpu0_L1D_WQ] entry:  27 instr_id: 123721355 address: 0xf0056f0 v_addr: 0xf0056f0 type: WRITE translated: false
[cpu0_L1D_WQ] entry:  28 instr_id: 123721356 address: 0xf0056f8 v_addr: 0xf0056f8 type: WRITE translated: false
[cpu0_L1D_WQ] entry:  29 instr_id: 123721376 address: 0xf005700 v_addr: 0