WARNING: physical memory size is smaller than virtual memory size.

*** ChampSim Multicore Out-of-Order Simulator ***
Warmup Instructions: 30000000
Simulation Instructions: 100000000
Number of CPUs: 1
Page size: 4096

BTB:
Basic BTB sets: 1024 ways: 8
Indirect:
history lengths: 0 0 10 16 27 44 60 96 109 219 449 487 714 1313 2146 3881 
ITTAGE tables: 64768 bytes;Region table: 240 bytes;IUM: 384 bytes;Total Storage= 65392 bytes;
RAS:
RAS size: 64
[LLC] INSTR Demand IPV: 1 2 2 1 4 Prefetch IPV: 1 2 1 1 4
[LLC] DATA  Demand IPV: 1 1 1 2 4 Prefetch IPV: 1 1 2 2 4
Berti Prefetcher
CPU 0 Entangling prefetcher
Off-chip DRAM Size: 8 GiB Channels: 2 Width: 64-bit Data Race: 6400 MT/s
[DUEL] Epoch ended. INSTR misses = 16, DATA misses = 16. Winner = INSTR
[DUEL] Epoch ended. INSTR misses = 0, DATA misses = 0. Winner = INSTR
[DUEL] Epoch ended. INSTR misses = 16, DATA misses = 16. Winner = INSTR
[DUEL] Epoch ended. INSTR misses = 0, DATA misses = 0. Winner = INSTR
[DUEL] Epoch ended. INSTR misses = 16, DATA misses = 16. Winner = INSTR
[DUEL] Epoch ended. INSTR misses = 16, DATA misses = 16. Winner = INSTR
[DUEL] Epoch ended. INSTR misses = 1, DATA misses = 4. Winner = INSTR
[DUEL] Epoch ended. INSTR misses = 0, DATA misses = 0. Winner = INSTR
[DUEL] Epoch ended. INSTR misses = 0, DATA misses = 0. Winner = INSTR
Heartbeat CPU 0 instructions: 10000002 cycles: 1666774 heartbeat IPC: 6 cumulative IPC: 6 (Simulation time: 00 hr 00 min 22 sec)
[DUEL] Epoch ended. INSTR misses = 0, DATA misses = 0. Winner = INSTR
Heartbeat CPU 0 instructions: 20000004 cycles: 3333441 heartbeat IPC: 6 cumulative IPC: 6 (Simulation time: 00 hr 00 min 45 sec)
Heartbeat CPU 0 instructions: 30000000 cycles: 5000106 heartbeat IPC: 6 cumulative IPC: 6 (Simulation time: 00 hr 01 min 08 sec)
Warmup finished CPU 0 instructions: 30000000 cycles: 5000107 cumulative IPC: 6 (Simulation time: 00 hr 01 min 08 sec)
Warmup complete CPU 0 instructions: 30000000 cycles: 5000107 cumulative IPC: 6 (Simulation time: 00 hr 01 min 08 sec)
Heartbeat CPU 0 instructions: 40000002 cycles: 6666887 heartbeat IPC: 6 cumulative IPC: 6 (Simulation time: 00 hr 01 min 35 sec)
Heartbeat CPU 0 instructions: 50000008 cycles: 8333761 heartbeat IPC: 5.999 cumulative IPC: 5.999 (Simulation time: 00 hr 02 min 02 sec)
[DUEL] Epoch ended. INSTR misses = 0, DATA misses = 0. Winner = INSTR
Heartbeat CPU 0 instructions: 60000008 cycles: 10000517 heartbeat IPC: 6 cumulative IPC: 6 (Simulation time: 00 hr 02 min 29 sec)
[DUEL] Epoch ended. INSTR misses = 0, DATA misses = 0. Winner = INSTR
Heartbeat CPU 0 instructions: 70000005 cycles: 11667295 heartbeat IPC: 6 cumulative IPC: 6 (Simulation time: 00 hr 02 min 56 sec)
Heartbeat CPU 0 instructions: 80000001 cycles: 13334040 heartbeat IPC: 6 cumulative IPC: 6 (Simulation time: 00 hr 03 min 24 sec)
Heartbeat CPU 0 instructions: 90000002 cycles: 15000802 heartbeat IPC: 6 cumulative IPC: 6 (Simulation time: 00 hr 03 min 51 sec)
Heartbeat CPU 0 instructions: 100000008 cycles: 16667544 heartbeat IPC: 6 cumulative IPC: 6 (Simulation time: 00 hr 04 min 18 sec)
*** Reached end of trace: (0, "../traces/secret_traces/compute_fp/compute_fp_20.champsimtrace.xz")
Heartbeat CPU 0 instructions: 110000005 cycles: 18334426 heartbeat IPC: 5.999 cumulative IPC: 6 (Simulation time: 00 hr 04 min 45 sec)
Heartbeat CPU 0 instructions: 120000003 cycles: 20001198 heartbeat IPC: 6 cumulative IPC: 6 (Simulation time: 00 hr 05 min 13 sec)
Heartbeat CPU 0 instructions: 130000001 cycles: 21667984 heartbeat IPC: 6 cumulative IPC: 6 (Simulation time: 00 hr 05 min 40 sec)
Simulation finished CPU 0 instructions: 100000001 cycles: 16667878 cumulative IPC: 6 (Simulation time: 00 hr 05 min 40 sec)
Simulation complete CPU 0 instructions: 100000001 cycles: 16667878 cumulative IPC: 6 (Simulation time: 00 hr 05 min 40 sec)

ChampSim completed all CPUs

=== Simulation ===
CPU 0 runs ../traces/secret_traces/compute_fp/compute_fp_20.champsimtrace.xz
Region of Interest Statistics

CPU 0 cumulative IPC: 6 instructions: 100000001 cycles: 16667878
CPU 0 Branch Prediction Accuracy: 100% MPKI: 0.0008 Average ROB Occupancy at Mispredict: 81.25
Branch type MPKI
BRANCH_DIRECT_JUMP: 0
BRANCH_INDIRECT: 1e-05
BRANCH_CONDITIONAL: 0.00079
BRANCH_DIRECT_CALL: 0
BRANCH_INDIRECT_CALL: 0
BRANCH_RETURN: 0

LLC TOTAL        ACCESS:          2 HIT:          0 MISS:          2
LLC LOAD         ACCESS:          0 HIT:          0 MISS:          0
LLC RFO          ACCESS:          0 HIT:          0 MISS:          0
LLC PREFETCH     ACCESS:          2 HIT:          0 MISS:          2
LLC WRITE        ACCESS:          0 HIT:          0 MISS:          0
LLC TRANSLATION  ACCESS:          0 HIT:          0 MISS:          0
LLC PREFETCH REQUESTED:          0 ISSUED:          0 USEFUL:          0 USELESS:          0
LLC AVERAGE MISS LATENCY: 157.5 cycles
cpu0_DTLB TOTAL        ACCESS:   16652330 HIT:   16633721 MISS:      18609
cpu0_DTLB LOAD         ACCESS:   16652330 HIT:   16633721 MISS:      18609
cpu0_DTLB RFO          ACCESS:          0 HIT:          0 MISS:          0
cpu0_DTLB PREFETCH     ACCESS:          0 HIT:          0 MISS:          0
cpu0_DTLB WRITE        ACCESS:          0 HIT:          0 MISS:          0
cpu0_DTLB TRANSLATION  ACCESS:          0 HIT:          0 MISS:          0
cpu0_DTLB PREFETCH REQUESTED:          0 ISSUED:          0 USEFUL:          0 USELESS:          0
cpu0_DTLB AVERAGE MISS LATENCY: 6.352 cycles
cpu0_ITLB TOTAL        ACCESS:       6526 HIT:       6526 MISS:          0
cpu0_ITLB LOAD         ACCESS:       6526 HIT:       6526 MISS:          0
cpu0_ITLB RFO          ACCESS:          0 HIT:          0 MISS:          0
cpu0_ITLB PREFETCH     ACCESS:          0 HIT:          0 MISS:          0
cpu0_ITLB WRITE        ACCESS:          0 HIT:          0 MISS:          0
cpu0_ITLB TRANSLATION  ACCESS:          0 HIT:          0 MISS:          0
cpu0_ITLB PREFETCH REQUESTED:          0 ISSUED:          0 USEFUL:          0 USELESS:          0
cpu0_ITLB AVERAGE MISS LATENCY: -nan cycles
cpu0_L1D TOTAL        ACCESS:   30905547 HIT:   27723102 MISS:    3182445
cpu0_L1D LOAD         ACCESS:   16816173 HIT:   16678567 MISS:     137606
cpu0_L1D RFO          ACCESS:          0 HIT:          0 MISS:          0
cpu0_L1D PREFETCH     ACCESS:   12446413 HIT:    9729822 MISS:    2716591
cpu0_L1D WRITE        ACCESS:    1642961 HIT:    1314713 MISS:     328248
cpu0_L1D TRANSLATION  ACCESS:          0 HIT:          0 MISS:          0
cpu0_L1D PREFETCH REQUESTED:   99799471 ISSUED:   12446414 USEFUL:     771883 USELESS:        633
cpu0_L1D AVERAGE MISS LATENCY: 2.937 cycles
cpu0_L1I TOTAL        ACCESS:       9598 HIT:       9502 MISS:         96
cpu0_L1I LOAD         ACCESS:       5434 HIT:       5365 MISS:         69
cpu0_L1I RFO          ACCESS:          0 HIT:          0 MISS:          0
cpu0_L1I PREFETCH     ACCESS:       4164 HIT:       4137 MISS:         27
cpu0_L1I WRITE        ACCESS:          0 HIT:          0 MISS:          0
cpu0_L1I TRANSLATION  ACCESS:          0 HIT:          0 MISS:          0
cpu0_L1I PREFETCH REQUESTED:       6634 ISSUED:       4164 USEFUL:         11 USELESS:          0
cpu0_L1I AVERAGE MISS LATENCY: 5.208 cycles
cpu0_L2C TOTAL        ACCESS:    5837908 HIT:    5837906 MISS:          2
cpu0_L2C LOAD         ACCESS:      48815 HIT:      48815 MISS:          0
cpu0_L2C RFO          ACCESS:     205005 HIT:     205005 MISS:          0
cpu0_L2C PREFETCH     ACCESS:    5378461 HIT:    5378459 MISS:          2
cpu0_L2C WRITE        ACCESS:     205627 HIT:     205627 MISS:          0
cpu0_L2C TRANSLATION  ACCESS:          0 HIT:          0 MISS:          0
cpu0_L2C PREFETCH REQUESTED:    2731773 ISSUED:    2695504 USEFUL:          2 USELESS:          0
cpu0_L2C AVERAGE MISS LATENCY: 178.5 cycles
cpu0_STLB TOTAL        ACCESS:      16340 HIT:      16340 MISS:          0
cpu0_STLB LOAD         ACCESS:      16340 HIT:      16340 MISS:          0
cpu0_STLB RFO          ACCESS:          0 HIT:          0 MISS:          0
cpu0_STLB PREFETCH     ACCESS:          0 HIT:          0 MISS:          0
cpu0_STLB WRITE        ACCESS:          0 HIT:          0 MISS:          0
cpu0_STLB TRANSLATION  ACCESS:          0 HIT:          0 MISS:          0
cpu0_STLB PREFETCH REQUESTED:          0 ISSUED:          0 USEFUL:          0 USELESS:          0
cpu0_STLB AVERAGE MISS LATENCY: -nan cycles

DRAM Statistics

Channel 0 RQ ROW_BUFFER_HIT:          0
  ROW_BUFFER_MISS:          1
 AVG DBUS CONGESTED CYCLE: -
WQ ROW_BUFFER_HIT: Channel 0 
  ROW_BUFFER_MISS:          0
  FULL:          0

Channel 1 RQ ROW_BUFFER_HIT:          0
  ROW_BUFFER_MISS:          1
 AVG DBUS CONGESTED CYCLE: -
WQ ROW_BUFFER_HIT: Channel 1 
  ROW_BUFFER_MISS:          0
  FULL:          0
BERTI TO_L1: 77626326 TO_L2: 45153571 TO_L2_BC_MSHR: 1080
BERTI AVG_LAT: 49.7627 NUM_TRACK_LATENCY: 1067003 NUM_CANT_TRACK_LATENCY: 0
BERTI CROSS_PAGE 16439748 NO_CROSS_PAGE: 106340149
BERTI FOUND_BERTI: 12030585 NO_FOUND_BERTI: 9887819
BERTI AVERAGE_ISSUED: 2.6445
CPU 0 L1I Entangling prefetcher final stats
IP accesses: 3b34 ecd00 74 / 5434
IP misses: 46b4 11ad00 20 / 69
IP hits: 0 0 0 / 0
IP late: 5534 154d00 10 / 25
IP wrong: 0 0 0 / 0
miss rate: 0.0126979
coverage: 0
coverage_late: 0.362319
accuracy: 0
accuracy_late: 1
discarded: 0
evicts entangled j table: 0
evicts entangled k table: 1
max bb size: 15
formats: 1 0 1 1 2 0 0 
hist_lookups: 0 0 0 9 8 3 0 0 0 0 2 1 0 2 0 0 0 145 
hist_lookups_evict: 0 %
hist_lookups_shortlat: 85.2942 %
bb_found_hist: 0 1071 487 209 30 19 20 0 0 0 0 0 0 0 0 10 0 0 0 0 0 0 0 0 0 0 0 0 0 0 0 0 0 0 0 0 0 0 0 0 0 0 0 0 0 0 0 0 0 0 0 0 0 0 0 0 0 0 0 0 0 0 0 0 
bb_found_summary: 3157 1846 1.71019
entangled_found_hist: 0 389 349 131 20 0 0 0 
entangled_found_summary: 1560 889 1.75479
bb_ent_found_hist: 0 591 313 84 30 20 20 0 0 0 0 0 0 0 0 10 0 0 0 0 0 0 0 0 0 0 0 0 0 0 0 0 0 0 0 0 0 0 0 0 0 0 0 0 0 0 0 0 0 0 0 0 0 0 0 0 0 0 0 0 0 0 0 0 
bb_ent_found_summary: 1959 1068 1.83427
