WARNING: physical memory size is smaller than virtual memory size.

*** ChampSim Multicore Out-of-Order Simulator ***
Warmup Instructions: 30000000
Simulation Instructions: 100000000
Number of CPUs: 1
Page size: 4096

BTB:
Basic BTB sets: 1024 ways: 8
Indirect:
history lengths: 0 0 10 16 27 44 60 96 109 219 449 487 714 1313 2146 3881 
ITTAGE tables: 64768 bytes;Region table: 240 bytes;IUM: 384 bytes;Total Storage= 65392 bytes;
RAS:
RAS size: 64
[LLC] INSTR Demand IPV: 1 2 2 1 4 Prefetch IPV: 1 2 1 1 4
[LLC] DATA  Demand IPV: 1 1 1 2 4 Prefetch IPV: 1 1 2 2 4
Berti Prefetcher
CPU 0 Entangling prefetcher
Off-chip DRAM Size: 8 GiB Channels: 2 Width: 64-bit Data Race: 6400 MT/s
[DUEL] Epoch ended. INSTR misses = 13, DATA misses = 7. Winner = DATA
[DUEL] Epoch ended. INSTR misses = 99, DATA misses = 98. Winner = DATA
[DUEL] Epoch ended. INSTR misses = 42, DATA misses = 19. Winner = DATA
[DUEL] Epoch ended. INSTR misses = 11, DATA misses = 20. Winner = INSTR
[DUEL] Epoch ended. INSTR misses = 21, DATA misses = 12. Winner = DATA
[DUEL] Epoch ended. INSTR misses = 14, DATA misses = 19. Winner = INSTR
[DUEL] Epoch ended. INSTR misses = 3, DATA misses = 13. Winner = INSTR
[DUEL] Epoch ended. INSTR misses = 32, DATA misses = 2. Winner = DATA
[DUEL] Epoch ended. INSTR misses = 3, DATA misses = 15. Winner = INSTR
[DUEL] Epoch ended. INSTR misses = 33, DATA misses = 17. Winner = DATA
[DUEL] Epoch ended. INSTR misses = 20, DATA misses = 26. Winner = INSTR
[DUEL] Epoch ended. INSTR misses = 18, DATA misses = 21. Winner = INSTR
[DUEL] Epoch ended. INSTR misses = 23, DATA misses = 17. Winner = DATA
[DUEL] Epoch ended. INSTR misses = 22, DATA misses = 12. Winner = DATA
[DUEL] Epoch ended. INSTR misses = 22, DATA misses = 22. Winner = INSTR
[DUEL] Epoch ended. INSTR misses = 4, DATA misses = 22. Winner = INSTR
[DUEL] Epoch ended. INSTR misses = 21, DATA misses = 3. Winner = DATA
[DUEL] Epoch ended. INSTR misses = 27, DATA misses = 1. Winner = DATA
[DUEL] Epoch ended. INSTR misses = 19, DATA misses = 42. Winner = INSTR
[DUEL] Epoch ended. INSTR misses = 32, DATA misses = 15. Winner = DATA
[DUEL] Epoch ended. INSTR misses = 1, DATA misses = 27. Winner = INSTR
[DUEL] Epoch ended. INSTR misses = 16, DATA misses = 0. Winner = DATA
[DUEL] Epoch ended. INSTR misses = 9, DATA misses = 14. Winner = INSTR
[DUEL] Epoch ended. INSTR misses = 28, DATA misses = 8. Winner = DATA
[DUEL] Epoch ended. INSTR misses = 26, DATA misses = 21. Winner = DATA
[DUEL] Epoch ended. INSTR misses = 10, DATA misses = 17. Winner = INSTR
[DUEL] Epoch ended. INSTR misses = 35, DATA misses = 19. Winner = DATA
[DUEL] Epoch ended. INSTR misses = 9, DATA misses = 13. Winner = INSTR
[DUEL] Epoch ended. INSTR misses = 24, DATA misses = 12. Winner = DATA
[DUEL] Epoch ended. INSTR misses = 16, DATA misses = 29. Winner = INSTR
[DUEL] Epoch ended. INSTR misses = 17, DATA misses = 14. Winner = DATA
[DUEL] Epoch ended. INSTR misses = 11, DATA misses = 12. Winner = INSTR
[DUEL] Epoch ended. INSTR misses = 17, DATA misses = 4. Winner = DATA
[DUEL] Epoch ended. INSTR misses = 28, DATA misses = 23. Winner = DATA
[DUEL] Epoch ended. INSTR misses = 12, DATA misses = 24. Winner = INSTR
[DUEL] Epoch ended. INSTR misses = 11, DATA misses = 5. Winner = DATA
[DUEL] Epoch ended. INSTR misses = 25, DATA misses = 15. Winner = DATA
[DUEL] Epoch ended. INSTR misses = 18, DATA misses = 25. Winner = INSTR
Heartbeat CPU 0 instructions: 10000011 cycles: 1699303 heartbeat IPC: 5.885 cumulative IPC: 5.885 (Simulation time: 00 hr 00 min 25 sec)
[DUEL] Epoch ended. INSTR misses = 22, DATA misses = 16. Winner = DATA
[DUEL] Epoch ended. INSTR misses = 17, DATA misses = 20. Winner = INSTR
[DUEL] Epoch ended. INSTR misses = 26, DATA misses = 18. Winner = DATA
[DUEL] Epoch ended. INSTR misses = 15, DATA misses = 27. Winner = INSTR
[DUEL] Epoch ended. INSTR misses = 55, DATA misses = 46. Winner = DATA
[DUEL] Epoch ended. INSTR misses = 65, DATA misses = 52. Winner = DATA
[DUEL] Epoch ended. INSTR misses = 79, DATA misses = 72. Winner = DATA
[DUEL] Epoch ended. INSTR misses = 24, DATA misses = 35. Winner = INSTR
[DUEL] Epoch ended. INSTR misses = 16, DATA misses = 11. Winner = DATA
[DUEL] Epoch ended. INSTR misses = 12, DATA misses = 15. Winner = INSTR
[DUEL] Epoch ended. INSTR misses = 17, DATA misses = 11. Winner = DATA
[DUEL] Epoch ended. INSTR misses = 25, DATA misses = 12. Winner = DATA
[DUEL] Epoch ended. INSTR misses = 30, DATA misses = 37. Winner = INSTR
[DUEL] Epoch ended. INSTR misses = 42, DATA misses = 36. Winner = DATA
[DUEL] Epoch ended. INSTR misses = 38, DATA misses = 48. Winner = INSTR
[DUEL] Epoch ended. INSTR misses = 94, DATA misses = 94. Winner = INSTR
[DUEL] Epoch ended. INSTR misses = 46, DATA misses = 42. Winner = DATA
[DUEL] Epoch ended. INSTR misses = 76, DATA misses = 72. Winner = DATA
[DUEL] Epoch ended. INSTR misses = 48, DATA misses = 41. Winner = DATA
[DUEL] Epoch ended. INSTR misses = 63, DATA misses = 76. Winner = INSTR
[DUEL] Epoch ended. INSTR misses = 36, DATA misses = 32. Winner = DATA
[DUEL] Epoch ended. INSTR misses = 61, DATA misses = 46. Winner = DATA
[DUEL] Epoch ended. INSTR misses = 47, DATA misses = 64. Winner = INSTR
[DUEL] Epoch ended. INSTR misses = 48, DATA misses = 38. Winner = DATA
[DUEL] Epoch ended. INSTR misses = 55, DATA misses = 64. Winner = INSTR
[DUEL] Epoch ended. INSTR misses = 56, DATA misses = 47. Winner = DATA
[DUEL] Epoch ended. INSTR misses = 54, DATA misses = 64. Winner = INSTR
[DUEL] Epoch ended. INSTR misses = 64, DATA misses = 64. Winner = INSTR
[DUEL] Epoch ended. INSTR misses = 16, DATA misses = 16. Winner = INSTR
[DUEL] Epoch ended. INSTR misses = 93, DATA misses = 69. Winner = DATA
[DUEL] Epoch ended. INSTR misses = 52, DATA misses = 76. Winner = INSTR
[DUEL] Epoch ended. INSTR misses = 80, DATA misses = 68. Winner = DATA
[DUEL] Epoch ended. INSTR misses = 37, DATA misses = 32. Winner = DATA
[DUEL] Epoch ended. INSTR misses = 59, DATA misses = 50. Winner = DATA
[DUEL] Epoch ended. INSTR misses = 64, DATA misses = 88. Winner = INSTR
[DUEL] Epoch ended. INSTR misses = 95, DATA misses = 84. Winner = DATA
[DUEL] Epoch ended. INSTR misses = 48, DATA misses = 48. Winner = INSTR
[DUEL] Epoch ended. INSTR misses = 24, DATA misses = 25. Winner = INSTR
[DUEL] Epoch ended. INSTR misses = 48, DATA misses = 54. Winner = INSTR
[DUEL] Epoch ended. INSTR misses = 64, DATA misses = 64. Winner = INSTR
Heartbeat CPU 0 instructions: 20000002 cycles: 3388771 heartbeat IPC: 5.919 cumulative IPC: 5.902 (Simulation time: 00 hr 00 min 50 sec)
[DUEL] Epoch ended. INSTR misses = 33, DATA misses = 32. Winner = DATA
[DUEL] Epoch ended. INSTR misses = 39, DATA misses = 35. Winner = DATA
[DUEL] Epoch ended. INSTR misses = 48, DATA misses = 48. Winner = INSTR
[DUEL] Epoch ended. INSTR misses = 48, DATA misses = 48. Winner = INSTR
[DUEL] Epoch ended. INSTR misses = 48, DATA misses = 47. Winner = DATA
[DUEL] Epoch ended. INSTR misses = 36, DATA misses = 19. Winner = DATA
[DUEL] Epoch ended. INSTR misses = 62, DATA misses = 76. Winner = INSTR
[DUEL] Epoch ended. INSTR misses = 49, DATA misses = 48. Winner = DATA
[DUEL] Epoch ended. INSTR misses = 64, DATA misses = 64. Winner = INSTR
[DUEL] Epoch ended. INSTR misses = 41, DATA misses = 39. Winner = DATA
[DUEL] Epoch ended. INSTR misses = 63, DATA misses = 65. Winner = INSTR
[DUEL] Epoch ended. INSTR misses = 33, DATA misses = 33. Winner = INSTR
[DUEL] Epoch ended. INSTR misses = 78, DATA misses = 79. Winner = INSTR
[DUEL] Epoch ended. INSTR misses = 49, DATA misses = 48. Winner = DATA
[DUEL] Epoch ended. INSTR misses = 32, DATA misses = 33. Winner = INSTR
[DUEL] Epoch ended. INSTR misses = 47, DATA misses = 47. Winner = INSTR
[DUEL] Epoch ended. INSTR misses = 65, DATA misses = 64. Winner = DATA
[DUEL] Epoch ended. INSTR misses = 64, DATA misses = 63. Winner = DATA
[DUEL] Epoch ended. INSTR misses = 57, DATA misses = 48. Winner = DATA
[DUEL] Epoch ended. INSTR misses = 48, DATA misses = 49. Winner = INSTR
[DUEL] Epoch ended. INSTR misses = 54, DATA misses = 48. Winner = DATA
[DUEL] Epoch ended. INSTR misses = 50, DATA misses = 48. Winner = DATA
[DUEL] Epoch ended. INSTR misses = 63, DATA misses = 64. Winner = INSTR
[DUEL] Epoch ended. INSTR misses = 49, DATA misses = 50. Winner = INSTR
[DUEL] Epoch ended. INSTR misses = 79, DATA misses = 79. Winner = INSTR
[DUEL] Epoch ended. INSTR misses = 83, DATA misses = 80. Winner = DATA
[DUEL] Epoch ended. INSTR misses = 61, DATA misses = 64. Winner = INSTR
[DUEL] Epoch ended. INSTR misses = 47, DATA misses = 49. Winner = INSTR
[DUEL] Epoch ended. INSTR misses = 80, DATA misses = 80. Winner = INSTR
[DUEL] Epoch ended. INSTR misses = 62, DATA misses = 64. Winner = INSTR
[DUEL] Epoch ended. INSTR misses = 67, DATA misses = 61. Winner = DATA
[DUEL] Epoch ended. INSTR misses = 92, DATA misses = 66. Winner = DATA
[DUEL] Epoch ended. INSTR misses = 413, DATA misses = 405. Winner = DATA
[DUEL] Epoch ended. INSTR misses = 233, DATA misses = 226. Winner = DATA
[DUEL] Epoch ended. INSTR misses = 195, DATA misses = 196. Winner = INSTR
[DUEL] Epoch ended. INSTR misses = 155, DATA misses = 156. Winner = INSTR
[DUEL] Epoch ended. INSTR misses = 206, DATA misses = 192. Winner = DATA
[DUEL] Epoch ended. INSTR misses = 222, DATA misses = 221. Winner = DATA
[DUEL] Epoch ended. INSTR misses = 112, DATA misses = 111. Winner = DATA
Heartbeat CPU 0 instructions: 30000001 cycles: 5622018 heartbeat IPC: 4.478 cumulative IPC: 5.336 (Simulation time: 00 hr 01 min 21 sec)
Warmup finished CPU 0 instructions: 30000001 cycles: 5622019 cumulative IPC: 5.336 (Simulation time: 00 hr 01 min 21 sec)
Warmup complete CPU 0 instructions: 30000001 cycles: 5622019 cumulative IPC: 5.336 (Simulation time: 00 hr 01 min 21 sec)
[DUEL] Epoch ended. INSTR misses = 49, DATA misses = 47. Winner = DATA
[DUEL] Epoch ended. INSTR misses = 82, DATA misses = 79. Winner = DATA
[DUEL] Epoch ended. INSTR misses = 66, DATA misses = 64. Winner = DATA
[DUEL] Epoch ended. INSTR misses = 16, DATA misses = 16. Winner = INSTR
[DUEL] Epoch ended. INSTR misses = 66, DATA misses = 64. Winner = DATA
[DUEL] Epoch ended. INSTR misses = 95, DATA misses = 96. Winner = INSTR
[DUEL] Epoch ended. INSTR misses = 52, DATA misses = 54. Winner = INSTR
[DUEL] Epoch ended. INSTR misses = 63, DATA misses = 62. Winner = DATA
[DUEL] Epoch ended. INSTR misses = 59, DATA misses = 50. Winner = DATA
[DUEL] Epoch ended. INSTR misses = 87, DATA misses = 81. Winner = DATA
[DUEL] Epoch ended. INSTR misses = 75, DATA misses = 80. Winner = INSTR
[DUEL] Epoch ended. INSTR misses = 78, DATA misses = 77. Winner = DATA
[DUEL] Epoch ended. INSTR misses = 95, DATA misses = 96. Winner = INSTR
[DUEL] Epoch ended. INSTR misses = 65, DATA misses = 62. Winner = DATA
[DUEL] Epoch ended. INSTR misses = 97, DATA misses = 85. Winner = DATA
[DUEL] Epoch ended. INSTR misses = 49, DATA misses = 47. Winner = DATA
[DUEL] Epoch ended. INSTR misses = 33, DATA misses = 22. Winner = DATA
[DUEL] Epoch ended. INSTR misses = 80, DATA misses = 90. Winner = INSTR
[DUEL] Epoch ended. INSTR misses = 19, DATA misses = 16. Winner = DATA
[DUEL] Epoch ended. INSTR misses = 65, DATA misses = 63. Winner = DATA
[DUEL] Epoch ended. INSTR misses = 50, DATA misses = 47. Winner = DATA
[DUEL] Epoch ended. INSTR misses = 61, DATA misses = 64. Winner = INSTR
[DUEL] Epoch ended. INSTR misses = 35, DATA misses = 32. Winner = DATA
[DUEL] Epoch ended. INSTR misses = 53, DATA misses = 59. Winner = INSTR
[DUEL] Epoch ended. INSTR misses = 82, DATA misses = 92. Winner = INSTR
[DUEL] Epoch ended. INSTR misses = 49, DATA misses = 35. Winner = DATA
[DUEL] Epoch ended. INSTR misses = 62, DATA misses = 63. Winner = INSTR
[DUEL] Epoch ended. INSTR misses = 108, DATA misses = 78. Winner = DATA
[DUEL] Epoch ended. INSTR misses = 149, DATA misses = 145. Winner = DATA
[DUEL] Epoch ended. INSTR misses = 73, DATA misses = 76. Winner = INSTR
[DUEL] Epoch ended. INSTR misses = 32, DATA misses = 32. Winner = INSTR
[DUEL] Epoch ended. INSTR misses = 36, DATA misses = 32. Winner = DATA
[DUEL] Epoch ended. INSTR misses = 64, DATA misses = 64. Winner = INSTR
[DUEL] Epoch ended. INSTR misses = 127, DATA misses = 122. Winner = DATA
[DUEL] Epoch ended. INSTR misses = 113, DATA misses = 117. Winner = INSTR
[DUEL] Epoch ended. INSTR misses = 97, DATA misses = 96. Winner = DATA
[DUEL] Epoch ended. INSTR misses = 82, DATA misses = 79. Winner = DATA
[DUEL] Epoch ended. INSTR misses = 111, DATA misses = 111. Winner = INSTR
[DUEL] Epoch ended. INSTR misses = 96, DATA misses = 96. Winner = INSTR
Heartbeat CPU 0 instructions: 40000010 cycles: 19348870 heartbeat IPC: 0.7285 cumulative IPC: 0.7285 (Simulation time: 00 hr 03 min 21 sec)
[DUEL] Epoch ended. INSTR misses = 145, DATA misses = 144. Winner = DATA
[DUEL] Epoch ended. INSTR misses = 114, DATA misses = 112. Winner = DATA
[DUEL] Epoch ended. INSTR misses = 161, DATA misses = 160. Winner = DATA
[DUEL] Epoch ended. INSTR misses = 161, DATA misses = 159. Winner = DATA
[DUEL] Epoch ended. INSTR misses = 115, DATA misses = 112. Winner = DATA
[DUEL] Epoch ended. INSTR misses = 99, DATA misses = 96. Winner = DATA
[DUEL] Epoch ended. INSTR misses = 113, DATA misses = 111. Winner = DATA
[DUEL] Epoch ended. INSTR misses = 144, DATA misses = 144. Winner = INSTR
[DUEL] Epoch ended. INSTR misses = 130, DATA misses = 131. Winner = INSTR
[DUEL] Epoch ended. INSTR misses = 154, DATA misses = 144. Winner = DATA
[DUEL] Epoch ended. INSTR misses = 99, DATA misses = 96. Winner = DATA
[DUEL] Epoch ended. INSTR misses = 131, DATA misses = 130. Winner = DATA
[DUEL] Epoch ended. INSTR misses = 96, DATA misses = 96. Winner = INSTR
[DUEL] Epoch ended. INSTR misses = 114, DATA misses = 112. Winner = DATA
[DUEL] Epoch ended. INSTR misses = 112, DATA misses = 112. Winner = INSTR
[DUEL] Epoch ended. INSTR misses = 144, DATA misses = 143. Winner = DATA
[DUEL] Epoch ended. INSTR misses = 113, DATA misses = 112. Winner = DATA
[DUEL] Epoch ended. INSTR misses = 138, DATA misses = 143. Winner = INSTR
[DUEL] Epoch ended. INSTR misses = 115, DATA misses = 111. Winner = DATA
[DUEL] Epoch ended. INSTR misses = 97, DATA misses = 96. Winner = DATA
[DUEL] Epoch ended. INSTR misses = 176, DATA misses = 176. Winner = INSTR
[DUEL] Epoch ended. INSTR misses = 32, DATA misses = 32. Winner = INSTR
[DUEL] Epoch ended. INSTR misses = 17, DATA misses = 16. Winner = DATA
[DUEL] Epoch ended. INSTR misses = 15, DATA misses = 15. Winner = INSTR
[DUEL] Epoch ended. INSTR misses = 16, DATA misses = 16. Winner = INSTR
[DUEL] Epoch ended. INSTR misses = 16, DATA misses = 16. Winner = INSTR
[DUEL] Epoch ended. INSTR misses = 48, DATA misses = 46. Winner = DATA
[DUEL] Epoch ended. INSTR misses = 46, DATA misses = 48. Winner = INSTR
[DUEL] Epoch ended. INSTR misses = 33, DATA misses = 32. Winner = DATA
[DUEL] Epoch ended. INSTR misses = 58, DATA misses = 18. Winner = DATA
[DUEL] Epoch ended. INSTR misses = 3, DATA misses = 40. Winner = INSTR
[DUEL] Epoch ended. INSTR misses = 45, DATA misses = 34. Winner = DATA
[DUEL] Epoch ended. INSTR misses = 0, DATA misses = 7. Winner = INSTR
[DUEL] Epoch ended. INSTR misses = 16, DATA misses = 16. Winner = INSTR
[DUEL] Epoch ended. INSTR misses = 30, DATA misses = 31. Winner = INSTR
[DUEL] Epoch ended. INSTR misses = 33, DATA misses = 32. Winner = DATA
[DUEL] Epoch ended. INSTR misses = 0, DATA misses = 0. Winner = INSTR
[DUEL] Epoch ended. INSTR misses = 66, DATA misses = 61. Winner = DATA
[DUEL] Epoch ended. INSTR misses = 14, DATA misses = 19. Winner = INSTR
Heartbeat CPU 0 instructions: 50000000 cycles: 42807507 heartbeat IPC: 0.4263 cumulative IPC: 0.5378 (Simulation time: 00 hr 06 min 49 sec)
[DUEL] Epoch ended. INSTR misses = 0, DATA misses = 14. Winner = INSTR
[DUEL] Epoch ended. INSTR misses = 32, DATA misses = 32. Winner = INSTR
[DUEL] Epoch ended. INSTR misses = 32, DATA misses = 32. Winner = INSTR
[DUEL] Epoch ended. INSTR misses = 32, DATA misses = 32. Winner = INSTR
[DUEL] Epoch ended. INSTR misses = 16, DATA misses = 16. Winner = INSTR
[DUEL] Epoch ended. INSTR misses = 1, DATA misses = 0. Winner = DATA
[DUEL] Epoch ended. INSTR misses = 46, DATA misses = 47. Winner = INSTR
[DUEL] Epoch ended. INSTR misses = 39, DATA misses = 38. Winner = DATA
[DUEL] Epoch ended. INSTR misses = 17, DATA misses = 6. Winner = DATA
[DUEL] Epoch ended. INSTR misses = 49, DATA misses = 43. Winner = DATA
[DUEL] Epoch ended. INSTR misses = 23, DATA misses = 37. Winner = INSTR
[DUEL] Epoch ended. INSTR misses = 17, DATA misses = 16. Winner = DATA
[DUEL] Epoch ended. INSTR misses = 16, DATA misses = 16. Winner = INSTR
[DUEL] Epoch ended. INSTR misses = 16, DATA misses = 16. Winner = INSTR
[DUEL] Epoch ended. INSTR misses = 17, DATA misses = 16. Winner = DATA
[DUEL] Epoch ended. INSTR misses = 13, DATA misses = 0. Winner = DATA
[DUEL] Epoch ended. INSTR misses = 19, DATA misses = 32. Winner = INSTR
[DUEL] Epoch ended. INSTR misses = 27, DATA misses = 30. Winner = INSTR
[DUEL] Epoch ended. INSTR misses = 59, DATA misses = 56. Winner = DATA
[DUEL] Epoch ended. INSTR misses = 44, DATA misses = 32. Winner = DATA
[DUEL] Epoch ended. INSTR misses = 25, DATA misses = 39. Winner = INSTR
[DUEL] Epoch ended. INSTR misses = 35, DATA misses = 39. Winner = INSTR
[DUEL] Epoch ended. INSTR misses = 44, DATA misses = 32. Winner = DATA
[DUEL] Epoch ended. INSTR misses = 45, DATA misses = 64. Winner = INSTR
[DUEL] Epoch ended. INSTR misses = 0, DATA misses = 0. Winner = INSTR
[DUEL] Epoch ended. INSTR misses = 32, DATA misses = 32. Winner = INSTR
[DUEL] Epoch ended. INSTR misses = 1, DATA misses = 0. Winner = DATA
[DUEL] Epoch ended. INSTR misses = 32, DATA misses = 32. Winner = INSTR
[DUEL] Epoch ended. INSTR misses = 0, DATA misses = 0. Winner = INSTR
[DUEL] Epoch ended. INSTR misses = 32, DATA misses = 32. Winner = INSTR
[DUEL] Epoch ended. INSTR misses = 48, DATA misses = 48. Winner = INSTR
[DUEL] Epoch ended. INSTR misses = 2, DATA misses = 0. Winner = DATA
[DUEL] Epoch ended. INSTR misses = 47, DATA misses = 47. Winner = INSTR
[DUEL] Epoch ended. INSTR misses = 15, DATA misses = 17. Winner = INSTR
[DUEL] Epoch ended. INSTR misses = 50, DATA misses = 48. Winner = DATA
[DUEL] Epoch ended. INSTR misses = 62, DATA misses = 64. Winner = INSTR
[DUEL] Epoch ended. INSTR misses = 16, DATA misses = 16. Winner = INSTR
[DUEL] Epoch ended. INSTR misses = 17, DATA misses = 16. Winner = DATA
[DUEL] Epoch ended. INSTR misses = 62, DATA misses = 60. Winner = DATA
Heartbeat CPU 0 instructions: 60000005 cycles: 52544912 heartbeat IPC: 1.027 cumulative IPC: 0.6393 (Simulation time: 00 hr 08 min 16 sec)
[DUEL] Epoch ended. INSTR misses = 48, DATA misses = 45. Winner = DATA
[DUEL] Epoch ended. INSTR misses = 16, DATA misses = 23. Winner = INSTR
[DUEL] Epoch ended. INSTR misses = 32, DATA misses = 31. Winner = DATA
[DUEL] Epoch ended. INSTR misses = 0, DATA misses = 0. Winner = INSTR
[DUEL] Epoch ended. INSTR misses = 9, DATA misses = 4. Winner = DATA
[DUEL] Epoch ended. INSTR misses = 32, DATA misses = 32. Winner = INSTR
[DUEL] Epoch ended. INSTR misses = 28, DATA misses = 26. Winner = DATA
[DUEL] Epoch ended. INSTR misses = 53, DATA misses = 53. Winner = INSTR
[DUEL] Epoch ended. INSTR misses = 71, DATA misses = 68. Winner = DATA
[DUEL] Epoch ended. INSTR misses = 32, DATA misses = 32. Winner = INSTR
[DUEL] Epoch ended. INSTR misses = 16, DATA misses = 16. Winner = INSTR
[DUEL] Epoch ended. INSTR misses = 68, DATA misses = 50. Winner = DATA
[DUEL] Epoch ended. INSTR misses = 46, DATA misses = 45. Winner = DATA
[DUEL] Epoch ended. INSTR misses = 28, DATA misses = 31. Winner = INSTR
[DUEL] Epoch ended. INSTR misses = 17, DATA misses = 28. Winner = INSTR
[DUEL] Epoch ended. INSTR misses = 1, DATA misses = 0. Winner = DATA
[DUEL] Epoch ended. INSTR misses = 16, DATA misses = 7. Winner = DATA
[DUEL] Epoch ended. INSTR misses = 9, DATA misses = 9. Winner = INSTR
[DUEL] Epoch ended. INSTR misses = 25, DATA misses = 32. Winner = INSTR
[DUEL] Epoch ended. INSTR misses = 51, DATA misses = 44. Winner = DATA
[DUEL] Epoch ended. INSTR misses = 13, DATA misses = 15. Winner = INSTR
[DUEL] Epoch ended. INSTR misses = 53, DATA misses = 32. Winner = DATA
[DUEL] Epoch ended. INSTR misses = 33, DATA misses = 54. Winner = INSTR
[DUEL] Epoch ended. INSTR misses = 31, DATA misses = 32. Winner = INSTR
[DUEL] Epoch ended. INSTR misses = 42, DATA misses = 35. Winner = DATA
[DUEL] Epoch ended. INSTR misses = 0, DATA misses = 4. Winner = INSTR
[DUEL] Epoch ended. INSTR misses = 32, DATA misses = 32. Winner = INSTR
[DUEL] Epoch ended. INSTR misses = 64, DATA misses = 64. Winner = INSTR
[DUEL] Epoch ended. INSTR misses = 17, DATA misses = 16. Winner = DATA
[DUEL] Epoch ended. INSTR misses = 56, DATA misses = 47. Winner = DATA
[DUEL] Epoch ended. INSTR misses = 57, DATA misses = 48. Winner = DATA
[DUEL] Epoch ended. INSTR misses = 17, DATA misses = 30. Winner = INSTR
[DUEL] Epoch ended. INSTR misses = 47, DATA misses = 48. Winner = INSTR
[DUEL] Epoch ended. INSTR misses = 32, DATA misses = 32. Winner = INSTR
[DUEL] Epoch ended. INSTR misses = 0, DATA misses = 0. Winner = INSTR
[DUEL] Epoch ended. INSTR misses = 16, DATA misses = 16. Winner = INSTR
[DUEL] Epoch ended. INSTR misses = 64, DATA misses = 58. Winner = DATA
[DUEL] Epoch ended. INSTR misses = 32, DATA misses = 37. Winner = INSTR
[DUEL] Epoch ended. INSTR misses = 32, DATA misses = 31. Winner = DATA
Heartbeat CPU 0 instructions: 70000007 cycles: 62393884 heartbeat IPC: 1.015 cumulative IPC: 0.7046 (Simulation time: 00 hr 09 min 44 sec)
[DUEL] Epoch ended. INSTR misses = 18, DATA misses = 15. Winner = DATA
[DUEL] Epoch ended. INSTR misses = 47, DATA misses = 48. Winner = INSTR
[DUEL] Epoch ended. INSTR misses = 27, DATA misses = 16. Winner = DATA
[DUEL] Epoch ended. INSTR misses = 6, DATA misses = 16. Winner = INSTR
[DUEL] Epoch ended. INSTR misses = 16, DATA misses = 16. Winner = INSTR
[DUEL] Epoch ended. INSTR misses = 16, DATA misses = 16. Winner = INSTR
[DUEL] Epoch ended. INSTR misses = 32, DATA misses = 32. Winner = INSTR
[DUEL] Epoch ended. INSTR misses = 16, DATA misses = 16. Winner = INSTR
[DUEL] Epoch ended. INSTR misses = 16, DATA misses = 15. Winner = DATA
[DUEL] Epoch ended. INSTR misses = 17, DATA misses = 15. Winner = DATA
[DUEL] Epoch ended. INSTR misses = 64, DATA misses = 48. Winner = DATA
[DUEL] Epoch ended. INSTR misses = 2, DATA misses = 16. Winner = INSTR
[DUEL] Epoch ended. INSTR misses = 17, DATA misses = 25. Winner = INSTR
[DUEL] Epoch ended. INSTR misses = 1, DATA misses = 0. Winner = DATA
[DUEL] Epoch ended. INSTR misses = 17, DATA misses = 16. Winner = DATA
[DUEL] Epoch ended. INSTR misses = 16, DATA misses = 16. Winner = INSTR
[DUEL] Epoch ended. INSTR misses = 64, DATA misses = 50. Winner = DATA
[DUEL] Epoch ended. INSTR misses = 0, DATA misses = 14. Winner = INSTR
[DUEL] Epoch ended. INSTR misses = 65, DATA misses = 63. Winner = DATA
[DUEL] Epoch ended. INSTR misses = 17, DATA misses = 16. Winner = DATA
[DUEL] Epoch ended. INSTR misses = 6, DATA misses = 0. Winner = DATA
[DUEL] Epoch ended. INSTR misses = 92, DATA misses = 96. Winner = INSTR
[DUEL] Epoch ended. INSTR misses = 15, DATA misses = 16. Winner = INSTR
[DUEL] Epoch ended. INSTR misses = 16, DATA misses = 16. Winner = INSTR
[DUEL] Epoch ended. INSTR misses = 64, DATA misses = 64. Winner = INSTR
[DUEL] Epoch ended. INSTR misses = 81, DATA misses = 58. Winner = DATA
[DUEL] Epoch ended. INSTR misses = 16, DATA misses = 38. Winner = INSTR
[DUEL] Epoch ended. INSTR misses = 57, DATA misses = 47. Winner = DATA
[DUEL] Epoch ended. INSTR misses = 40, DATA misses = 45. Winner = INSTR
[DUEL] Epoch ended. INSTR misses = 32, DATA misses = 32. Winner = INSTR
[DUEL] Epoch ended. INSTR misses = 79, DATA misses = 77. Winner = DATA
[DUEL] Epoch ended. INSTR misses = 66, DATA misses = 66. Winner = INSTR
[DUEL] Epoch ended. INSTR misses = 16, DATA misses = 16. Winner = INSTR
[DUEL] Epoch ended. INSTR misses = 128, DATA misses = 126. Winner = DATA
[DUEL] Epoch ended. INSTR misses = 49, DATA misses = 48. Winner = DATA
[DUEL] Epoch ended. INSTR misses = 49, DATA misses = 48. Winner = DATA
[DUEL] Epoch ended. INSTR misses = 112, DATA misses = 112. Winner = INSTR
[DUEL] Epoch ended. INSTR misses = 33, DATA misses = 32. Winner = DATA
[DUEL] Epoch ended. INSTR misses = 64, DATA misses = 63. Winner = DATA
Heartbeat CPU 0 instructions: 80000004 cycles: 72753831 heartbeat IPC: 0.9653 cumulative IPC: 0.7448 (Simulation time: 00 hr 11 min 16 sec)
[DUEL] Epoch ended. INSTR misses = 68, DATA misses = 64. Winner = DATA
[DUEL] Epoch ended. INSTR misses = 64, DATA misses = 51. Winner = DATA
[DUEL] Epoch ended. INSTR misses = 63, DATA misses = 62. Winner = DATA
[DUEL] Epoch ended. INSTR misses = 111, DATA misses = 111. Winner = INSTR
[DUEL] Epoch ended. INSTR misses = 64, DATA misses = 63. Winner = DATA
[DUEL] Epoch ended. INSTR misses = 79, DATA misses = 79. Winner = INSTR
[DUEL] Epoch ended. INSTR misses = 49, DATA misses = 47. Winner = DATA
[DUEL] Epoch ended. INSTR misses = 81, DATA misses = 68. Winner = DATA
[DUEL] Epoch ended. INSTR misses = 49, DATA misses = 47. Winner = DATA
[DUEL] Epoch ended. INSTR misses = 49, DATA misses = 46. Winner = DATA
[DUEL] Epoch ended. INSTR misses = 81, DATA misses = 82. Winner = INSTR
[DUEL] Epoch ended. INSTR misses = 2, DATA misses = 0. Winner = DATA
[DUEL] Epoch ended. INSTR misses = 81, DATA misses = 79. Winner = DATA
[DUEL] Epoch ended. INSTR misses = 64, DATA misses = 61. Winner = DATA
[DUEL] Epoch ended. INSTR misses = 32, DATA misses = 34. Winner = INSTR
[DUEL] Epoch ended. INSTR misses = 52, DATA misses = 48. Winner = DATA
[DUEL] Epoch ended. INSTR misses = 73, DATA misses = 62. Winner = DATA
[DUEL] Epoch ended. INSTR misses = 59, DATA misses = 67. Winner = INSTR
[DUEL] Epoch ended. INSTR misses = 46, DATA misses = 45. Winner = DATA
[DUEL] Epoch ended. INSTR misses = 53, DATA misses = 50. Winner = DATA
[DUEL] Epoch ended. INSTR misses = 85, DATA misses = 77. Winner = DATA
[DUEL] Epoch ended. INSTR misses = 142, DATA misses = 144. Winner = INSTR
[DUEL] Epoch ended. INSTR misses = 79, DATA misses = 76. Winner = DATA
[DUEL] Epoch ended. INSTR misses = 32, DATA misses = 32. Winner = INSTR
[DUEL] Epoch ended. INSTR misses = 20, DATA misses = 16. Winner = DATA
[DUEL] Epoch ended. INSTR misses = 79, DATA misses = 80. Winner = INSTR
[DUEL] Epoch ended. INSTR misses = 81, DATA misses = 80. Winner = DATA
[DUEL] Epoch ended. INSTR misses = 113, DATA misses = 111. Winner = DATA
[DUEL] Epoch ended. INSTR misses = 144, DATA misses = 144. Winner = INSTR
[DUEL] Epoch ended. INSTR misses = 64, DATA misses = 63. Winner = DATA
[DUEL] Epoch ended. INSTR misses = 81, DATA misses = 78. Winner = DATA
[DUEL] Epoch ended. INSTR misses = 128, DATA misses = 128. Winner = INSTR
[DUEL] Epoch ended. INSTR misses = 114, DATA misses = 112. Winner = DATA
[DUEL] Epoch ended. INSTR misses = 129, DATA misses = 123. Winner = DATA
[DUEL] Epoch ended. INSTR misses = 145, DATA misses = 148. Winner = INSTR
[DUEL] Epoch ended. INSTR misses = 161, DATA misses = 159. Winner = DATA
[DUEL] Epoch ended. INSTR misses = 114, DATA misses = 112. Winner = DATA
[DUEL] Epoch ended. INSTR misses = 114, DATA misses = 112. Winner = DATA
[DUEL] Epoch ended. INSTR misses = 112, DATA misses = 111. Winner = DATA
Heartbeat CPU 0 instructions: 90000010 cycles: 87670184 heartbeat IPC: 0.6704 cumulative IPC: 0.7313 (Simulation time: 00 hr 13 min 29 sec)
[DUEL] Epoch ended. INSTR misses = 99, DATA misses = 96. Winner = DATA
[DUEL] Epoch ended. INSTR misses = 127, DATA misses = 128. Winner = INSTR
[DUEL] Epoch ended. INSTR misses = 177, DATA misses = 176. Winner = DATA
[DUEL] Epoch ended. INSTR misses = 68, DATA misses = 64. Winner = DATA
[DUEL] Epoch ended. INSTR misses = 113, DATA misses = 112. Winner = DATA
[DUEL] Epoch ended. INSTR misses = 145, DATA misses = 135. Winner = DATA
[DUEL] Epoch ended. INSTR misses = 98, DATA misses = 105. Winner = INSTR
[DUEL] Epoch ended. INSTR misses = 115, DATA misses = 114. Winner = DATA
[DUEL] Epoch ended. INSTR misses = 93, DATA misses = 94. Winner = INSTR
[DUEL] Epoch ended. INSTR misses = 128, DATA misses = 127. Winner = DATA
[DUEL] Epoch ended. INSTR misses = 128, DATA misses = 126. Winner = DATA
[DUEL] Epoch ended. INSTR misses = 157, DATA misses = 159. Winner = INSTR
[DUEL] Epoch ended. INSTR misses = 114, DATA misses = 107. Winner = DATA
[DUEL] Epoch ended. INSTR misses = 82, DATA misses = 85. Winner = INSTR
[DUEL] Epoch ended. INSTR misses = 159, DATA misses = 160. Winner = INSTR
[DUEL] Epoch ended. INSTR misses = 16, DATA misses = 16. Winner = INSTR
[DUEL] Epoch ended. INSTR misses = 27, DATA misses = 16. Winner = DATA
[DUEL] Epoch ended. INSTR misses = 6, DATA misses = 15. Winner = INSTR
[DUEL] Epoch ended. INSTR misses = 16, DATA misses = 16. Winner = INSTR
[DUEL] Epoch ended. INSTR misses = 28, DATA misses = 0. Winner = DATA
[DUEL] Epoch ended. INSTR misses = 34, DATA misses = 62. Winner = INSTR
[DUEL] Epoch ended. INSTR misses = 62, DATA misses = 64. Winner = INSTR
[DUEL] Epoch ended. INSTR misses = 35, DATA misses = 32. Winner = DATA
[DUEL] Epoch ended. INSTR misses = 77, DATA misses = 74. Winner = DATA
[DUEL] Epoch ended. INSTR misses = 17, DATA misses = 10. Winner = DATA
[DUEL] Epoch ended. INSTR misses = 48, DATA misses = 49. Winner = INSTR
[DUEL] Epoch ended. INSTR misses = 30, DATA misses = 30. Winner = INSTR
[DUEL] Epoch ended. INSTR misses = 16, DATA misses = 16. Winner = INSTR
[DUEL] Epoch ended. INSTR misses = 30, DATA misses = 31. Winner = INSTR
[DUEL] Epoch ended. INSTR misses = 17, DATA misses = 16. Winner = DATA
[DUEL] Epoch ended. INSTR misses = 44, DATA misses = 48. Winner = INSTR
[DUEL] Epoch ended. INSTR misses = 48, DATA misses = 48. Winner = INSTR
[DUEL] Epoch ended. INSTR misses = 0, DATA misses = 5. Winner = INSTR
[DUEL] Epoch ended. INSTR misses = 53, DATA misses = 48. Winner = DATA
[DUEL] Epoch ended. INSTR misses = 30, DATA misses = 23. Winner = DATA
[DUEL] Epoch ended. INSTR misses = 20, DATA misses = 24. Winner = INSTR
[DUEL] Epoch ended. INSTR misses = 32, DATA misses = 32. Winner = INSTR
[DUEL] Epoch ended. INSTR misses = 16, DATA misses = 16. Winner = INSTR
[DUEL] Epoch ended. INSTR misses = 0, DATA misses = 0. Winner = INSTR
Heartbeat CPU 0 instructions: 100000002 cycles: 109643635 heartbeat IPC: 0.4551 cumulative IPC: 0.6729 (Simulation time: 00 hr 16 min 43 sec)
[DUEL] Epoch ended. INSTR misses = 30, DATA misses = 31. Winner = INSTR
*** Reached end of trace: (0, "../traces/secret_traces/compute_fp/compute_fp_30.champsimtrace.xz")
[DUEL] Epoch ended. INSTR misses = 59, DATA misses = 49. Winner = DATA
[DUEL] Epoch ended. INSTR misses = 27, DATA misses = 16. Winner = DATA
[DUEL] Epoch ended. INSTR misses = 35, DATA misses = 53. Winner = INSTR
[DUEL] Epoch ended. INSTR misses = 44, DATA misses = 15. Winner = DATA
[DUEL] Epoch ended. INSTR misses = 5, DATA misses = 35. Winner = INSTR
[DUEL] Epoch ended. INSTR misses = 23, DATA misses = 2. Winner = DATA
[DUEL] Epoch ended. INSTR misses = 10, DATA misses = 18. Winner = INSTR
[DUEL] Epoch ended. INSTR misses = 3, DATA misses = 13. Winner = INSTR
[DUEL] Epoch ended. INSTR misses = 29, DATA misses = 3. Winner = DATA
[DUEL] Epoch ended. INSTR misses = 17, DATA misses = 18. Winner = INSTR
[DUEL] Epoch ended. INSTR misses = 26, DATA misses = 1. Winner = DATA
[DUEL] Epoch ended. INSTR misses = 4, DATA misses = 26. Winner = INSTR
[DUEL] Epoch ended. INSTR misses = 22, DATA misses = 11. Winner = DATA
[DUEL] Epoch ended. INSTR misses = 11, DATA misses = 18. Winner = INSTR
[DUEL] Epoch ended. INSTR misses = 35, DATA misses = 5. Winner = DATA
[DUEL] Epoch ended. INSTR misses = 12, DATA misses = 20. Winner = INSTR
[DUEL] Epoch ended. INSTR misses = 2, DATA misses = 22. Winner = INSTR
[DUEL] Epoch ended. INSTR misses = 16, DATA misses = 0. Winner = DATA
[DUEL] Epoch ended. INSTR misses = 21, DATA misses = 17. Winner = DATA
[DUEL] Epoch ended. INSTR misses = 24, DATA misses = 15. Winner = DATA
[DUEL] Epoch ended. INSTR misses = 22, DATA misses = 21. Winner = DATA
[DUEL] Epoch ended. INSTR misses = 11, DATA misses = 23. Winner = INSTR
[DUEL] Epoch ended. INSTR misses = 5, DATA misses = 0. Winner = DATA
[DUEL] Epoch ended. INSTR misses = 14, DATA misses = 14. Winner = INSTR
[DUEL] Epoch ended. INSTR misses = 17, DATA misses = 8. Winner = DATA
[DUEL] Epoch ended. INSTR misses = 16, DATA misses = 22. Winner = INSTR
[DUEL] Epoch ended. INSTR misses = 14, DATA misses = 9. Winner = DATA
[DUEL] Epoch ended. INSTR misses = 29, DATA misses = 15. Winner = DATA
[DUEL] Epoch ended. INSTR misses = 22, DATA misses = 27. Winner = INSTR
[DUEL] Epoch ended. INSTR misses = 17, DATA misses = 5. Winner = DATA
[DUEL] Epoch ended. INSTR misses = 10, DATA misses = 26. Winner = INSTR
[DUEL] Epoch ended. INSTR misses = 16, DATA misses = 12. Winner = DATA
[DUEL] Epoch ended. INSTR misses = 4, DATA misses = 15. Winner = INSTR
[DUEL] Epoch ended. INSTR misses = 39, DATA misses = 3. Winner = DATA
[DUEL] Epoch ended. INSTR misses = 7, DATA misses = 22. Winner = INSTR
[DUEL] Epoch ended. INSTR misses = 18, DATA misses = 23. Winner = INSTR
[DUEL] Epoch ended. INSTR misses = 9, DATA misses = 11. Winner = INSTR
[DUEL] Epoch ended. INSTR misses = 22, DATA misses = 7. Winner = DATA
Heartbeat CPU 0 instructions: 110000002 cycles: 115792893 heartbeat IPC: 1.626 cumulative IPC: 0.7261 (Simulation time: 00 hr 17 min 44 sec)
[DUEL] Epoch ended. INSTR misses = 25, DATA misses = 28. Winner = INSTR
[DUEL] Epoch ended. INSTR misses = 12, DATA misses = 5. Winner = DATA
[DUEL] Epoch ended. INSTR misses = 14, DATA misses = 24. Winner = INSTR
[DUEL] Epoch ended. INSTR misses = 29, DATA misses = 14. Winner = DATA
[DUEL] Epoch ended. INSTR misses = 34, DATA misses = 31. Winner = DATA
[DUEL] Epoch ended. INSTR misses = 65, DATA misses = 71. Winner = INSTR
[DUEL] Epoch ended. INSTR misses = 54, DATA misses = 38. Winner = DATA
[DUEL] Epoch ended. INSTR misses = 67, DATA misses = 52. Winner = DATA
[DUEL] Epoch ended. INSTR misses = 18, DATA misses = 34. Winner = INSTR
[DUEL] Epoch ended. INSTR misses = 22, DATA misses = 15. Winner = DATA
[DUEL] Epoch ended. INSTR misses = 4, DATA misses = 13. Winner = INSTR
[DUEL] Epoch ended. INSTR misses = 27, DATA misses = 12. Winner = DATA
[DUEL] Epoch ended. INSTR misses = 26, DATA misses = 16. Winner = DATA
[DUEL] Epoch ended. INSTR misses = 21, DATA misses = 38. Winner = INSTR
[DUEL] Epoch ended. INSTR misses = 46, DATA misses = 46. Winner = INSTR
[DUEL] Epoch ended. INSTR misses = 47, DATA misses = 32. Winner = DATA
[DUEL] Epoch ended. INSTR misses = 76, DATA misses = 78. Winner = INSTR
[DUEL] Epoch ended. INSTR misses = 52, DATA misses = 45. Winner = DATA
[DUEL] Epoch ended. INSTR misses = 48, DATA misses = 69. Winner = INSTR
[DUEL] Epoch ended. INSTR misses = 77, DATA misses = 78. Winner = INSTR
[DUEL] Epoch ended. INSTR misses = 32, DATA misses = 33. Winner = INSTR
[DUEL] Epoch ended. INSTR misses = 32, DATA misses = 31. Winner = DATA
[DUEL] Epoch ended. INSTR misses = 45, DATA misses = 45. Winner = INSTR
[DUEL] Epoch ended. INSTR misses = 62, DATA misses = 64. Winner = INSTR
[DUEL] Epoch ended. INSTR misses = 46, DATA misses = 44. Winner = DATA
[DUEL] Epoch ended. INSTR misses = 35, DATA misses = 37. Winner = INSTR
[DUEL] Epoch ended. INSTR misses = 48, DATA misses = 48. Winner = INSTR
[DUEL] Epoch ended. INSTR misses = 61, DATA misses = 64. Winner = INSTR
[DUEL] Epoch ended. INSTR misses = 48, DATA misses = 47. Winner = DATA
[DUEL] Epoch ended. INSTR misses = 30, DATA misses = 31. Winner = INSTR
[DUEL] Epoch ended. INSTR misses = 84, DATA misses = 70. Winner = DATA
[DUEL] Epoch ended. INSTR misses = 61, DATA misses = 74. Winner = INSTR
[DUEL] Epoch ended. INSTR misses = 56, DATA misses = 45. Winner = DATA
[DUEL] Epoch ended. INSTR misses = 48, DATA misses = 48. Winner = INSTR
[DUEL] Epoch ended. INSTR misses = 48, DATA misses = 46. Winner = DATA
[DUEL] Epoch ended. INSTR misses = 78, DATA misses = 78. Winner = INSTR
[DUEL] Epoch ended. INSTR misses = 53, DATA misses = 58. Winner = INSTR
[DUEL] Epoch ended. INSTR misses = 48, DATA misses = 48. Winner = INSTR
[DUEL] Epoch ended. INSTR misses = 25, DATA misses = 32. Winner = INSTR
Heartbeat CPU 0 instructions: 120000001 cycles: 127035697 heartbeat IPC: 0.8895 cumulative IPC: 0.7413 (Simulation time: 00 hr 19 min 21 sec)
[DUEL] Epoch ended. INSTR misses = 62, DATA misses = 64. Winner = INSTR
[DUEL] Epoch ended. INSTR misses = 48, DATA misses = 48. Winner = INSTR
[DUEL] Epoch ended. INSTR misses = 53, DATA misses = 48. Winner = DATA
[DUEL] Epoch ended. INSTR misses = 33, DATA misses = 30. Winner = DATA
[DUEL] Epoch ended. INSTR misses = 48, DATA misses = 47. Winner = DATA
[DUEL] Epoch ended. INSTR misses = 32, DATA misses = 32. Winner = INSTR
[DUEL] Epoch ended. INSTR misses = 43, DATA misses = 43. Winner = INSTR
[DUEL] Epoch ended. INSTR misses = 66, DATA misses = 65. Winner = DATA
[DUEL] Epoch ended. INSTR misses = 20, DATA misses = 17. Winner = DATA
[DUEL] Epoch ended. INSTR misses = 62, DATA misses = 64. Winner = INSTR
[DUEL] Epoch ended. INSTR misses = 47, DATA misses = 48. Winner = INSTR
[DUEL] Epoch ended. INSTR misses = 42, DATA misses = 39. Winner = DATA
[DUEL] Epoch ended. INSTR misses = 64, DATA misses = 65. Winner = INSTR
[DUEL] Epoch ended. INSTR misses = 46, DATA misses = 48. Winner = INSTR
[DUEL] Epoch ended. INSTR misses = 60, DATA misses = 54. Winner = DATA
[DUEL] Epoch ended. INSTR misses = 48, DATA misses = 55. Winner = INSTR
[DUEL] Epoch ended. INSTR misses = 31, DATA misses = 17. Winner = DATA
[DUEL] Epoch ended. INSTR misses = 41, DATA misses = 51. Winner = INSTR
[DUEL] Epoch ended. INSTR misses = 59, DATA misses = 47. Winner = DATA
[DUEL] Epoch ended. INSTR misses = 68, DATA misses = 79. Winner = INSTR
[DUEL] Epoch ended. INSTR misses = 25, DATA misses = 17. Winner = DATA
[DUEL] Epoch ended. INSTR misses = 63, DATA misses = 64. Winner = INSTR
[DUEL] Epoch ended. INSTR misses = 70, DATA misses = 32. Winner = DATA
[DUEL] Epoch ended. INSTR misses = 18, DATA misses = 48. Winner = INSTR
[DUEL] Epoch ended. INSTR misses = 61, DATA misses = 62. Winner = INSTR
[DUEL] Epoch ended. INSTR misses = 80, DATA misses = 80. Winner = INSTR
[DUEL] Epoch ended. INSTR misses = 33, DATA misses = 33. Winner = INSTR
[DUEL] Epoch ended. INSTR misses = 112, DATA misses = 115. Winner = INSTR
[DUEL] Epoch ended. INSTR misses = 17, DATA misses = 16. Winner = DATA
[DUEL] Epoch ended. INSTR misses = 62, DATA misses = 65. Winner = INSTR
[DUEL] Epoch ended. INSTR misses = 52, DATA misses = 49. Winner = DATA
[DUEL] Epoch ended. INSTR misses = 46, DATA misses = 52. Winner = INSTR
[DUEL] Epoch ended. INSTR misses = 54, DATA misses = 53. Winner = DATA
[DUEL] Epoch ended. INSTR misses = 164, DATA misses = 128. Winner = DATA
[DUEL] Epoch ended. INSTR misses = 493, DATA misses = 491. Winner = DATA
[DUEL] Epoch ended. INSTR misses = 200, DATA misses = 191. Winner = DATA
[DUEL] Epoch ended. INSTR misses = 176, DATA misses = 172. Winner = DATA
[DUEL] Epoch ended. INSTR misses = 166, DATA misses = 155. Winner = DATA
[DUEL] Epoch ended. INSTR misses = 224, DATA misses = 221. Winner = DATA
Heartbeat CPU 0 instructions: 130000008 cycles: 148619658 heartbeat IPC: 0.4633 cumulative IPC: 0.6993 (Simulation time: 00 hr 22 min 05 sec)
Simulation finished CPU 0 instructions: 100000007 cycles: 142997640 cumulative IPC: 0.6993 (Simulation time: 00 hr 22 min 05 sec)
Simulation complete CPU 0 instructions: 100000007 cycles: 142997640 cumulative IPC: 0.6993 (Simulation time: 00 hr 22 min 05 sec)

ChampSim completed all CPUs

=== Simulation ===
CPU 0 runs ../traces/secret_traces/compute_fp/compute_fp_30.champsimtrace.xz
Region of Interest Statistics

CPU 0 cumulative IPC: 0.6993 instructions: 100000007 cycles: 142997640
CPU 0 Branch Prediction Accuracy: 99.81% MPKI: 0.1471 Average ROB Occupancy at Mispredict: 48.98
Branch type MPKI
BRANCH_DIRECT_JUMP: 0.00776
BRANCH_INDIRECT: 0.0696
BRANCH_CONDITIONAL: 0.0341
BRANCH_DIRECT_CALL: 0.0218
BRANCH_INDIRECT_CALL: 0.00236
BRANCH_RETURN: 0.0114

LLC TOTAL        ACCESS:    5447666 HIT:     326789 MISS:    5120877
LLC LOAD         ACCESS:     693155 HIT:      29630 MISS:     663525
LLC RFO          ACCESS:    1096326 HIT:      24550 MISS:    1071776
LLC PREFETCH     ACCESS:    2383623 HIT:     103927 MISS:    2279696
LLC WRITE        ACCESS:    1266200 HIT:     168409 MISS:    1097791
LLC TRANSLATION  ACCESS:       8362 HIT:        273 MISS:       8089
LLC PREFETCH REQUESTED:          0 ISSUED:          0 USEFUL:          0 USELESS:          0
LLC AVERAGE MISS LATENCY: 507.7 cycles
cpu0_DTLB TOTAL        ACCESS:   16836031 HIT:   16230253 MISS:     605778
cpu0_DTLB LOAD         ACCESS:   16836031 HIT:   16230253 MISS:     605778
cpu0_DTLB RFO          ACCESS:          0 HIT:          0 MISS:          0
cpu0_DTLB PREFETCH     ACCESS:          0 HIT:          0 MISS:          0
cpu0_DTLB WRITE        ACCESS:          0 HIT:          0 MISS:          0
cpu0_DTLB TRANSLATION  ACCESS:          0 HIT:          0 MISS:          0
cpu0_DTLB PREFETCH REQUESTED:          0 ISSUED:          0 USEFUL:          0 USELESS:          0
cpu0_DTLB AVERAGE MISS LATENCY: 27.64 cycles
cpu0_ITLB TOTAL        ACCESS:    3147853 HIT:    3146097 MISS:       1756
cpu0_ITLB LOAD         ACCESS:    3147853 HIT:    3146097 MISS:       1756
cpu0_ITLB RFO          ACCESS:          0 HIT:          0 MISS:          0
cpu0_ITLB PREFETCH     ACCESS:          0 HIT:          0 MISS:          0
cpu0_ITLB WRITE        ACCESS:          0 HIT:          0 MISS:          0
cpu0_ITLB TRANSLATION  ACCESS:          0 HIT:          0 MISS:          0
cpu0_ITLB PREFETCH REQUESTED:          0 ISSUED:          0 USEFUL:          0 USELESS:          0
cpu0_ITLB AVERAGE MISS LATENCY: 86.01 cycles
cpu0_L1D TOTAL        ACCESS:   29624073 HIT:   15592244 MISS:   14031829
cpu0_L1D LOAD         ACCESS:   14461156 HIT:    7936213 MISS:    6524943
cpu0_L1D RFO          ACCESS:          0 HIT:          0 MISS:          0
cpu0_L1D PREFETCH     ACCESS:    3026863 HIT:    1435727 MISS:    1591136
cpu0_L1D WRITE        ACCESS:   12066859 HIT:    6205247 MISS:    5861612
cpu0_L1D TRANSLATION  ACCESS:      69195 HIT:      15057 MISS:      54138
cpu0_L1D PREFETCH REQUESTED:  308916103 ISSUED:    3026860 USEFUL:     226611 USELESS:      19492
cpu0_L1D AVERAGE MISS LATENCY: 119.6 cycles
cpu0_L1I TOTAL        ACCESS:    4665523 HIT:    4625000 MISS:      40523
cpu0_L1I LOAD         ACCESS:    2348851 HIT:    2336619 MISS:      12232
cpu0_L1I RFO          ACCESS:          0 HIT:          0 MISS:          0
cpu0_L1I PREFETCH     ACCESS:    2316672 HIT:    2288381 MISS:      28291
cpu0_L1I WRITE        ACCESS:          0 HIT:          0 MISS:          0
cpu0_L1I TRANSLATION  ACCESS:          0 HIT:          0 MISS:          0
cpu0_L1I PREFETCH REQUESTED:    8406541 ISSUED:    2316672 USEFUL:      15308 USELESS:      10710
cpu0_L1I AVERAGE MISS LATENCY: 153.9 cycles
cpu0_L2C TOTAL        ACCESS:   12291751 HIT:    4773271 MISS:    7518480
cpu0_L2C LOAD         ACCESS:    3486133 HIT:    1147312 MISS:    2338821
cpu0_L2C RFO          ACCESS:    1366543 HIT:     268877 MISS:    1097666
cpu0_L2C PREFETCH     ACCESS:    5695616 HIT:    1622184 MISS:    4073432
cpu0_L2C WRITE        ACCESS:    1689456 HIT:    1689366 MISS:         90
cpu0_L2C TRANSLATION  ACCESS:      54003 HIT:      45532 MISS:       8471
cpu0_L2C PREFETCH REQUESTED:    4643396 ISSUED:    4588002 USEFUL:    1968334 USELESS:      89622
cpu0_L2C AVERAGE MISS LATENCY: 296.3 cycles
cpu0_STLB TOTAL        ACCESS:     278455 HIT:     209764 MISS:      68691
cpu0_STLB LOAD         ACCESS:     278455 HIT:     209764 MISS:      68691
cpu0_STLB RFO          ACCESS:          0 HIT:          0 MISS:          0
cpu0_STLB PREFETCH     ACCESS:          0 HIT:          0 MISS:          0
cpu0_STLB WRITE        ACCESS:          0 HIT:          0 MISS:          0
cpu0_STLB TRANSLATION  ACCESS:          0 HIT:          0 MISS:          0
cpu0_STLB PREFETCH REQUESTED:          0 ISSUED:          0 USEFUL:          0 USELESS:          0
cpu0_STLB AVERAGE MISS LATENCY: 318.5 cycles

DRAM Statistics

Channel 0 RQ ROW_BUFFER_HIT:     510158
  ROW_BUFFER_MISS:    1509075
 AVG DBUS CONGESTED CYCLE: 3.971
WQ ROW_BUFFER_HIT: Channel 0 
  ROW_BUFFER_MISS:      51528
  FULL:     565569

Channel 1 RQ ROW_BUFFER_HIT:     505371
  ROW_BUFFER_MISS:    1498228
 AVG DBUS CONGESTED CYCLE: 3.969
WQ ROW_BUFFER_HIT: Channel 1 
  ROW_BUFFER_MISS:      54282
  FULL:     562214
BERTI TO_L1: 10696283 TO_L2: 308741810 TO_L2_BC_MSHR: 216932390
BERTI AVG_LAT: 344.301 NUM_TRACK_LATENCY: 4928356 NUM_CANT_TRACK_LATENCY: 6598
BERTI CROSS_PAGE 37294869 NO_CROSS_PAGE: 282143224
BERTI FOUND_BERTI: 67695056 NO_FOUND_BERTI: 17178267
BERTI AVERAGE_ISSUED: 2.53945
CPU 0 L1I Entangling prefetcher final stats
IP accesses: 629 18a40 92201 / 2377400
IP misses: ea87 3aa1c0 1062 / 40781
IP hits: 0 0 0 / 0
IP late: 4232 108c80 14 / 6033
IP wrong: 2172 85c80 23 / 10656
miss rate: 0.0171537
coverage: 0
coverage_late: 0.147937
accuracy: 0
accuracy_late: 0.361496
discarded: 0
evicts entangled j table: 0
evicts entangled k table: 1654
max bb size: 99
formats: 454 0 1464 772 337 718 0 
hist_lookups: 1157 1242 993 931 828 692 584 475 400 261 213 146 104 56 24 0 30 3742 
hist_lookups_evict: 0.252568 %
hist_lookups_shortlat: 31.5037 %
bb_found_hist: 0 81316 89908 32494 2190 35771 2913 19086 2708 1218 6568 2179 612 62305 11818 39195 53991 9 601 0 42150 1379 0 0 234 1679 15 1560 0 601 0 1 0 0 0 0 0 0 23773 0 0 0 0 0 0 0 0 0 0 2 0 0 0 0 2 0 0 0 0 0 0 0 0 0 
bb_found_summary: 5148197 516278 9.97176
entangled_found_hist: 0 125824 77139 110480 5739 404 61 0 
entangled_found_summary: 636884 319647 1.99247
bb_ent_found_hist: 0 31717 98612 69914 3569 9366 3503 5762 264 913 5499 48836 0 341 0 1 248 340 1229 0 626 641 0 0 56506 1679 15 0 0 517 0 3 0 0 0 0 0 0 31 0 0 0 0 0 0 0 0 0 0 3 0 0 0 0 0 0 0 0 0 0 0 0 0 0 
bb_ent_found_summary: 2640875 340135 7.7642
