WARNING: physical memory size is smaller than virtual memory size.

*** ChampSim Multicore Out-of-Order Simulator ***
Warmup Instructions: 30000000
Simulation Instructions: 100000000
Number of CPUs: 1
Page size: 4096

BTB:
Basic BTB sets: 1024 ways: 8
Indirect:
history lengths: 0 0 10 16 27 44 60 96 109 219 449 487 714 1313 2146 3881 
ITTAGE tables: 64768 bytes;Region table: 240 bytes;IUM: 384 bytes;Total Storage= 65392 bytes;
RAS:
RAS size: 64
[LLC] Demand IPV: 1 2 2 1 4 Prefetch IPV: 1 2 1 1 4
Berti Prefetcher
CPU 0 Entangling prefetcher
Off-chip DRAM Size: 8 GiB Channels: 2 Width: 64-bit Data Race: 6400 MT/s
Heartbeat CPU 0 instructions: 10000011 cycles: 1751199 heartbeat IPC: 5.71 cumulative IPC: 5.71 (Simulation time: 00 hr 00 min 40 sec)
Heartbeat CPU 0 instructions: 20000005 cycles: 3483884 heartbeat IPC: 5.771 cumulative IPC: 5.741 (Simulation time: 00 hr 01 min 19 sec)
Heartbeat CPU 0 instructions: 30000000 cycles: 5238692 heartbeat IPC: 5.699 cumulative IPC: 5.727 (Simulation time: 00 hr 01 min 59 sec)
Warmup finished CPU 0 instructions: 30000000 cycles: 5238693 cumulative IPC: 5.727 (Simulation time: 00 hr 01 min 59 sec)
Warmup complete CPU 0 instructions: 30000000 cycles: 5238693 cumulative IPC: 5.727 (Simulation time: 00 hr 01 min 59 sec)
*** Reached end of trace: (0, "../traces/public_traces/compute_fp/compute_fp_2.champsimtrace.xz")
Heartbeat CPU 0 instructions: 40000001 cycles: 7020747 heartbeat IPC: 5.611 cumulative IPC: 5.612 (Simulation time: 00 hr 02 min 53 sec)
Heartbeat CPU 0 instructions: 50000007 cycles: 8776207 heartbeat IPC: 5.697 cumulative IPC: 5.654 (Simulation time: 00 hr 03 min 48 sec)
Heartbeat CPU 0 instructions: 60000003 cycles: 10555725 heartbeat IPC: 5.619 cumulative IPC: 5.642 (Simulation time: 00 hr 04 min 48 sec)
*** Reached end of trace: (0, "../traces/public_traces/compute_fp/compute_fp_2.champsimtrace.xz")
Heartbeat CPU 0 instructions: 70000001 cycles: 12333787 heartbeat IPC: 5.624 cumulative IPC: 5.638 (Simulation time: 00 hr 05 min 41 sec)
Heartbeat CPU 0 instructions: 80000005 cycles: 14085995 heartbeat IPC: 5.707 cumulative IPC: 5.651 (Simulation time: 00 hr 06 min 33 sec)
Heartbeat CPU 0 instructions: 90000007 cycles: 15860431 heartbeat IPC: 5.636 cumulative IPC: 5.649 (Simulation time: 00 hr 07 min 26 sec)
*** Reached end of trace: (0, "../traces/public_traces/compute_fp/compute_fp_2.champsimtrace.xz")
Heartbeat CPU 0 instructions: 100000003 cycles: 17628461 heartbeat IPC: 5.656 cumulative IPC: 5.65 (Simulation time: 00 hr 08 min 18 sec)
Heartbeat CPU 0 instructions: 110000008 cycles: 19388815 heartbeat IPC: 5.681 cumulative IPC: 5.654 (Simulation time: 00 hr 09 min 11 sec)
Heartbeat CPU 0 instructions: 120000002 cycles: 21159610 heartbeat IPC: 5.647 cumulative IPC: 5.653 (Simulation time: 00 hr 10 min 06 sec)
*** Reached end of trace: (0, "../traces/public_traces/compute_fp/compute_fp_2.champsimtrace.xz")
Heartbeat CPU 0 instructions: 130000007 cycles: 22921787 heartbeat IPC: 5.675 cumulative IPC: 5.655 (Simulation time: 00 hr 10 min 57 sec)
Simulation finished CPU 0 instructions: 100000007 cycles: 17683095 cumulative IPC: 5.655 (Simulation time: 00 hr 10 min 57 sec)
Simulation complete CPU 0 instructions: 100000007 cycles: 17683095 cumulative IPC: 5.655 (Simulation time: 00 hr 10 min 57 sec)

ChampSim completed all CPUs

=== Simulation ===
CPU 0 runs ../traces/public_traces/compute_fp/compute_fp_2.champsimtrace.xz
Region of Interest Statistics

CPU 0 cumulative IPC: 5.655 instructions: 100000007 cycles: 17683095
CPU 0 Branch Prediction Accuracy: 99.96% MPKI: 0.01955 Average ROB Occupancy at Mispredict: 56.05
Branch type MPKI
BRANCH_DIRECT_JUMP: 0
BRANCH_INDIRECT: 0.00066
BRANCH_CONDITIONAL: 0.0186
BRANCH_DIRECT_CALL: 0
BRANCH_INDIRECT_CALL: 0.0002
BRANCH_RETURN: 4e-05

LLC TOTAL        ACCESS:     426253 HIT:     417631 MISS:       8622
LLC LOAD         ACCESS:      18733 HIT:      17935 MISS:        798
LLC RFO          ACCESS:      41182 HIT:      41163 MISS:         19
LLC PREFETCH     ACCESS:     323795 HIT:     316234 MISS:       7561
LLC WRITE        ACCESS:      42536 HIT:      42297 MISS:        239
LLC TRANSLATION  ACCESS:          7 HIT:          2 MISS:          5
LLC PREFETCH REQUESTED:          0 ISSUED:          0 USEFUL:          0 USELESS:          0
LLC AVERAGE MISS LATENCY: 121.4 cycles
cpu0_DTLB TOTAL        ACCESS:   17230235 HIT:   17103348 MISS:     126887
cpu0_DTLB LOAD         ACCESS:   17230235 HIT:   17103348 MISS:     126887
cpu0_DTLB RFO          ACCESS:          0 HIT:          0 MISS:          0
cpu0_DTLB PREFETCH     ACCESS:          0 HIT:          0 MISS:          0
cpu0_DTLB WRITE        ACCESS:          0 HIT:          0 MISS:          0
cpu0_DTLB TRANSLATION  ACCESS:          0 HIT:          0 MISS:          0
cpu0_DTLB PREFETCH REQUESTED:          0 ISSUED:          0 USEFUL:          0 USELESS:          0
cpu0_DTLB AVERAGE MISS LATENCY: 3.083 cycles
cpu0_ITLB TOTAL        ACCESS:     828671 HIT:     828669 MISS:          2
cpu0_ITLB LOAD         ACCESS:     828671 HIT:     828669 MISS:          2
cpu0_ITLB RFO          ACCESS:          0 HIT:          0 MISS:          0
cpu0_ITLB PREFETCH     ACCESS:          0 HIT:          0 MISS:          0
cpu0_ITLB WRITE        ACCESS:          0 HIT:          0 MISS:          0
cpu0_ITLB TRANSLATION  ACCESS:          0 HIT:          0 MISS:          0
cpu0_ITLB PREFETCH REQUESTED:          0 ISSUED:          0 USEFUL:          0 USELESS:          0
cpu0_ITLB AVERAGE MISS LATENCY: 634.5 cycles
cpu0_L1D TOTAL        ACCESS:   38317389 HIT:   34542421 MISS:    3774968
cpu0_L1D LOAD         ACCESS:   20753302 HIT:   19387197 MISS:    1366105
cpu0_L1D RFO          ACCESS:          0 HIT:          0 MISS:          0
cpu0_L1D PREFETCH     ACCESS:    3312086 HIT:    2532637 MISS:     779449
cpu0_L1D WRITE        ACCESS:   14251994 HIT:   12622587 MISS:    1629407
cpu0_L1D TRANSLATION  ACCESS:          7 HIT:          0 MISS:          7
cpu0_L1D PREFETCH REQUESTED:   24796270 ISSUED:    3312054 USEFUL:     410722 USELESS:      48491
cpu0_L1D AVERAGE MISS LATENCY: 3.119 cycles
cpu0_L1I TOTAL        ACCESS:    1243590 HIT:    1236172 MISS:       7418
cpu0_L1I LOAD         ACCESS:     587646 HIT:     584493 MISS:       3153
cpu0_L1I RFO          ACCESS:          0 HIT:          0 MISS:          0
cpu0_L1I PREFETCH     ACCESS:     655944 HIT:     651679 MISS:       4265
cpu0_L1I WRITE        ACCESS:          0 HIT:          0 MISS:          0
cpu0_L1I TRANSLATION  ACCESS:          0 HIT:          0 MISS:          0
cpu0_L1I PREFETCH REQUESTED:    1124121 ISSUED:     655944 USEFUL:       3332 USELESS:        180
cpu0_L1I AVERAGE MISS LATENCY: 21.73 cycles
cpu0_L2C TOTAL        ACCESS:    2742441 HIT:    2226212 MISS:     516229
cpu0_L2C LOAD         ACCESS:     367354 HIT:     316612 MISS:      50742
cpu0_L2C RFO          ACCESS:     253411 HIT:     212226 MISS:      41185
cpu0_L2C PREFETCH     ACCESS:    1850359 HIT:    1426064 MISS:     424295
cpu0_L2C WRITE        ACCESS:     271310 HIT:     271310 MISS:          0
cpu0_L2C TRANSLATION  ACCESS:          7 HIT:          0 MISS:          7
cpu0_L2C PREFETCH REQUESTED:    1122864 ISSUED:    1094849 USEFUL:     167291 USELESS:      30673
cpu0_L2C AVERAGE MISS LATENCY: 16.01 cycles
cpu0_STLB TOTAL        ACCESS:      70150 HIT:      70146 MISS:          4
cpu0_STLB LOAD         ACCESS:      70150 HIT:      70146 MISS:          4
cpu0_STLB RFO          ACCESS:          0 HIT:          0 MISS:          0
cpu0_STLB PREFETCH     ACCESS:          0 HIT:          0 MISS:          0
cpu0_STLB WRITE        ACCESS:          0 HIT:          0 MISS:          0
cpu0_STLB TRANSLATION  ACCESS:          0 HIT:          0 MISS:          0
cpu0_STLB PREFETCH REQUESTED:          0 ISSUED:          0 USEFUL:          0 USELESS:          0
cpu0_STLB AVERAGE MISS LATENCY: 514.2 cycles

DRAM Statistics

Channel 0 RQ ROW_BUFFER_HIT:       1958
  ROW_BUFFER_MISS:       2373
 AVG DBUS CONGESTED CYCLE: 3.542
WQ ROW_BUFFER_HIT: Channel 0 
  ROW_BUFFER_MISS:         26
  FULL:        122

Channel 1 RQ ROW_BUFFER_HIT:       1747
  ROW_BUFFER_MISS:       2305
 AVG DBUS CONGESTED CYCLE: 3.62
WQ ROW_BUFFER_HIT: Channel 1 
  ROW_BUFFER_MISS:         26
  FULL:         92
BERTI TO_L1: 24938980 TO_L2: 6935518 TO_L2_BC_MSHR: 3667
BERTI AVG_LAT: 110.677 NUM_TRACK_LATENCY: 1074390 NUM_CANT_TRACK_LATENCY: 0
BERTI CROSS_PAGE 10945621 NO_CROSS_PAGE: 20928877
BERTI FOUND_BERTI: 9942006 NO_FOUND_BERTI: 17877313
BERTI AVERAGE_ISSUED: 2.65148
CPU 0 L1I Entangling prefetcher final stats
IP accesses: d29 34a40 14212 / 588392
IP misses: 5eb 17ac0 161 / 3899
IP hits: 0 0 0 / 0
IP late: 5eb 17ac0 36 / 1484
IP wrong: 48d6 123580 36 / 180
miss rate: 0.00662654
coverage: 0
coverage_late: 0.380611
accuracy: 0
accuracy_late: 0.891827
discarded: 0
evicts entangled j table: 0
evicts entangled k table: 126
max bb size: 18
formats: 39 0 104 72 11 35 0 
hist_lookups: 40 50 60 75 69 60 56 56 45 43 38 31 15 8 4 0 6 1208 
hist_lookups_evict: 0.321889 %
hist_lookups_shortlat: 64.8069 %
bb_found_hist: 0 40772 18433 29795 12151 7274 1893 3777 3737 3910 1484 272 0 1331 709 0 0 0 1786 0 0 0 0 0 0 0 0 0 0 0 0 0 0 0 0 0 0 0 0 0 0 0 0 0 0 0 0 0 0 0 0 0 0 0 0 0 0 0 0 0 0 0 0 0 
bb_found_summary: 432089 127324 3.39362
entangled_found_hist: 0 39213 27958 16593 4429 772 0 0 
entangled_found_summary: 166484 88965 1.87135
bb_ent_found_hist: 0 41841 14602 26291 11264 13719 6484 1385 7279 0 2401 369 0 0 2634 0 0 0 5489 0 0 0 0 0 0 0 0 0 0 0 0 0 0 0 0 0 0 0 0 0 0 0 0 0 0 0 0 0 0 0 0 0 0 0 0 0 0 0 0 0 0 0 0 0 
bb_ent_found_summary: 534147 133758 3.99339
