WARNING: physical memory size is smaller than virtual memory size.

*** ChampSim Multicore Out-of-Order Simulator ***
Warmup Instructions: 30000000
Simulation Instructions: 100000000
Number of CPUs: 1
Page size: 4096

BTB:
Basic BTB sets: 1024 ways: 8
Indirect:
history lengths: 0 0 10 16 27 44 60 96 109 219 449 487 714 1313 2146 3881 
ITTAGE tables: 64768 bytes;Region table: 240 bytes;IUM: 384 bytes;Total Storage= 65392 bytes;
RAS:
RAS size: 64
[LLC] Demand IPV: 1 2 2 1 4 Prefetch IPV: 1 2 1 1 4
Berti Prefetcher
CPU 0 Entangling prefetcher
Off-chip DRAM Size: 8 GiB Channels: 2 Width: 64-bit Data Race: 6400 MT/s
Heartbeat CPU 0 instructions: 10000004 cycles: 1666751 heartbeat IPC: 6 cumulative IPC: 6 (Simulation time: 00 hr 00 min 41 sec)
Heartbeat CPU 0 instructions: 20000006 cycles: 3333418 heartbeat IPC: 6 cumulative IPC: 6 (Simulation time: 00 hr 01 min 23 sec)
Heartbeat CPU 0 instructions: 30000002 cycles: 5000084 heartbeat IPC: 6 cumulative IPC: 6 (Simulation time: 00 hr 02 min 14 sec)
Warmup finished CPU 0 instructions: 30000002 cycles: 5000085 cumulative IPC: 6 (Simulation time: 00 hr 02 min 14 sec)
Warmup complete CPU 0 instructions: 30000002 cycles: 5000085 cumulative IPC: 6 (Simulation time: 00 hr 02 min 14 sec)
*** Reached end of trace: (0, "../traces/public_traces/compute_fp/compute_fp_3.champsimtrace.xz")
Heartbeat CPU 0 instructions: 40000006 cycles: 7430500 heartbeat IPC: 4.115 cumulative IPC: 4.115 (Simulation time: 00 hr 03 min 30 sec)
Heartbeat CPU 0 instructions: 50000002 cycles: 9859788 heartbeat IPC: 4.116 cumulative IPC: 4.115 (Simulation time: 00 hr 04 min 45 sec)
Heartbeat CPU 0 instructions: 60000005 cycles: 12276036 heartbeat IPC: 4.139 cumulative IPC: 4.123 (Simulation time: 00 hr 05 min 55 sec)
*** Reached end of trace: (0, "../traces/public_traces/compute_fp/compute_fp_3.champsimtrace.xz")
Heartbeat CPU 0 instructions: 70000001 cycles: 14710233 heartbeat IPC: 4.108 cumulative IPC: 4.119 (Simulation time: 00 hr 07 min 01 sec)
Heartbeat CPU 0 instructions: 80000010 cycles: 17137729 heartbeat IPC: 4.119 cumulative IPC: 4.119 (Simulation time: 00 hr 08 min 08 sec)
Heartbeat CPU 0 instructions: 90000008 cycles: 19553554 heartbeat IPC: 4.139 cumulative IPC: 4.123 (Simulation time: 00 hr 09 min 14 sec)
*** Reached end of trace: (0, "../traces/public_traces/compute_fp/compute_fp_3.champsimtrace.xz")
Heartbeat CPU 0 instructions: 100000009 cycles: 21984051 heartbeat IPC: 4.114 cumulative IPC: 4.122 (Simulation time: 00 hr 10 min 16 sec)
Heartbeat CPU 0 instructions: 110000002 cycles: 24408167 heartbeat IPC: 4.125 cumulative IPC: 4.122 (Simulation time: 00 hr 11 min 15 sec)
Heartbeat CPU 0 instructions: 120000007 cycles: 26815396 heartbeat IPC: 4.154 cumulative IPC: 4.126 (Simulation time: 00 hr 12 min 14 sec)
*** Reached end of trace: (0, "../traces/public_traces/compute_fp/compute_fp_3.champsimtrace.xz")
Heartbeat CPU 0 instructions: 130000002 cycles: 29240961 heartbeat IPC: 4.123 cumulative IPC: 4.125 (Simulation time: 00 hr 13 min 09 sec)
Simulation finished CPU 0 instructions: 100000000 cycles: 24240877 cumulative IPC: 4.125 (Simulation time: 00 hr 13 min 09 sec)
Simulation complete CPU 0 instructions: 100000000 cycles: 24240877 cumulative IPC: 4.125 (Simulation time: 00 hr 13 min 09 sec)

ChampSim completed all CPUs

=== Simulation ===
CPU 0 runs ../traces/public_traces/compute_fp/compute_fp_3.champsimtrace.xz
Region of Interest Statistics

CPU 0 cumulative IPC: 4.125 instructions: 100000000 cycles: 24240877
CPU 0 Branch Prediction Accuracy: 99.99% MPKI: 0.00546 Average ROB Occupancy at Mispredict: 397.3
Branch type MPKI
BRANCH_DIRECT_JUMP: 0
BRANCH_INDIRECT: 0.00546
BRANCH_CONDITIONAL: 0
BRANCH_DIRECT_CALL: 0
BRANCH_INDIRECT_CALL: 0
BRANCH_RETURN: 0

LLC TOTAL        ACCESS:    3153067 HIT:       1892 MISS:    3151175
LLC LOAD         ACCESS:       6957 HIT:        477 MISS:       6480
LLC RFO          ACCESS:        200 HIT:        199 MISS:          1
LLC PREFETCH     ACCESS:    3143921 HIT:        191 MISS:    3143730
LLC WRITE        ACCESS:        800 HIT:        797 MISS:          3
LLC TRANSLATION  ACCESS:       1189 HIT:        228 MISS:        961
LLC PREFETCH REQUESTED:          0 ISSUED:          0 USEFUL:          0 USELESS:          0
LLC AVERAGE MISS LATENCY: 237.4 cycles
cpu0_DTLB TOTAL        ACCESS:    8899643 HIT:    8790915 MISS:     108728
cpu0_DTLB LOAD         ACCESS:    8899643 HIT:    8790915 MISS:     108728
cpu0_DTLB RFO          ACCESS:          0 HIT:          0 MISS:          0
cpu0_DTLB PREFETCH     ACCESS:          0 HIT:          0 MISS:          0
cpu0_DTLB WRITE        ACCESS:          0 HIT:          0 MISS:          0
cpu0_DTLB TRANSLATION  ACCESS:          0 HIT:          0 MISS:          0
cpu0_DTLB PREFETCH REQUESTED:          0 ISSUED:          0 USEFUL:          0 USELESS:          0
cpu0_DTLB AVERAGE MISS LATENCY: 12.64 cycles
cpu0_ITLB TOTAL        ACCESS:       8803 HIT:       8803 MISS:          0
cpu0_ITLB LOAD         ACCESS:       8803 HIT:       8803 MISS:          0
cpu0_ITLB RFO          ACCESS:          0 HIT:          0 MISS:          0
cpu0_ITLB PREFETCH     ACCESS:          0 HIT:          0 MISS:          0
cpu0_ITLB WRITE        ACCESS:          0 HIT:          0 MISS:          0
cpu0_ITLB TRANSLATION  ACCESS:          0 HIT:          0 MISS:          0
cpu0_ITLB PREFETCH REQUESTED:          0 ISSUED:          0 USEFUL:          0 USELESS:          0
cpu0_ITLB AVERAGE MISS LATENCY: -nan cycles
cpu0_L1D TOTAL        ACCESS:   19456982 HIT:    5897867 MISS:   13559115
cpu0_L1D LOAD         ACCESS:    5198321 HIT:    2941893 MISS:    2256428
cpu0_L1D RFO          ACCESS:          0 HIT:          0 MISS:          0
cpu0_L1D PREFETCH     ACCESS:   14204713 HIT:    2907058 MISS:   11297655
cpu0_L1D WRITE        ACCESS:       4265 HIT:       3406 MISS:        859
cpu0_L1D TRANSLATION  ACCESS:      49683 HIT:      45510 MISS:       4173
cpu0_L1D PREFETCH REQUESTED:   56790002 ISSUED:   14204730 USEFUL:    1905868 USELESS:        141
cpu0_L1D AVERAGE MISS LATENCY: 22.59 cycles
cpu0_L1I TOTAL        ACCESS:      12652 HIT:      12652 MISS:          0
cpu0_L1I LOAD         ACCESS:       6405 HIT:       6405 MISS:          0
cpu0_L1I RFO          ACCESS:          0 HIT:          0 MISS:          0
cpu0_L1I PREFETCH     ACCESS:       6247 HIT:       6247 MISS:          0
cpu0_L1I WRITE        ACCESS:          0 HIT:          0 MISS:          0
cpu0_L1I TRANSLATION  ACCESS:          0 HIT:          0 MISS:          0
cpu0_L1I PREFETCH REQUESTED:       7335 ISSUED:       6247 USEFUL:          0 USELESS:          0
cpu0_L1I AVERAGE MISS LATENCY: -nan cycles
cpu0_L2C TOTAL        ACCESS:   16477063 HIT:    5705375 MISS:   10771688
cpu0_L2C LOAD         ACCESS:    1243825 HIT:    1009957 MISS:     233868
cpu0_L2C RFO          ACCESS:        230 HIT:         30 MISS:        200
cpu0_L2C PREFETCH     ACCESS:   15228038 HIT:    4691607 MISS:   10536431
cpu0_L2C WRITE        ACCESS:        800 HIT:        800 MISS:          0
cpu0_L2C TRANSLATION  ACCESS:       4170 HIT:       2981 MISS:       1189
cpu0_L2C PREFETCH REQUESTED:   11083321 ISSUED:    5805957 USEFUL:     516598 USELESS:     320425
cpu0_L2C AVERAGE MISS LATENCY: 70.35 cycles
cpu0_STLB TOTAL        ACCESS:      49586 HIT:          3 MISS:      49583
cpu0_STLB LOAD         ACCESS:      49586 HIT:          3 MISS:      49583
cpu0_STLB RFO          ACCESS:          0 HIT:          0 MISS:          0
cpu0_STLB PREFETCH     ACCESS:          0 HIT:          0 MISS:          0
cpu0_STLB WRITE        ACCESS:          0 HIT:          0 MISS:          0
cpu0_STLB TRANSLATION  ACCESS:          0 HIT:          0 MISS:          0
cpu0_STLB PREFETCH REQUESTED:          0 ISSUED:          0 USEFUL:          0 USELESS:          0
cpu0_STLB AVERAGE MISS LATENCY: 28.21 cycles

DRAM Statistics

Channel 0 RQ ROW_BUFFER_HIT:    1553409
  ROW_BUFFER_MISS:      22246
 AVG DBUS CONGESTED CYCLE: 3.99
WQ ROW_BUFFER_HIT: Channel 0 
  ROW_BUFFER_MISS:          0
  FULL:          0

Channel 1 RQ ROW_BUFFER_HIT:    1553418
  ROW_BUFFER_MISS:      22079
 AVG DBUS CONGESTED CYCLE: 3.99
WQ ROW_BUFFER_HIT: Channel 1 
  ROW_BUFFER_MISS:          0
  FULL:          3
BERTI TO_L1: 24128178 TO_L2: 56474825 TO_L2_BC_MSHR: 33869123
BERTI AVG_LAT: 122.419 NUM_TRACK_LATENCY: 4086613 NUM_CANT_TRACK_LATENCY: 0
BERTI CROSS_PAGE 49374759 NO_CROSS_PAGE: 31228244
BERTI FOUND_BERTI: 10874748 NO_FOUND_BERTI: 236402
BERTI AVERAGE_ISSUED: 5.92537
CPU 0 L1I Entangling prefetcher final stats
IP accesses: 6c 1b00 84 / 6405
IP misses: 0 0 0 / 0
IP hits: 0 0 0 / 0
IP late: 0 0 0 / 0
IP wrong: 0 0 0 / 0
miss rate: 0
coverage: -nan
coverage_late: -nan
accuracy: -nan
accuracy_late: -nan
discarded: 0
evicts entangled j table: 0
evicts entangled k table: 0
max bb size: 11
formats: 0 0 0 0 0 0 0 
hist_lookups: 0 0 0 0 0 0 0 0 0 0 0 0 0 0 0 0 0 115 
hist_lookups_evict: 0 %
hist_lookups_shortlat: 100 %
bb_found_hist: 0 1226 439 185 40 64 50 0 0 0 0 10 0 0 0 0 0 0 0 0 0 0 0 0 0 0 0 0 0 0 0 0 0 0 0 0 0 0 0 0 0 0 0 0 0 0 0 0 0 0 0 0 0 0 0 0 0 0 0 0 0 0 0 0 
bb_found_summary: 3549 2014 1.76217
entangled_found_hist: 0 503 280 134 50 10 0 0 
entangled_found_summary: 1715 977 1.75538
bb_ent_found_hist: 0 587 247 106 30 20 57 0 0 0 0 10 0 0 0 0 0 0 0 0 0 0 0 0 0 0 0 0 0 0 0 0 0 0 0 0 0 0 0 0 0 0 0 0 0 0 0 0 0 0 0 0 0 0 0 0 0 0 0 0 0 0 0 0 
bb_ent_found_summary: 2071 1057 1.95932
