WARNING: physical memory size is smaller than virtual memory size.

*** ChampSim Multicore Out-of-Order Simulator ***
Warmup Instructions: 30000000
Simulation Instructions: 100000000
Number of CPUs: 1
Page size: 4096

BTB:
Basic BTB sets: 1024 ways: 8
Indirect:
history lengths: 0 0 10 16 27 44 60 96 109 219 449 487 714 1313 2146 3881 
ITTAGE tables: 64768 bytes;Region table: 240 bytes;IUM: 384 bytes;Total Storage= 65392 bytes;
RAS:
RAS size: 64
[LLC] Demand IPV: 1 2 2 1 4 Prefetch IPV: 1 2 1 1 4
Berti Prefetcher
CPU 0 Entangling prefetcher
Off-chip DRAM Size: 8 GiB Channels: 2 Width: 64-bit Data Race: 6400 MT/s
Heartbeat CPU 0 instructions: 10000004 cycles: 1676214 heartbeat IPC: 5.966 cumulative IPC: 5.966 (Simulation time: 00 hr 00 min 34 sec)
Heartbeat CPU 0 instructions: 20000005 cycles: 3342880 heartbeat IPC: 6 cumulative IPC: 5.983 (Simulation time: 00 hr 01 min 09 sec)
Heartbeat CPU 0 instructions: 30000009 cycles: 5018972 heartbeat IPC: 5.966 cumulative IPC: 5.977 (Simulation time: 00 hr 01 min 44 sec)
Warmup finished CPU 0 instructions: 30000009 cycles: 5018973 cumulative IPC: 5.977 (Simulation time: 00 hr 01 min 44 sec)
Warmup complete CPU 0 instructions: 30000009 cycles: 5018973 cumulative IPC: 5.977 (Simulation time: 00 hr 01 min 44 sec)
*** Reached end of trace: (0, "../traces/public_traces/compute_fp/compute_fp_8.champsimtrace.xz")
Heartbeat CPU 0 instructions: 40000009 cycles: 15305438 heartbeat IPC: 0.9722 cumulative IPC: 0.9722 (Simulation time: 00 hr 04 min 05 sec)
Heartbeat CPU 0 instructions: 50000008 cycles: 26528019 heartbeat IPC: 0.8911 cumulative IPC: 0.9298 (Simulation time: 00 hr 06 min 18 sec)
Heartbeat CPU 0 instructions: 60000003 cycles: 39579934 heartbeat IPC: 0.7662 cumulative IPC: 0.868 (Simulation time: 00 hr 08 min 49 sec)
*** Reached end of trace: (0, "../traces/public_traces/compute_fp/compute_fp_8.champsimtrace.xz")
Heartbeat CPU 0 instructions: 70000006 cycles: 49675020 heartbeat IPC: 0.9906 cumulative IPC: 0.8957 (Simulation time: 00 hr 10 min 51 sec)
Heartbeat CPU 0 instructions: 80000011 cycles: 60784990 heartbeat IPC: 0.9001 cumulative IPC: 0.8966 (Simulation time: 00 hr 13 min 03 sec)
Heartbeat CPU 0 instructions: 90000000 cycles: 73757765 heartbeat IPC: 0.7708 cumulative IPC: 0.8729 (Simulation time: 00 hr 15 min 38 sec)
*** Reached end of trace: (0, "../traces/public_traces/compute_fp/compute_fp_8.champsimtrace.xz")
Heartbeat CPU 0 instructions: 100000003 cycles: 83840808 heartbeat IPC: 0.9918 cumulative IPC: 0.8881 (Simulation time: 00 hr 17 min 41 sec)
Heartbeat CPU 0 instructions: 110000006 cycles: 94958465 heartbeat IPC: 0.8995 cumulative IPC: 0.8895 (Simulation time: 00 hr 19 min 54 sec)
Heartbeat CPU 0 instructions: 120000009 cycles: 107938949 heartbeat IPC: 0.7704 cumulative IPC: 0.8745 (Simulation time: 00 hr 22 min 25 sec)
*** Reached end of trace: (0, "../traces/public_traces/compute_fp/compute_fp_8.champsimtrace.xz")
Heartbeat CPU 0 instructions: 130000000 cycles: 118005461 heartbeat IPC: 0.9934 cumulative IPC: 0.8851 (Simulation time: 00 hr 24 min 27 sec)
Simulation finished CPU 0 instructions: 100000003 cycles: 112986490 cumulative IPC: 0.8851 (Simulation time: 00 hr 24 min 27 sec)
Simulation complete CPU 0 instructions: 100000003 cycles: 112986490 cumulative IPC: 0.8851 (Simulation time: 00 hr 24 min 27 sec)

ChampSim completed all CPUs

=== Simulation ===
CPU 0 runs ../traces/public_traces/compute_fp/compute_fp_8.champsimtrace.xz
Region of Interest Statistics

CPU 0 cumulative IPC: 0.8851 instructions: 100000003 cycles: 112986490
CPU 0 Branch Prediction Accuracy: 99.99% MPKI: 0.00043 Average ROB Occupancy at Mispredict: 320.7
Branch type MPKI
BRANCH_DIRECT_JUMP: 0
BRANCH_INDIRECT: 0.00041
BRANCH_CONDITIONAL: 2e-05
BRANCH_DIRECT_CALL: 0
BRANCH_INDIRECT_CALL: 0
BRANCH_RETURN: 0

LLC TOTAL        ACCESS:    4837270 HIT:     570291 MISS:    4266979
LLC LOAD         ACCESS:       5970 HIT:        319 MISS:       5651
LLC RFO          ACCESS:    2069334 HIT:     280513 MISS:    1788821
LLC PREFETCH     ACCESS:     688526 HIT:        395 MISS:     688131
LLC WRITE        ACCESS:    2072630 HIT:     289064 MISS:    1783566
LLC TRANSLATION  ACCESS:        810 HIT:          0 MISS:        810
LLC PREFETCH REQUESTED:          0 ISSUED:          0 USEFUL:          0 USELESS:          0
LLC AVERAGE MISS LATENCY: 542.2 cycles
cpu0_DTLB TOTAL        ACCESS:   10980977 HIT:   10914965 MISS:      66012
cpu0_DTLB LOAD         ACCESS:   10980977 HIT:   10914965 MISS:      66012
cpu0_DTLB RFO          ACCESS:          0 HIT:          0 MISS:          0
cpu0_DTLB PREFETCH     ACCESS:          0 HIT:          0 MISS:          0
cpu0_DTLB WRITE        ACCESS:          0 HIT:          0 MISS:          0
cpu0_DTLB TRANSLATION  ACCESS:          0 HIT:          0 MISS:          0
cpu0_DTLB PREFETCH REQUESTED:          0 ISSUED:          0 USEFUL:          0 USELESS:          0
cpu0_DTLB AVERAGE MISS LATENCY: 121.7 cycles
cpu0_ITLB TOTAL        ACCESS:       6982 HIT:       6982 MISS:          0
cpu0_ITLB LOAD         ACCESS:       6982 HIT:       6982 MISS:          0
cpu0_ITLB RFO          ACCESS:          0 HIT:          0 MISS:          0
cpu0_ITLB PREFETCH     ACCESS:          0 HIT:          0 MISS:          0
cpu0_ITLB WRITE        ACCESS:          0 HIT:          0 MISS:          0
cpu0_ITLB TRANSLATION  ACCESS:          0 HIT:          0 MISS:          0
cpu0_ITLB PREFETCH REQUESTED:          0 ISSUED:          0 USEFUL:          0 USELESS:          0
cpu0_ITLB AVERAGE MISS LATENCY: -nan cycles
cpu0_L1D TOTAL        ACCESS:   17956313 HIT:    9617884 MISS:    8338429
cpu0_L1D LOAD         ACCESS:    3188592 HIT:    2478918 MISS:     709674
cpu0_L1D RFO          ACCESS:          0 HIT:          0 MISS:          0
cpu0_L1D PREFETCH     ACCESS:    4256129 HIT:     816366 MISS:    3439763
cpu0_L1D WRITE        ACCESS:   10468568 HIT:    6321224 MISS:    4147344
cpu0_L1D TRANSLATION  ACCESS:      43024 HIT:       1376 MISS:      41648
cpu0_L1D PREFETCH REQUESTED:  110922999 ISSUED:    4256148 USEFUL:      34861 USELESS:         24
cpu0_L1D AVERAGE MISS LATENCY: 188 cycles
cpu0_L1I TOTAL        ACCESS:      10209 HIT:       9951 MISS:        258
cpu0_L1I LOAD         ACCESS:       5108 HIT:       4958 MISS:        150
cpu0_L1I RFO          ACCESS:          0 HIT:          0 MISS:          0
cpu0_L1I PREFETCH     ACCESS:       5101 HIT:       4993 MISS:        108
cpu0_L1I WRITE        ACCESS:          0 HIT:          0 MISS:          0
cpu0_L1I TRANSLATION  ACCESS:          0 HIT:          0 MISS:          0
cpu0_L1I PREFETCH REQUESTED:       6309 ISSUED:       5101 USEFUL:         72 USELESS:          0
cpu0_L1I AVERAGE MISS LATENCY: 328.6 cycles
cpu0_L2C TOTAL        ACCESS:   14452714 HIT:   10585595 MISS:    3867119
cpu0_L2C LOAD         ACCESS:     655372 HIT:     635625 MISS:      19747
cpu0_L2C RFO          ACCESS:    3875979 HIT:    1806642 MISS:    2069337
cpu0_L2C PREFETCH     ACCESS:    6003159 HIT:    4225953 MISS:    1777206
cpu0_L2C WRITE        ACCESS:    3876566 HIT:    3876547 MISS:         19
cpu0_L2C TRANSLATION  ACCESS:      41638 HIT:      40828 MISS:        810
cpu0_L2C PREFETCH REQUESTED:    3359523 ISSUED:    3319144 USEFUL:     297250 USELESS:       3379
cpu0_L2C AVERAGE MISS LATENCY: 609 cycles
cpu0_STLB TOTAL        ACCESS:      43891 HIT:        938 MISS:      42953
cpu0_STLB LOAD         ACCESS:      43891 HIT:        938 MISS:      42953
cpu0_STLB RFO          ACCESS:          0 HIT:          0 MISS:          0
cpu0_STLB PREFETCH     ACCESS:          0 HIT:          0 MISS:          0
cpu0_STLB WRITE        ACCESS:          0 HIT:          0 MISS:          0
cpu0_STLB TRANSLATION  ACCESS:          0 HIT:          0 MISS:          0
cpu0_STLB PREFETCH REQUESTED:          0 ISSUED:          0 USEFUL:          0 USELESS:          0
cpu0_STLB AVERAGE MISS LATENCY: 216.6 cycles

DRAM Statistics

Channel 0 RQ ROW_BUFFER_HIT:     323812
  ROW_BUFFER_MISS:     918520
 AVG DBUS CONGESTED CYCLE: 3.976
WQ ROW_BUFFER_HIT: Channel 0 
  ROW_BUFFER_MISS:     101631
  FULL:     791166

Channel 1 RQ ROW_BUFFER_HIT:     322478
  ROW_BUFFER_MISS:     918575
 AVG DBUS CONGESTED CYCLE: 3.975
WQ ROW_BUFFER_HIT: Channel 1 
  ROW_BUFFER_MISS:     102053
  FULL:     789813
BERTI TO_L1: 5722606 TO_L2: 112815289 TO_L2_BC_MSHR: 64901684
BERTI AVG_LAT: 54.9616 NUM_TRACK_LATENCY: 897507 NUM_CANT_TRACK_LATENCY: 315
BERTI CROSS_PAGE 36500896 NO_CROSS_PAGE: 82036999
BERTI FOUND_BERTI: 11754739 NO_FOUND_BERTI: 5037485
BERTI AVERAGE_ISSUED: 5.82093
CPU 0 L1I Entangling prefetcher final stats
IP accesses: 4119 104640 87 / 5108
IP misses: 5274 149d00 22 / 150
IP hits: 0 0 0 / 0
IP late: 34 d00 7 / 75
IP wrong: 0 0 0 / 0
miss rate: 0.0293658
coverage: 0
coverage_late: 0.5
accuracy: 0
accuracy_late: 1
discarded: 0
evicts entangled j table: 0
evicts entangled k table: 2
max bb size: 13
formats: 0 0 3 0 1 0 0 
hist_lookups: 0 0 0 0 1 1 2 2 2 0 0 0 0 0 0 0 0 117 
hist_lookups_evict: 0 %
hist_lookups_shortlat: 93.6001 %
bb_found_hist: 0 912 456 147 42 42 7 0 7 7 0 0 0 21 0 0 0 0 0 0 0 0 0 0 0 0 0 0 0 0 0 0 0 0 0 0 0 0 0 0 0 0 0 0 0 0 0 0 0 0 0 0 0 0 0 0 0 0 0 0 0 0 0 0 
bb_found_summary: 3077 1641 1.87508
entangled_found_hist: 0 288 169 260 14 0 0 0 
entangled_found_summary: 1462 731 2
bb_ent_found_hist: 0 392 261 249 7 14 0 0 0 7 0 0 0 7 0 0 0 0 0 0 0 0 0 0 0 0 0 0 0 0 0 0 0 0 0 0 0 0 0 0 0 0 0 0 0 0 0 0 0 0 0 0 0 0 0 0 0 0 0 0 0 0 0 0 
bb_ent_found_summary: 1913 937 2.04163
