WARNING: physical memory size is smaller than virtual memory size.

*** ChampSim Multicore Out-of-Order Simulator ***
Warmup Instructions: 30000000
Simulation Instructions: 100000000
Number of CPUs: 1
Page size: 4096

BTB:
Basic BTB sets: 1024 ways: 8
Indirect:
history lengths: 0 0 10 16 27 44 60 96 109 219 449 487 714 1313 2146 3881 
ITTAGE tables: 64768 bytes;Region table: 240 bytes;IUM: 384 bytes;Total Storage= 65392 bytes;
RAS:
RAS size: 64
[LLC] Demand IPV: 1 2 2 1 4 Prefetch IPV: 1 2 1 1 4
Berti Prefetcher
CPU 0 Entangling prefetcher
Off-chip DRAM Size: 8 GiB Channels: 2 Width: 64-bit Data Race: 6400 MT/s
Heartbeat CPU 0 instructions: 10000004 cycles: 1712508 heartbeat IPC: 5.839 cumulative IPC: 5.839 (Simulation time: 00 hr 00 min 39 sec)
Heartbeat CPU 0 instructions: 20000006 cycles: 3424879 heartbeat IPC: 5.84 cumulative IPC: 5.84 (Simulation time: 00 hr 01 min 19 sec)
Heartbeat CPU 0 instructions: 30000002 cycles: 5139190 heartbeat IPC: 5.833 cumulative IPC: 5.837 (Simulation time: 00 hr 01 min 58 sec)
Warmup finished CPU 0 instructions: 30000002 cycles: 5139191 cumulative IPC: 5.837 (Simulation time: 00 hr 01 min 58 sec)
Warmup complete CPU 0 instructions: 30000002 cycles: 5139191 cumulative IPC: 5.837 (Simulation time: 00 hr 01 min 58 sec)
*** Reached end of trace: (0, "../traces/public_traces/compute_fp/compute_fp_6.champsimtrace.xz")
Heartbeat CPU 0 instructions: 40000010 cycles: 7844406 heartbeat IPC: 3.697 cumulative IPC: 3.697 (Simulation time: 00 hr 02 min 51 sec)
Heartbeat CPU 0 instructions: 50000010 cycles: 10660107 heartbeat IPC: 3.552 cumulative IPC: 3.623 (Simulation time: 00 hr 03 min 46 sec)
Heartbeat CPU 0 instructions: 60000008 cycles: 13378150 heartbeat IPC: 3.679 cumulative IPC: 3.641 (Simulation time: 00 hr 04 min 38 sec)
*** Reached end of trace: (0, "../traces/public_traces/compute_fp/compute_fp_6.champsimtrace.xz")
Heartbeat CPU 0 instructions: 70000011 cycles: 15957740 heartbeat IPC: 3.877 cumulative IPC: 3.697 (Simulation time: 00 hr 05 min 31 sec)
Heartbeat CPU 0 instructions: 80000002 cycles: 18601296 heartbeat IPC: 3.783 cumulative IPC: 3.714 (Simulation time: 00 hr 06 min 24 sec)
Heartbeat CPU 0 instructions: 90000008 cycles: 21206493 heartbeat IPC: 3.838 cumulative IPC: 3.734 (Simulation time: 00 hr 07 min 17 sec)
*** Reached end of trace: (0, "../traces/public_traces/compute_fp/compute_fp_6.champsimtrace.xz")
Heartbeat CPU 0 instructions: 100000000 cycles: 23783181 heartbeat IPC: 3.881 cumulative IPC: 3.755 (Simulation time: 00 hr 08 min 08 sec)
Heartbeat CPU 0 instructions: 110000005 cycles: 26360194 heartbeat IPC: 3.88 cumulative IPC: 3.77 (Simulation time: 00 hr 09 min 01 sec)
Heartbeat CPU 0 instructions: 120000005 cycles: 28961216 heartbeat IPC: 3.845 cumulative IPC: 3.778 (Simulation time: 00 hr 09 min 54 sec)
Heartbeat CPU 0 instructions: 130000008 cycles: 31471382 heartbeat IPC: 3.984 cumulative IPC: 3.798 (Simulation time: 00 hr 10 min 46 sec)
Simulation finished CPU 0 instructions: 100000006 cycles: 26332192 cumulative IPC: 3.798 (Simulation time: 00 hr 10 min 46 sec)
Simulation complete CPU 0 instructions: 100000006 cycles: 26332192 cumulative IPC: 3.798 (Simulation time: 00 hr 10 min 46 sec)

ChampSim completed all CPUs

=== Simulation ===
CPU 0 runs ../traces/public_traces/compute_fp/compute_fp_6.champsimtrace.xz
Region of Interest Statistics

CPU 0 cumulative IPC: 3.798 instructions: 100000006 cycles: 26332192
CPU 0 Branch Prediction Accuracy: 98.5% MPKI: 1.002 Average ROB Occupancy at Mispredict: 93.86
Branch type MPKI
BRANCH_DIRECT_JUMP: 0
BRANCH_INDIRECT: 0.577
BRANCH_CONDITIONAL: 0.425
BRANCH_DIRECT_CALL: 0
BRANCH_INDIRECT_CALL: 0
BRANCH_RETURN: 0

LLC TOTAL        ACCESS:    1587381 HIT:     317590 MISS:    1269791
LLC LOAD         ACCESS:     149896 HIT:      52126 MISS:      97770
LLC RFO          ACCESS:      36828 HIT:      35880 MISS:        948
LLC PREFETCH     ACCESS:    1320222 HIT:     154879 MISS:    1165343
LLC WRITE        ACCESS:      72567 HIT:      71484 MISS:       1083
LLC TRANSLATION  ACCESS:       7868 HIT:       3221 MISS:       4647
LLC PREFETCH REQUESTED:          0 ISSUED:          0 USEFUL:          0 USELESS:          0
LLC AVERAGE MISS LATENCY: 197.8 cycles
cpu0_DTLB TOTAL        ACCESS:   18493144 HIT:   18316565 MISS:     176579
cpu0_DTLB LOAD         ACCESS:   18493144 HIT:   18316565 MISS:     176579
cpu0_DTLB RFO          ACCESS:          0 HIT:          0 MISS:          0
cpu0_DTLB PREFETCH     ACCESS:          0 HIT:          0 MISS:          0
cpu0_DTLB WRITE        ACCESS:          0 HIT:          0 MISS:          0
cpu0_DTLB TRANSLATION  ACCESS:          0 HIT:          0 MISS:          0
cpu0_DTLB PREFETCH REQUESTED:          0 ISSUED:          0 USEFUL:          0 USELESS:          0
cpu0_DTLB AVERAGE MISS LATENCY: 10.7 cycles
cpu0_ITLB TOTAL        ACCESS:      61889 HIT:      61889 MISS:          0
cpu0_ITLB LOAD         ACCESS:      61889 HIT:      61889 MISS:          0
cpu0_ITLB RFO          ACCESS:          0 HIT:          0 MISS:          0
cpu0_ITLB PREFETCH     ACCESS:          0 HIT:          0 MISS:          0
cpu0_ITLB WRITE        ACCESS:          0 HIT:          0 MISS:          0
cpu0_ITLB TRANSLATION  ACCESS:          0 HIT:          0 MISS:          0
cpu0_ITLB PREFETCH REQUESTED:          0 ISSUED:          0 USEFUL:          0 USELESS:          0
cpu0_ITLB AVERAGE MISS LATENCY: -nan cycles
cpu0_L1D TOTAL        ACCESS:   39075298 HIT:   31679763 MISS:    7395535
cpu0_L1D LOAD         ACCESS:   19334864 HIT:   17511861 MISS:    1823003
cpu0_L1D RFO          ACCESS:          0 HIT:          0 MISS:          0
cpu0_L1D PREFETCH     ACCESS:   18223843 HIT:   12764615 MISS:    5459228
cpu0_L1D WRITE        ACCESS:    1480722 HIT:    1389375 MISS:      91347
cpu0_L1D TRANSLATION  ACCESS:      35869 HIT:      13912 MISS:      21957
cpu0_L1D PREFETCH REQUESTED:   81744961 ISSUED:   18223852 USEFUL:     805937 USELESS:     174692
cpu0_L1D AVERAGE MISS LATENCY: 15.75 cycles
cpu0_L1I TOTAL        ACCESS:      89754 HIT:      84531 MISS:       5223
cpu0_L1I LOAD         ACCESS:      44463 HIT:      42430 MISS:       2033
cpu0_L1I RFO          ACCESS:          0 HIT:          0 MISS:          0
cpu0_L1I PREFETCH     ACCESS:      45291 HIT:      42101 MISS:       3190
cpu0_L1I WRITE        ACCESS:          0 HIT:          0 MISS:          0
cpu0_L1I TRANSLATION  ACCESS:          0 HIT:          0 MISS:          0
cpu0_L1I PREFETCH REQUESTED:      56872 ISSUED:      45291 USEFUL:       2749 USELESS:         64
cpu0_L1I AVERAGE MISS LATENCY: 193.1 cycles
cpu0_L2C TOTAL        ACCESS:   10392436 HIT:    5325456 MISS:    5066980
cpu0_L2C LOAD         ACCESS:     694371 HIT:     500414 MISS:     193957
cpu0_L2C RFO          ACCESS:      56171 HIT:      19330 MISS:      36841
cpu0_L2C PREFETCH     ACCESS:    9514544 HIT:    4686299 MISS:    4828245
cpu0_L2C WRITE        ACCESS:     105617 HIT:     105549 MISS:         68
cpu0_L2C TRANSLATION  ACCESS:      21733 HIT:      13864 MISS:       7869
cpu0_L2C PREFETCH REQUESTED:    5545621 ISSUED:    4691756 USEFUL:     414030 USELESS:     342898
cpu0_L2C AVERAGE MISS LATENCY: 54.76 cycles
cpu0_STLB TOTAL        ACCESS:      71583 HIT:      35799 MISS:      35784
cpu0_STLB LOAD         ACCESS:      71583 HIT:      35799 MISS:      35784
cpu0_STLB RFO          ACCESS:          0 HIT:          0 MISS:          0
cpu0_STLB PREFETCH     ACCESS:          0 HIT:          0 MISS:          0
cpu0_STLB WRITE        ACCESS:          0 HIT:          0 MISS:          0
cpu0_STLB TRANSLATION  ACCESS:          0 HIT:          0 MISS:          0
cpu0_STLB PREFETCH REQUESTED:          0 ISSUED:          0 USEFUL:          0 USELESS:          0
cpu0_STLB AVERAGE MISS LATENCY: 63.11 cycles

DRAM Statistics

Channel 0 RQ ROW_BUFFER_HIT:     512088
  ROW_BUFFER_MISS:     124665
 AVG DBUS CONGESTED CYCLE: 3.896
WQ ROW_BUFFER_HIT: Channel 0 
  ROW_BUFFER_MISS:        332
  FULL:        347

Channel 1 RQ ROW_BUFFER_HIT:     507537
  ROW_BUFFER_MISS:     124408
 AVG DBUS CONGESTED CYCLE: 3.892
WQ ROW_BUFFER_HIT: Channel 1 
  ROW_BUFFER_MISS:        307
  FULL:        356
BERTI TO_L1: 56486382 TO_L2: 54090305 TO_L2_BC_MSHR: 2499275
BERTI AVG_LAT: 79.9416 NUM_TRACK_LATENCY: 2160254 NUM_CANT_TRACK_LATENCY: 0
BERTI CROSS_PAGE 24342520 NO_CROSS_PAGE: 86234167
BERTI FOUND_BERTI: 17562406 NO_FOUND_BERTI: 8091770
BERTI AVERAGE_ISSUED: 2.44614
CPU 0 L1I Entangling prefetcher final stats
IP accesses: cb 32c0 1690 / 49762
IP misses: 30c7 c31c0 272 / 7332
IP hits: 0 0 0 / 0
IP late: 3cc0 f3000 9 / 1088
IP wrong: 202 8080 6 / 64
miss rate: 0.147342
coverage: 0
coverage_late: 0.148391
accuracy: 0
accuracy_late: 0.944445
discarded: 0
evicts entangled j table: 0
evicts entangled k table: 88
max bb size: 13
formats: 29 0 52 39 36 50 0 
hist_lookups: 23 33 39 58 50 41 36 21 21 30 25 16 11 6 5 0 27 1364 
hist_lookups_evict: 1.49502 %
hist_lookups_shortlat: 75.5261 %
bb_found_hist: 0 4732 2008 777 619 163 550 93 72 67 0 9 57 149 0 0 0 0 0 0 0 0 0 0 0 0 0 0 0 0 0 0 0 0 0 0 0 0 0 0 0 0 0 0 0 0 0 0 0 0 0 0 0 0 0 0 0 0 0 0 0 0 0 0 
bb_found_summary: 22220 9296 2.39028
entangled_found_hist: 0 1470 2074 1708 186 515 114 0 
entangled_found_summary: 14745 6067 2.43037
bb_ent_found_hist: 0 4071 2435 1142 550 168 346 498 170 75 0 24 9 0 0 0 0 0 0 0 0 0 0 0 0 0 0 0 0 0 0 0 0 0 0 0 0 0 0 0 0 0 0 0 0 0 0 0 0 0 0 0 0 0 0 0 0 0 0 0 0 0 0 0 
bb_ent_found_summary: 23376 9488 2.46375
