WARNING: physical memory size is smaller than virtual memory size.

*** ChampSim Multicore Out-of-Order Simulator ***
Warmup Instructions: 30000000
Simulation Instructions: 100000000
Number of CPUs: 1
Page size: 4096

BTB:
Basic BTB sets: 1024 ways: 8
Indirect:
history lengths: 0 0 10 16 27 44 60 96 109 219 449 487 714 1313 2146 3881 
ITTAGE tables: 64768 bytes;Region table: 240 bytes;IUM: 384 bytes;Total Storage= 65392 bytes;
RAS:
RAS size: 64
[LLC] Demand IPV: 1 2 2 1 4 Prefetch IPV: 1 2 1 1 4
Berti Prefetcher
CPU 0 Entangling prefetcher
Off-chip DRAM Size: 8 GiB Channels: 2 Width: 64-bit Data Race: 6400 MT/s
Heartbeat CPU 0 instructions: 10000004 cycles: 1666774 heartbeat IPC: 6 cumulative IPC: 6 (Simulation time: 00 hr 00 min 33 sec)
Heartbeat CPU 0 instructions: 20000004 cycles: 3333444 heartbeat IPC: 6 cumulative IPC: 6 (Simulation time: 00 hr 01 min 06 sec)
Heartbeat CPU 0 instructions: 30000004 cycles: 5000108 heartbeat IPC: 6 cumulative IPC: 6 (Simulation time: 00 hr 01 min 40 sec)
Warmup finished CPU 0 instructions: 30000004 cycles: 5000109 cumulative IPC: 6 (Simulation time: 00 hr 01 min 40 sec)
Warmup complete CPU 0 instructions: 30000004 cycles: 5000109 cumulative IPC: 6 (Simulation time: 00 hr 01 min 40 sec)
*** Reached end of trace: (0, "../traces/public_traces/compute_fp/compute_fp_13.champsimtrace.xz")
Heartbeat CPU 0 instructions: 40000000 cycles: 6733527 heartbeat IPC: 5.769 cumulative IPC: 5.769 (Simulation time: 00 hr 02 min 24 sec)
Heartbeat CPU 0 instructions: 50000000 cycles: 8475350 heartbeat IPC: 5.741 cumulative IPC: 5.755 (Simulation time: 00 hr 03 min 12 sec)
Heartbeat CPU 0 instructions: 60000002 cycles: 10239548 heartbeat IPC: 5.668 cumulative IPC: 5.726 (Simulation time: 00 hr 04 min 01 sec)
*** Reached end of trace: (0, "../traces/public_traces/compute_fp/compute_fp_13.champsimtrace.xz")
Heartbeat CPU 0 instructions: 70000004 cycles: 11969741 heartbeat IPC: 5.78 cumulative IPC: 5.739 (Simulation time: 00 hr 04 min 47 sec)
Heartbeat CPU 0 instructions: 80000009 cycles: 13704049 heartbeat IPC: 5.766 cumulative IPC: 5.745 (Simulation time: 00 hr 05 min 29 sec)
Heartbeat CPU 0 instructions: 90000006 cycles: 15453452 heartbeat IPC: 5.716 cumulative IPC: 5.74 (Simulation time: 00 hr 06 min 11 sec)
*** Reached end of trace: (0, "../traces/public_traces/compute_fp/compute_fp_13.champsimtrace.xz")
Heartbeat CPU 0 instructions: 100000009 cycles: 17182846 heartbeat IPC: 5.782 cumulative IPC: 5.746 (Simulation time: 00 hr 06 min 54 sec)
Heartbeat CPU 0 instructions: 110000000 cycles: 18911710 heartbeat IPC: 5.784 cumulative IPC: 5.751 (Simulation time: 00 hr 07 min 36 sec)
Heartbeat CPU 0 instructions: 120000001 cycles: 20658308 heartbeat IPC: 5.725 cumulative IPC: 5.748 (Simulation time: 00 hr 08 min 18 sec)
*** Reached end of trace: (0, "../traces/public_traces/compute_fp/compute_fp_13.champsimtrace.xz")
Heartbeat CPU 0 instructions: 130000005 cycles: 22385078 heartbeat IPC: 5.791 cumulative IPC: 5.752 (Simulation time: 00 hr 09 min 01 sec)
Simulation finished CPU 0 instructions: 100000001 cycles: 17384970 cumulative IPC: 5.752 (Simulation time: 00 hr 09 min 01 sec)
Simulation complete CPU 0 instructions: 100000001 cycles: 17384970 cumulative IPC: 5.752 (Simulation time: 00 hr 09 min 01 sec)

ChampSim completed all CPUs

=== Simulation ===
CPU 0 runs ../traces/public_traces/compute_fp/compute_fp_13.champsimtrace.xz
Region of Interest Statistics

CPU 0 cumulative IPC: 5.752 instructions: 100000001 cycles: 17384970
CPU 0 Branch Prediction Accuracy: 99.46% MPKI: 0.1205 Average ROB Occupancy at Mispredict: 146.2
Branch type MPKI
BRANCH_DIRECT_JUMP: 0
BRANCH_INDIRECT: 0.12
BRANCH_CONDITIONAL: 2e-05
BRANCH_DIRECT_CALL: 0
BRANCH_INDIRECT_CALL: 0
BRANCH_RETURN: 0

LLC TOTAL        ACCESS:     236134 HIT:     189840 MISS:      46294
LLC LOAD         ACCESS:      68336 HIT:      54227 MISS:      14109
LLC RFO          ACCESS:         72 HIT:         72 MISS:          0
LLC PREFETCH     ACCESS:     118179 HIT:      90028 MISS:      28151
LLC WRITE        ACCESS:      49547 HIT:      45513 MISS:       4034
LLC TRANSLATION  ACCESS:          0 HIT:          0 MISS:          0
LLC PREFETCH REQUESTED:          0 ISSUED:          0 USEFUL:          0 USELESS:          0
LLC AVERAGE MISS LATENCY: 94.25 cycles
cpu0_DTLB TOTAL        ACCESS:   11660053 HIT:   11613073 MISS:      46980
cpu0_DTLB LOAD         ACCESS:   11660053 HIT:   11613073 MISS:      46980
cpu0_DTLB RFO          ACCESS:          0 HIT:          0 MISS:          0
cpu0_DTLB PREFETCH     ACCESS:          0 HIT:          0 MISS:          0
cpu0_DTLB WRITE        ACCESS:          0 HIT:          0 MISS:          0
cpu0_DTLB TRANSLATION  ACCESS:          0 HIT:          0 MISS:          0
cpu0_DTLB PREFETCH REQUESTED:          0 ISSUED:          0 USEFUL:          0 USELESS:          0
cpu0_DTLB AVERAGE MISS LATENCY: 5.088 cycles
cpu0_ITLB TOTAL        ACCESS:       5863 HIT:       5863 MISS:          0
cpu0_ITLB LOAD         ACCESS:       5863 HIT:       5863 MISS:          0
cpu0_ITLB RFO          ACCESS:          0 HIT:          0 MISS:          0
cpu0_ITLB PREFETCH     ACCESS:          0 HIT:          0 MISS:          0
cpu0_ITLB WRITE        ACCESS:          0 HIT:          0 MISS:          0
cpu0_ITLB TRANSLATION  ACCESS:          0 HIT:          0 MISS:          0
cpu0_ITLB PREFETCH REQUESTED:          0 ISSUED:          0 USEFUL:          0 USELESS:          0
cpu0_ITLB AVERAGE MISS LATENCY: -nan cycles
cpu0_L1D TOTAL        ACCESS:   17594283 HIT:   16926333 MISS:     667950
cpu0_L1D LOAD         ACCESS:   10104189 HIT:    9726416 MISS:     377773
cpu0_L1D RFO          ACCESS:          0 HIT:          0 MISS:          0
cpu0_L1D PREFETCH     ACCESS:     527027 HIT:     239486 MISS:     287541
cpu0_L1D WRITE        ACCESS:    6963067 HIT:    6960431 MISS:       2636
cpu0_L1D TRANSLATION  ACCESS:          0 HIT:          0 MISS:          0
cpu0_L1D PREFETCH REQUESTED:     527139 ISSUED:     527027 USEFUL:       7843 USELESS:          0
cpu0_L1D AVERAGE MISS LATENCY: 5.568 cycles
cpu0_L1I TOTAL        ACCESS:       8710 HIT:       8336 MISS:        374
cpu0_L1I LOAD         ACCESS:       4787 HIT:       4535 MISS:        252
cpu0_L1I RFO          ACCESS:          0 HIT:          0 MISS:          0
cpu0_L1I PREFETCH     ACCESS:       3923 HIT:       3801 MISS:        122
cpu0_L1I WRITE        ACCESS:          0 HIT:          0 MISS:          0
cpu0_L1I TRANSLATION  ACCESS:          0 HIT:          0 MISS:          0
cpu0_L1I PREFETCH REQUESTED:       7200 ISSUED:       3923 USEFUL:         75 USELESS:          0
cpu0_L1I AVERAGE MISS LATENCY: 15.27 cycles
cpu0_L2C TOTAL        ACCESS:     974834 HIT:     737308 MISS:     237526
cpu0_L2C LOAD         ACCESS:     179131 HIT:     109163 MISS:      69968
cpu0_L2C RFO          ACCESS:        512 HIT:        440 MISS:         72
cpu0_L2C PREFETCH     ACCESS:     745012 HIT:     577526 MISS:     167486
cpu0_L2C WRITE        ACCESS:      50179 HIT:      50179 MISS:          0
cpu0_L2C TRANSLATION  ACCESS:          0 HIT:          0 MISS:          0
cpu0_L2C PREFETCH REQUESTED:     466745 ISSUED:     457398 USEFUL:     109484 USELESS:        410
cpu0_L2C AVERAGE MISS LATENCY: 33.99 cycles
cpu0_STLB TOTAL        ACCESS:      32934 HIT:      32934 MISS:          0
cpu0_STLB LOAD         ACCESS:      32934 HIT:      32934 MISS:          0
cpu0_STLB RFO          ACCESS:          0 HIT:          0 MISS:          0
cpu0_STLB PREFETCH     ACCESS:          0 HIT:          0 MISS:          0
cpu0_STLB WRITE        ACCESS:          0 HIT:          0 MISS:          0
cpu0_STLB TRANSLATION  ACCESS:          0 HIT:          0 MISS:          0
cpu0_STLB PREFETCH REQUESTED:          0 ISSUED:          0 USEFUL:          0 USELESS:          0
cpu0_STLB AVERAGE MISS LATENCY: -nan cycles

DRAM Statistics

Channel 0 RQ ROW_BUFFER_HIT:      16673
  ROW_BUFFER_MISS:       4590
 AVG DBUS CONGESTED CYCLE: 3.551
WQ ROW_BUFFER_HIT: Channel 0 
  ROW_BUFFER_MISS:        254
  FULL:       1653

Channel 1 RQ ROW_BUFFER_HIT:      16453
  ROW_BUFFER_MISS:       4544
 AVG DBUS CONGESTED CYCLE: 3.569
WQ ROW_BUFFER_HIT: Channel 1 
  ROW_BUFFER_MISS:        247
  FULL:       1677
BERTI TO_L1: 249280 TO_L2: 294677 TO_L2_BC_MSHR: 0
BERTI AVG_LAT: 21.024 NUM_TRACK_LATENCY: 242778 NUM_CANT_TRACK_LATENCY: 0
BERTI CROSS_PAGE 30050 NO_CROSS_PAGE: 513907
BERTI FOUND_BERTI: 4929253 NO_FOUND_BERTI: 8521446
BERTI AVERAGE_ISSUED: 5.0619
CPU 0 L1I Entangling prefetcher final stats
IP accesses: 4119 104640 78 / 4787
IP misses: 4f00 13c000 23 / 252
IP hits: 0 0 0 / 0
IP late: 140 5000 7 / 129
IP wrong: 0 0 0 / 0
miss rate: 0.0526426
coverage: 0
coverage_late: 0.511905
accuracy: 0
accuracy_late: 1
discarded: 0
evicts entangled j table: 0
evicts entangled k table: 6
max bb size: 12
formats: 9 0 14 2 3 1 0 
hist_lookups: 2 2 2 12 13 3 6 2 1 6 9 4 1 3 1 0 0 181 
hist_lookups_evict: 0 %
hist_lookups_shortlat: 72.9839 %
bb_found_hist: 0 901 446 165 42 49 14 0 0 7 0 7 10 0 0 0 0 0 0 0 0 0 0 0 0 0 0 0 0 0 0 0 0 0 0 0 0 0 0 0 0 0 0 0 0 0 0 0 0 0 0 0 0 0 0 0 0 0 0 0 0 0 0 0 
bb_found_summary: 3045 1641 1.85558
entangled_found_hist: 0 475 244 244 21 0 0 0 
entangled_found_summary: 1779 984 1.80793
bb_ent_found_hist: 0 555 336 221 7 14 39 0 0 6 0 27 0 0 0 0 0 0 0 0 0 0 0 0 0 0 0 0 0 0 0 0 0 0 0 0 0 0 0 0 0 0 0 0 0 0 0 0 0 0 0 0 0 0 0 0 0 0 0 0 0 0 0 0 
bb_ent_found_summary: 2573 1205 2.13527
