WARNING: physical memory size is smaller than virtual memory size.

*** ChampSim Multicore Out-of-Order Simulator ***
Warmup Instructions: 30000000
Simulation Instructions: 100000000
Number of CPUs: 1
Page size: 4096

BTB:
Basic BTB sets: 1024 ways: 8
Indirect:
history lengths: 0 0 10 16 27 44 60 96 109 219 449 487 714 1313 2146 3881 
ITTAGE tables: 64768 bytes;Region table: 240 bytes;IUM: 384 bytes;Total Storage= 65392 bytes;
RAS:
RAS size: 64
[LLC] Demand IPV: 1 2 2 1 4 Prefetch IPV: 1 2 1 1 4
Berti Prefetcher
CPU 0 Entangling prefetcher
Off-chip DRAM Size: 8 GiB Channels: 2 Width: 64-bit Data Race: 6400 MT/s
Heartbeat CPU 0 instructions: 10000002 cycles: 1675918 heartbeat IPC: 5.967 cumulative IPC: 5.967 (Simulation time: 00 hr 00 min 39 sec)
Heartbeat CPU 0 instructions: 20000009 cycles: 3352144 heartbeat IPC: 5.966 cumulative IPC: 5.966 (Simulation time: 00 hr 01 min 25 sec)
Heartbeat CPU 0 instructions: 30000010 cycles: 5018811 heartbeat IPC: 6 cumulative IPC: 5.978 (Simulation time: 00 hr 02 min 08 sec)
Warmup finished CPU 0 instructions: 30000010 cycles: 5018812 cumulative IPC: 5.978 (Simulation time: 00 hr 02 min 08 sec)
Warmup complete CPU 0 instructions: 30000010 cycles: 5018812 cumulative IPC: 5.978 (Simulation time: 00 hr 02 min 08 sec)
*** Reached end of trace: (0, "../traces/public_traces/compute_fp/compute_fp_10.champsimtrace.xz")
Heartbeat CPU 0 instructions: 40000011 cycles: 15294177 heartbeat IPC: 0.9732 cumulative IPC: 0.9732 (Simulation time: 00 hr 04 min 39 sec)
Heartbeat CPU 0 instructions: 50000010 cycles: 26717879 heartbeat IPC: 0.8754 cumulative IPC: 0.9217 (Simulation time: 00 hr 07 min 14 sec)
Heartbeat CPU 0 instructions: 60000005 cycles: 39637720 heartbeat IPC: 0.774 cumulative IPC: 0.8666 (Simulation time: 00 hr 09 min 54 sec)
*** Reached end of trace: (0, "../traces/public_traces/compute_fp/compute_fp_10.champsimtrace.xz")
Heartbeat CPU 0 instructions: 70000007 cycles: 49736113 heartbeat IPC: 0.9903 cumulative IPC: 0.8945 (Simulation time: 00 hr 12 min 21 sec)
Heartbeat CPU 0 instructions: 80000002 cycles: 61066712 heartbeat IPC: 0.8826 cumulative IPC: 0.8921 (Simulation time: 00 hr 15 min 17 sec)
Heartbeat CPU 0 instructions: 90000001 cycles: 73974602 heartbeat IPC: 0.7747 cumulative IPC: 0.8701 (Simulation time: 00 hr 18 min 16 sec)
*** Reached end of trace: (0, "../traces/public_traces/compute_fp/compute_fp_10.champsimtrace.xz")
Heartbeat CPU 0 instructions: 100000006 cycles: 84015814 heartbeat IPC: 0.9959 cumulative IPC: 0.8861 (Simulation time: 00 hr 20 min 45 sec)
Heartbeat CPU 0 instructions: 110000005 cycles: 95291452 heartbeat IPC: 0.8869 cumulative IPC: 0.8862 (Simulation time: 00 hr 23 min 28 sec)
Heartbeat CPU 0 instructions: 120000002 cycles: 108129520 heartbeat IPC: 0.7789 cumulative IPC: 0.8728 (Simulation time: 00 hr 26 min 40 sec)
*** Reached end of trace: (0, "../traces/public_traces/compute_fp/compute_fp_10.champsimtrace.xz")
Heartbeat CPU 0 instructions: 130000002 cycles: 118185864 heartbeat IPC: 0.9944 cumulative IPC: 0.8836 (Simulation time: 00 hr 29 min 09 sec)
Simulation finished CPU 0 instructions: 100000004 cycles: 113167054 cumulative IPC: 0.8836 (Simulation time: 00 hr 29 min 09 sec)
Simulation complete CPU 0 instructions: 100000004 cycles: 113167054 cumulative IPC: 0.8836 (Simulation time: 00 hr 29 min 09 sec)

ChampSim completed all CPUs

=== Simulation ===
CPU 0 runs ../traces/public_traces/compute_fp/compute_fp_10.champsimtrace.xz
Region of Interest Statistics

CPU 0 cumulative IPC: 0.8836 instructions: 100000004 cycles: 113167054
CPU 0 Branch Prediction Accuracy: 99.99% MPKI: 0.00089 Average ROB Occupancy at Mispredict: 281.5
Branch type MPKI
BRANCH_DIRECT_JUMP: 0
BRANCH_INDIRECT: 0.00077
BRANCH_CONDITIONAL: 0.00012
BRANCH_DIRECT_CALL: 0
BRANCH_INDIRECT_CALL: 0
BRANCH_RETURN: 0

LLC TOTAL        ACCESS:    4837508 HIT:     570522 MISS:    4266986
LLC LOAD         ACCESS:       6199 HIT:         15 MISS:       6184
LLC RFO          ACCESS:    2070348 HIT:     281354 MISS:    1788994
LLC PREFETCH     ACCESS:     687293 HIT:        360 MISS:     686933
LLC WRITE        ACCESS:    2072866 HIT:     288793 MISS:    1784073
LLC TRANSLATION  ACCESS:        802 HIT:          0 MISS:        802
LLC PREFETCH REQUESTED:          0 ISSUED:          0 USEFUL:          0 USELESS:          0
LLC AVERAGE MISS LATENCY: 542.5 cycles
cpu0_DTLB TOTAL        ACCESS:   10990386 HIT:   10924514 MISS:      65872
cpu0_DTLB LOAD         ACCESS:   10990386 HIT:   10924514 MISS:      65872
cpu0_DTLB RFO          ACCESS:          0 HIT:          0 MISS:          0
cpu0_DTLB PREFETCH     ACCESS:          0 HIT:          0 MISS:          0
cpu0_DTLB WRITE        ACCESS:          0 HIT:          0 MISS:          0
cpu0_DTLB TRANSLATION  ACCESS:          0 HIT:          0 MISS:          0
cpu0_DTLB PREFETCH REQUESTED:          0 ISSUED:          0 USEFUL:          0 USELESS:          0
cpu0_DTLB AVERAGE MISS LATENCY: 122.5 cycles
cpu0_ITLB TOTAL        ACCESS:       2809 HIT:       2809 MISS:          0
cpu0_ITLB LOAD         ACCESS:       2809 HIT:       2809 MISS:          0
cpu0_ITLB RFO          ACCESS:          0 HIT:          0 MISS:          0
cpu0_ITLB PREFETCH     ACCESS:          0 HIT:          0 MISS:          0
cpu0_ITLB WRITE        ACCESS:          0 HIT:          0 MISS:          0
cpu0_ITLB TRANSLATION  ACCESS:          0 HIT:          0 MISS:          0
cpu0_ITLB PREFETCH REQUESTED:          0 ISSUED:          0 USEFUL:          0 USELESS:          0
cpu0_ITLB AVERAGE MISS LATENCY: -nan cycles
cpu0_L1D TOTAL        ACCESS:   17966891 HIT:    9638432 MISS:    8328459
cpu0_L1D LOAD         ACCESS:    3206398 HIT:    2490524 MISS:     715874
cpu0_L1D RFO          ACCESS:          0 HIT:          0 MISS:          0
cpu0_L1D PREFETCH     ACCESS:    4248376 HIT:     824857 MISS:    3423519
cpu0_L1D WRITE        ACCESS:   10469105 HIT:    6321655 MISS:    4147450
cpu0_L1D TRANSLATION  ACCESS:      43012 HIT:       1396 MISS:      41616
cpu0_L1D PREFETCH REQUESTED:  111671239 ISSUED:    4248385 USEFUL:      34030 USELESS:         27
cpu0_L1D AVERAGE MISS LATENCY: 188.4 cycles
cpu0_L1I TOTAL        ACCESS:       4163 HIT:       4051 MISS:        112
cpu0_L1I LOAD         ACCESS:       2168 HIT:       2102 MISS:         66
cpu0_L1I RFO          ACCESS:          0 HIT:          0 MISS:          0
cpu0_L1I PREFETCH     ACCESS:       1995 HIT:       1949 MISS:         46
cpu0_L1I WRITE        ACCESS:          0 HIT:          0 MISS:          0
cpu0_L1I TRANSLATION  ACCESS:          0 HIT:          0 MISS:          0
cpu0_L1I PREFETCH REQUESTED:       2436 ISSUED:       1995 USEFUL:         31 USELESS:          0
cpu0_L1I AVERAGE MISS LATENCY: 271.3 cycles
cpu0_L2C TOTAL        ACCESS:   14431245 HIT:   10557532 MISS:    3873713
cpu0_L2C LOAD         ACCESS:     655764 HIT:     635185 MISS:      20579
cpu0_L2C RFO          ACCESS:    3876493 HIT:    1806145 MISS:    2070348
cpu0_L2C PREFETCH     ACCESS:    5980548 HIT:    4198583 MISS:    1781965
cpu0_L2C WRITE        ACCESS:    3876831 HIT:    3876812 MISS:         19
cpu0_L2C TRANSLATION  ACCESS:      41609 HIT:      40807 MISS:        802
cpu0_L2C PREFETCH REQUESTED:    3347277 ISSUED:    3309489 USEFUL:     297722 USELESS:       2888
cpu0_L2C AVERAGE MISS LATENCY: 608.2 cycles
cpu0_STLB TOTAL        ACCESS:      43577 HIT:        624 MISS:      42953
cpu0_STLB LOAD         ACCESS:      43577 HIT:        624 MISS:      42953
cpu0_STLB RFO          ACCESS:          0 HIT:          0 MISS:          0
cpu0_STLB PREFETCH     ACCESS:          0 HIT:          0 MISS:          0
cpu0_STLB WRITE        ACCESS:          0 HIT:          0 MISS:          0
cpu0_STLB TRANSLATION  ACCESS:          0 HIT:          0 MISS:          0
cpu0_STLB PREFETCH REQUESTED:          0 ISSUED:          0 USEFUL:          0 USELESS:          0
cpu0_STLB AVERAGE MISS LATENCY: 217.4 cycles

DRAM Statistics

Channel 0 RQ ROW_BUFFER_HIT:     324686
  ROW_BUFFER_MISS:     917180
 AVG DBUS CONGESTED CYCLE: 3.976
WQ ROW_BUFFER_HIT: Channel 0 
  ROW_BUFFER_MISS:     100651
  FULL:     792273

Channel 1 RQ ROW_BUFFER_HIT:     322448
  ROW_BUFFER_MISS:     918571
 AVG DBUS CONGESTED CYCLE: 3.976
WQ ROW_BUFFER_HIT: Channel 1 
  ROW_BUFFER_MISS:     102175
  FULL:     790332
BERTI TO_L1: 5639078 TO_L2: 113307829 TO_L2_BC_MSHR: 65148416
BERTI AVG_LAT: 54.2118 NUM_TRACK_LATENCY: 897140 NUM_CANT_TRACK_LATENCY: 257
BERTI CROSS_PAGE 36491254 NO_CROSS_PAGE: 82455653
BERTI FOUND_BERTI: 11848122 NO_FOUND_BERTI: 5056750
BERTI AVERAGE_ISSUED: 5.78588
CPU 0 L1I Entangling prefetcher final stats
IP accesses: 4119 104640 39 / 2168
IP misses: 37 dc0 10 / 66
IP hits: 0 0 0 / 0
IP late: 34 d00 3 / 31
IP wrong: 0 0 0 / 0
miss rate: 0.0304429
coverage: 0
coverage_late: 0.469697
accuracy: 0
accuracy_late: 1
discarded: 0
evicts entangled j table: 0
evicts entangled k table: 0
max bb size: 25
formats: 0 0 3 0 1 0 0 
hist_lookups: 0 0 0 0 2 1 0 0 2 0 0 0 0 0 0 0 0 169 
hist_lookups_evict: 0 %
hist_lookups_shortlat: 97.1265 %
bb_found_hist: 0 374 178 60 16 18 3 3 0 2 0 0 0 0 0 0 0 0 0 0 0 0 0 0 0 3 0 0 0 0 0 0 0 0 0 0 0 0 0 0 0 0 0 0 0 0 0 0 0 0 0 0 0 0 0 0 0 0 0 0 0 0 0 0 
bb_found_summary: 1196 657 1.8204
entangled_found_hist: 0 61 84 109 0 0 0 0 
entangled_found_summary: 556 254 2.18898
bb_ent_found_hist: 0 191 71 98 0 12 0 3 0 2 0 0 0 0 0 0 0 0 0 0 0 0 0 0 0 0 0 0 0 0 0 0 0 0 0 0 0 0 0 0 0 0 0 0 0 0 0 0 0 0 0 0 0 0 0 0 0 0 0 0 0 0 0 0 
bb_ent_found_summary: 726 377 1.92573
