WARNING: physical memory size is smaller than virtual memory size.

*** ChampSim Multicore Out-of-Order Simulator ***
Warmup Instructions: 30000000
Simulation Instructions: 100000000
Number of CPUs: 1
Page size: 4096

BTB:
Basic BTB sets: 1024 ways: 8
Indirect:
history lengths: 0 0 10 16 27 44 60 96 109 219 449 487 714 1313 2146 3881 
ITTAGE tables: 64768 bytes;Region table: 240 bytes;IUM: 384 bytes;Total Storage= 65392 bytes;
RAS:
RAS size: 64
[LLC] Demand IPV: 1 2 2 1 4 Prefetch IPV: 1 2 1 1 4
Berti Prefetcher
CPU 0 Entangling prefetcher
Off-chip DRAM Size: 8 GiB Channels: 2 Width: 64-bit Data Race: 6400 MT/s
Heartbeat CPU 0 instructions: 10000004 cycles: 1666743 heartbeat IPC: 6 cumulative IPC: 6 (Simulation time: 00 hr 00 min 44 sec)
Heartbeat CPU 0 instructions: 20000003 cycles: 3333634 heartbeat IPC: 5.999 cumulative IPC: 5.999 (Simulation time: 00 hr 01 min 29 sec)
Heartbeat CPU 0 instructions: 30000002 cycles: 5000300 heartbeat IPC: 6 cumulative IPC: 6 (Simulation time: 00 hr 02 min 14 sec)
Warmup finished CPU 0 instructions: 30000002 cycles: 5000301 cumulative IPC: 6 (Simulation time: 00 hr 02 min 14 sec)
Warmup complete CPU 0 instructions: 30000002 cycles: 5000301 cumulative IPC: 6 (Simulation time: 00 hr 02 min 14 sec)
*** Reached end of trace: (0, "../traces/public_traces/compute_fp/compute_fp_11.champsimtrace.xz")
Heartbeat CPU 0 instructions: 40000001 cycles: 6673953 heartbeat IPC: 5.975 cumulative IPC: 5.975 (Simulation time: 00 hr 03 min 03 sec)
Heartbeat CPU 0 instructions: 50000001 cycles: 8358479 heartbeat IPC: 5.936 cumulative IPC: 5.956 (Simulation time: 00 hr 03 min 53 sec)
Heartbeat CPU 0 instructions: 60000007 cycles: 10052813 heartbeat IPC: 5.902 cumulative IPC: 5.938 (Simulation time: 00 hr 04 min 43 sec)
*** Reached end of trace: (0, "../traces/public_traces/compute_fp/compute_fp_11.champsimtrace.xz")
Heartbeat CPU 0 instructions: 70000003 cycles: 11725223 heartbeat IPC: 5.979 cumulative IPC: 5.948 (Simulation time: 00 hr 05 min 32 sec)
Heartbeat CPU 0 instructions: 80000000 cycles: 13405918 heartbeat IPC: 5.95 cumulative IPC: 5.948 (Simulation time: 00 hr 06 min 21 sec)
Heartbeat CPU 0 instructions: 90000002 cycles: 15090879 heartbeat IPC: 5.935 cumulative IPC: 5.946 (Simulation time: 00 hr 07 min 11 sec)
*** Reached end of trace: (0, "../traces/public_traces/compute_fp/compute_fp_11.champsimtrace.xz")
Heartbeat CPU 0 instructions: 100000009 cycles: 16763763 heartbeat IPC: 5.978 cumulative IPC: 5.951 (Simulation time: 00 hr 08 min 00 sec)
Heartbeat CPU 0 instructions: 110000004 cycles: 18443300 heartbeat IPC: 5.954 cumulative IPC: 5.951 (Simulation time: 00 hr 08 min 46 sec)
Heartbeat CPU 0 instructions: 120000003 cycles: 20123319 heartbeat IPC: 5.952 cumulative IPC: 5.951 (Simulation time: 00 hr 09 min 33 sec)
*** Reached end of trace: (0, "../traces/public_traces/compute_fp/compute_fp_11.champsimtrace.xz")
Heartbeat CPU 0 instructions: 130000008 cycles: 21796510 heartbeat IPC: 5.977 cumulative IPC: 5.954 (Simulation time: 00 hr 10 min 19 sec)
Simulation finished CPU 0 instructions: 100000006 cycles: 16796210 cumulative IPC: 5.954 (Simulation time: 00 hr 10 min 19 sec)
Simulation complete CPU 0 instructions: 100000006 cycles: 16796210 cumulative IPC: 5.954 (Simulation time: 00 hr 10 min 19 sec)

ChampSim completed all CPUs

=== Simulation ===
CPU 0 runs ../traces/public_traces/compute_fp/compute_fp_11.champsimtrace.xz
Region of Interest Statistics

CPU 0 cumulative IPC: 5.954 instructions: 100000006 cycles: 16796210
CPU 0 Branch Prediction Accuracy: 99.93% MPKI: 0.00925 Average ROB Occupancy at Mispredict: 52.22
Branch type MPKI
BRANCH_DIRECT_JUMP: 0
BRANCH_INDIRECT: 0.00904
BRANCH_CONDITIONAL: 0.00021
BRANCH_DIRECT_CALL: 0
BRANCH_INDIRECT_CALL: 0
BRANCH_RETURN: 0

LLC TOTAL        ACCESS:     926874 HIT:     286955 MISS:     639919
LLC LOAD         ACCESS:        402 HIT:         61 MISS:        341
LLC RFO          ACCESS:     308060 HIT:     142424 MISS:     165636
LLC PREFETCH     ACCESS:     309970 HIT:         32 MISS:     309938
LLC WRITE        ACCESS:     308269 HIT:     144435 MISS:     163834
LLC TRANSLATION  ACCESS:        173 HIT:          3 MISS:        170
LLC PREFETCH REQUESTED:          0 ISSUED:          0 USEFUL:          0 USELESS:          0
LLC AVERAGE MISS LATENCY: 120.1 cycles
cpu0_DTLB TOTAL        ACCESS:   16279192 HIT:   16253898 MISS:      25294
cpu0_DTLB LOAD         ACCESS:   16279192 HIT:   16253898 MISS:      25294
cpu0_DTLB RFO          ACCESS:          0 HIT:          0 MISS:          0
cpu0_DTLB PREFETCH     ACCESS:          0 HIT:          0 MISS:          0
cpu0_DTLB WRITE        ACCESS:          0 HIT:          0 MISS:          0
cpu0_DTLB TRANSLATION  ACCESS:          0 HIT:          0 MISS:          0
cpu0_DTLB PREFETCH REQUESTED:          0 ISSUED:          0 USEFUL:          0 USELESS:          0
cpu0_DTLB AVERAGE MISS LATENCY: 5.619 cycles
cpu0_ITLB TOTAL        ACCESS:       8638 HIT:       8638 MISS:          0
cpu0_ITLB LOAD         ACCESS:       8638 HIT:       8638 MISS:          0
cpu0_ITLB RFO          ACCESS:          0 HIT:          0 MISS:          0
cpu0_ITLB PREFETCH     ACCESS:          0 HIT:          0 MISS:          0
cpu0_ITLB WRITE        ACCESS:          0 HIT:          0 MISS:          0
cpu0_ITLB TRANSLATION  ACCESS:          0 HIT:          0 MISS:          0
cpu0_ITLB PREFETCH REQUESTED:          0 ISSUED:          0 USEFUL:          0 USELESS:          0
cpu0_ITLB AVERAGE MISS LATENCY: -nan cycles
cpu0_L1D TOTAL        ACCESS:   39756053 HIT:   30652055 MISS:    9103998
cpu0_L1D LOAD         ACCESS:    9089412 HIT:    9058317 MISS:      31095
cpu0_L1D RFO          ACCESS:          0 HIT:          0 MISS:          0
cpu0_L1D PREFETCH     ACCESS:   20776025 HIT:   19948547 MISS:     827478
cpu0_L1D WRITE        ACCESS:    9880826 HIT:    1635597 MISS:    8245229
cpu0_L1D TRANSLATION  ACCESS:       9790 HIT:       9594 MISS:        196
cpu0_L1D PREFETCH REQUESTED:   72653820 ISSUED:   20776026 USEFUL:     615179 USELESS:        164
cpu0_L1D AVERAGE MISS LATENCY: 7.824 cycles
cpu0_L1I TOTAL        ACCESS:      11680 HIT:      11425 MISS:        255
cpu0_L1I LOAD         ACCESS:       4920 HIT:       4773 MISS:        147
cpu0_L1I RFO          ACCESS:          0 HIT:          0 MISS:          0
cpu0_L1I PREFETCH     ACCESS:       6760 HIT:       6652 MISS:        108
cpu0_L1I WRITE        ACCESS:          0 HIT:          0 MISS:          0
cpu0_L1I TRANSLATION  ACCESS:          0 HIT:          0 MISS:          0
cpu0_L1I PREFETCH REQUESTED:       7173 ISSUED:       6760 USEFUL:         72 USELESS:          0
cpu0_L1I AVERAGE MISS LATENCY: 159.9 cycles
cpu0_L2C TOTAL        ACCESS:    2291917 HIT:    1288159 MISS:    1003758
cpu0_L2C LOAD         ACCESS:      10281 HIT:       9830 MISS:        451
cpu0_L2C RFO          ACCESS:     311384 HIT:       3324 MISS:     308060
cpu0_L2C PREFETCH     ACCESS:    1655705 HIT:     960631 MISS:     695074
cpu0_L2C WRITE        ACCESS:     314354 HIT:     314354 MISS:          0
cpu0_L2C TRANSLATION  ACCESS:        193 HIT:         20 MISS:        173
cpu0_L2C PREFETCH REQUESTED:     834677 ISSUED:     831312 USEFUL:     151971 USELESS:       1426
cpu0_L2C AVERAGE MISS LATENCY: 89.37 cycles
cpu0_STLB TOTAL        ACCESS:      10093 HIT:        303 MISS:       9790
cpu0_STLB LOAD         ACCESS:      10093 HIT:        303 MISS:       9790
cpu0_STLB RFO          ACCESS:          0 HIT:          0 MISS:          0
cpu0_STLB PREFETCH     ACCESS:          0 HIT:          0 MISS:          0
cpu0_STLB WRITE        ACCESS:          0 HIT:          0 MISS:          0
cpu0_STLB TRANSLATION  ACCESS:          0 HIT:          0 MISS:          0
cpu0_STLB PREFETCH REQUESTED:          0 ISSUED:          0 USEFUL:          0 USELESS:          0
cpu0_STLB AVERAGE MISS LATENCY: 14.14 cycles

DRAM Statistics

Channel 0 RQ ROW_BUFFER_HIT:     118997
  ROW_BUFFER_MISS:     118996
 AVG DBUS CONGESTED CYCLE: 3.902
WQ ROW_BUFFER_HIT: Channel 0 
  ROW_BUFFER_MISS:      10872
  FULL:      73023

Channel 1 RQ ROW_BUFFER_HIT:     118043
  ROW_BUFFER_MISS:     120048
 AVG DBUS CONGESTED CYCLE: 3.902
WQ ROW_BUFFER_HIT: Channel 1 
  ROW_BUFFER_MISS:      10780
  FULL:      73317
BERTI TO_L1: 94280656 TO_L2: 7971065 TO_L2_BC_MSHR: 3078503
BERTI AVG_LAT: 87.3592 NUM_TRACK_LATENCY: 812938 NUM_CANT_TRACK_LATENCY: 0
BERTI CROSS_PAGE 13373707 NO_CROSS_PAGE: 88878014
BERTI FOUND_BERTI: 9895133 NO_FOUND_BERTI: 2463983
BERTI AVERAGE_ISSUED: 6.08545
CPU 0 L1I Entangling prefetcher final stats
IP accesses: 8110 204400 611 / 4920
IP misses: 3f12 fc480 14 / 147
IP hits: 0 0 0 / 0
IP late: 162e 58b80 3 / 68
IP wrong: 0 0 0 / 0
miss rate: 0.0298781
coverage: 0
coverage_late: 0.462586
accuracy: 0
accuracy_late: 1
discarded: 0
evicts entangled j table: 0
evicts entangled k table: 1
max bb size: 9
formats: 0 0 8 3 1 1 0 
hist_lookups: 1 2 5 6 0 1 0 1 1 0 0 1 1 0 1 0 0 207 
hist_lookups_evict: 0 %
hist_lookups_shortlat: 91.1895 %
bb_found_hist: 0 729 183 84 312 26 3 15 0 2 0 0 0 0 0 0 0 0 0 0 0 0 0 0 0 0 0 0 0 0 0 0 0 0 0 0 0 0 0 0 0 0 0 0 0 0 0 0 0 0 0 0 0 0 0 0 0 0 0 0 0 0 0 0 
bb_found_summary: 2866 1354 2.1167
entangled_found_hist: 0 117 64 512 12 0 0 0 
entangled_found_summary: 1829 705 2.59433
bb_ent_found_hist: 0 632 111 505 3 20 6 3 0 2 0 0 0 0 0 0 0 0 0 0 0 0 0 0 0 0 0 0 0 0 0 0 0 0 0 0 0 0 0 0 0 0 0 0 0 0 0 0 0 0 0 0 0 0 0 0 0 0 0 0 0 0 0 0 
bb_ent_found_summary: 2556 1282 1.99376
