WARNING: physical memory size is smaller than virtual memory size.

*** ChampSim Multicore Out-of-Order Simulator ***
Warmup Instructions: 30000000
Simulation Instructions: 100000000
Number of CPUs: 1
Page size: 4096

BTB:
Basic BTB sets: 1024 ways: 8
Indirect:
history lengths: 0 0 10 16 27 44 60 96 109 219 449 487 714 1313 2146 3881 
ITTAGE tables: 64768 bytes;Region table: 240 bytes;IUM: 384 bytes;Total Storage= 65392 bytes;
RAS:
RAS size: 64
[LLC] INSTR Demand IPV: 1 2 2 1 4 Prefetch IPV: 1 2 1 1 4
[LLC] DATA  Demand IPV: 1 1 1 2 4 Prefetch IPV: 1 1 2 2 4
Berti Prefetcher
CPU 0 Entangling prefetcher
Off-chip DRAM Size: 8 GiB Channels: 2 Width: 64-bit Data Race: 6400 MT/s
[DUEL] Epoch ended. INSTR misses = 9, DATA misses = 12. Winner = INSTR
[DUEL] Epoch ended. INSTR misses = 132, DATA misses = 142. Winner = INSTR
[DUEL] Epoch ended. INSTR misses = 35, DATA misses = 34. Winner = DATA
[DUEL] Epoch ended. INSTR misses = 26, DATA misses = 18. Winner = DATA
[DUEL] Epoch ended. INSTR misses = 36, DATA misses = 50. Winner = INSTR
[DUEL] Epoch ended. INSTR misses = 10, DATA misses = 10. Winner = INSTR
[DUEL] Epoch ended. INSTR misses = 18, DATA misses = 23. Winner = INSTR
[DUEL] Epoch ended. INSTR misses = 32, DATA misses = 21. Winner = DATA
[DUEL] Epoch ended. INSTR misses = 16, DATA misses = 25. Winner = INSTR
[DUEL] Epoch ended. INSTR misses = 39, DATA misses = 39. Winner = INSTR
[DUEL] Epoch ended. INSTR misses = 39, DATA misses = 38. Winner = DATA
[DUEL] Epoch ended. INSTR misses = 23, DATA misses = 20. Winner = DATA
[DUEL] Epoch ended. INSTR misses = 48, DATA misses = 47. Winner = DATA
[DUEL] Epoch ended. INSTR misses = 21, DATA misses = 16. Winner = DATA
[DUEL] Epoch ended. INSTR misses = 32, DATA misses = 34. Winner = INSTR
[DUEL] Epoch ended. INSTR misses = 33, DATA misses = 36. Winner = INSTR
[DUEL] Epoch ended. INSTR misses = 32, DATA misses = 32. Winner = INSTR
[DUEL] Epoch ended. INSTR misses = 32, DATA misses = 32. Winner = INSTR
[DUEL] Epoch ended. INSTR misses = 29, DATA misses = 28. Winner = DATA
[DUEL] Epoch ended. INSTR misses = 43, DATA misses = 48. Winner = INSTR
[DUEL] Epoch ended. INSTR misses = 34, DATA misses = 31. Winner = DATA
[DUEL] Epoch ended. INSTR misses = 32, DATA misses = 32. Winner = INSTR
[DUEL] Epoch ended. INSTR misses = 32, DATA misses = 32. Winner = INSTR
[DUEL] Epoch ended. INSTR misses = 32, DATA misses = 32. Winner = INSTR
[DUEL] Epoch ended. INSTR misses = 31, DATA misses = 32. Winner = INSTR
[DUEL] Epoch ended. INSTR misses = 32, DATA misses = 32. Winner = INSTR
[DUEL] Epoch ended. INSTR misses = 47, DATA misses = 30. Winner = DATA
[DUEL] Epoch ended. INSTR misses = 16, DATA misses = 34. Winner = INSTR
[DUEL] Epoch ended. INSTR misses = 80, DATA misses = 96. Winner = INSTR
[DUEL] Epoch ended. INSTR misses = 89, DATA misses = 109. Winner = INSTR
[DUEL] Epoch ended. INSTR misses = 94, DATA misses = 68. Winner = DATA
[DUEL] Epoch ended. INSTR misses = 100, DATA misses = 89. Winner = DATA
[DUEL] Epoch ended. INSTR misses = 89, DATA misses = 129. Winner = INSTR
[DUEL] Epoch ended. INSTR misses = 51, DATA misses = 48. Winner = DATA
[DUEL] Epoch ended. INSTR misses = 85, DATA misses = 72. Winner = DATA
[DUEL] Epoch ended. INSTR misses = 104, DATA misses = 101. Winner = DATA
[DUEL] Epoch ended. INSTR misses = 83, DATA misses = 71. Winner = DATA
[DUEL] Epoch ended. INSTR misses = 105, DATA misses = 90. Winner = DATA
[DUEL] Epoch ended. INSTR misses = 98, DATA misses = 131. Winner = INSTR
Heartbeat CPU 0 instructions: 10000008 cycles: 1729210 heartbeat IPC: 5.783 cumulative IPC: 5.783 (Simulation time: 00 hr 00 min 28 sec)
[DUEL] Epoch ended. INSTR misses = 98, DATA misses = 87. Winner = DATA
[DUEL] Epoch ended. INSTR misses = 120, DATA misses = 100. Winner = DATA
[DUEL] Epoch ended. INSTR misses = 106, DATA misses = 110. Winner = INSTR
[DUEL] Epoch ended. INSTR misses = 74, DATA misses = 62. Winner = DATA
[DUEL] Epoch ended. INSTR misses = 126, DATA misses = 109. Winner = DATA
[DUEL] Epoch ended. INSTR misses = 106, DATA misses = 75. Winner = DATA
[DUEL] Epoch ended. INSTR misses = 74, DATA misses = 53. Winner = DATA
[DUEL] Epoch ended. INSTR misses = 82, DATA misses = 61. Winner = DATA
[DUEL] Epoch ended. INSTR misses = 67, DATA misses = 66. Winner = DATA
[DUEL] Epoch ended. INSTR misses = 133, DATA misses = 136. Winner = INSTR
[DUEL] Epoch ended. INSTR misses = 116, DATA misses = 126. Winner = INSTR
[DUEL] Epoch ended. INSTR misses = 99, DATA misses = 85. Winner = DATA
[DUEL] Epoch ended. INSTR misses = 94, DATA misses = 88. Winner = DATA
[DUEL] Epoch ended. INSTR misses = 115, DATA misses = 107. Winner = DATA
[DUEL] Epoch ended. INSTR misses = 88, DATA misses = 86. Winner = DATA
[DUEL] Epoch ended. INSTR misses = 90, DATA misses = 111. Winner = INSTR
[DUEL] Epoch ended. INSTR misses = 104, DATA misses = 123. Winner = INSTR
[DUEL] Epoch ended. INSTR misses = 91, DATA misses = 121. Winner = INSTR
[DUEL] Epoch ended. INSTR misses = 66, DATA misses = 81. Winner = INSTR
[DUEL] Epoch ended. INSTR misses = 119, DATA misses = 90. Winner = DATA
[DUEL] Epoch ended. INSTR misses = 77, DATA misses = 101. Winner = INSTR
[DUEL] Epoch ended. INSTR misses = 106, DATA misses = 78. Winner = DATA
[DUEL] Epoch ended. INSTR misses = 89, DATA misses = 122. Winner = INSTR
[DUEL] Epoch ended. INSTR misses = 82, DATA misses = 101. Winner = INSTR
[DUEL] Epoch ended. INSTR misses = 93, DATA misses = 76. Winner = DATA
[DUEL] Epoch ended. INSTR misses = 107, DATA misses = 87. Winner = DATA
[DUEL] Epoch ended. INSTR misses = 62, DATA misses = 87. Winner = INSTR
[DUEL] Epoch ended. INSTR misses = 90, DATA misses = 86. Winner = DATA
[DUEL] Epoch ended. INSTR misses = 17, DATA misses = 22. Winner = INSTR
[DUEL] Epoch ended. INSTR misses = 8, DATA misses = 11. Winner = INSTR
[DUEL] Epoch ended. INSTR misses = 0, DATA misses = 0. Winner = INSTR
[DUEL] Epoch ended. INSTR misses = 6, DATA misses = 11. Winner = INSTR
[DUEL] Epoch ended. INSTR misses = 22, DATA misses = 21. Winner = DATA
[DUEL] Epoch ended. INSTR misses = 0, DATA misses = 0. Winner = INSTR
[DUEL] Epoch ended. INSTR misses = 24, DATA misses = 21. Winner = DATA
[DUEL] Epoch ended. INSTR misses = 12, DATA misses = 11. Winner = DATA
[DUEL] Epoch ended. INSTR misses = 26, DATA misses = 34. Winner = INSTR
[DUEL] Epoch ended. INSTR misses = 0, DATA misses = 0. Winner = INSTR
[DUEL] Epoch ended. INSTR misses = 0, DATA misses = 0. Winner = INSTR
Heartbeat CPU 0 instructions: 20000002 cycles: 3424227 heartbeat IPC: 5.9 cumulative IPC: 5.841 (Simulation time: 00 hr 00 min 57 sec)
[DUEL] Epoch ended. INSTR misses = 20, DATA misses = 23. Winner = INSTR
[DUEL] Epoch ended. INSTR misses = 0, DATA misses = 0. Winner = INSTR
[DUEL] Epoch ended. INSTR misses = 13, DATA misses = 15. Winner = INSTR
[DUEL] Epoch ended. INSTR misses = 14, DATA misses = 15. Winner = INSTR
[DUEL] Epoch ended. INSTR misses = 0, DATA misses = 0. Winner = INSTR
[DUEL] Epoch ended. INSTR misses = 16, DATA misses = 16. Winner = INSTR
[DUEL] Epoch ended. INSTR misses = 62, DATA misses = 59. Winner = DATA
[DUEL] Epoch ended. INSTR misses = 0, DATA misses = 0. Winner = INSTR
[DUEL] Epoch ended. INSTR misses = 1, DATA misses = 0. Winner = DATA
[DUEL] Epoch ended. INSTR misses = 1, DATA misses = 0. Winner = DATA
[DUEL] Epoch ended. INSTR misses = 17, DATA misses = 16. Winner = DATA
[DUEL] Epoch ended. INSTR misses = 16, DATA misses = 15. Winner = DATA
[DUEL] Epoch ended. INSTR misses = 45, DATA misses = 48. Winner = INSTR
[DUEL] Epoch ended. INSTR misses = 0, DATA misses = 0. Winner = INSTR
[DUEL] Epoch ended. INSTR misses = 16, DATA misses = 16. Winner = INSTR
[DUEL] Epoch ended. INSTR misses = 2, DATA misses = 0. Winner = DATA
[DUEL] Epoch ended. INSTR misses = 0, DATA misses = 0. Winner = INSTR
[DUEL] Epoch ended. INSTR misses = 11, DATA misses = 15. Winner = INSTR
[DUEL] Epoch ended. INSTR misses = 16, DATA misses = 16. Winner = INSTR
[DUEL] Epoch ended. INSTR misses = 32, DATA misses = 32. Winner = INSTR
[DUEL] Epoch ended. INSTR misses = 0, DATA misses = 0. Winner = INSTR
[DUEL] Epoch ended. INSTR misses = 46, DATA misses = 43. Winner = DATA
[DUEL] Epoch ended. INSTR misses = 1, DATA misses = 0. Winner = DATA
[DUEL] Epoch ended. INSTR misses = 0, DATA misses = 0. Winner = INSTR
[DUEL] Epoch ended. INSTR misses = 0, DATA misses = 0. Winner = INSTR
[DUEL] Epoch ended. INSTR misses = 47, DATA misses = 52. Winner = INSTR
[DUEL] Epoch ended. INSTR misses = 2, DATA misses = 0. Winner = DATA
[DUEL] Epoch ended. INSTR misses = 18, DATA misses = 21. Winner = INSTR
[DUEL] Epoch ended. INSTR misses = 0, DATA misses = 0. Winner = INSTR
[DUEL] Epoch ended. INSTR misses = 9, DATA misses = 11. Winner = INSTR
[DUEL] Epoch ended. INSTR misses = 30, DATA misses = 31. Winner = INSTR
[DUEL] Epoch ended. INSTR misses = 0, DATA misses = 0. Winner = INSTR
[DUEL] Epoch ended. INSTR misses = 1, DATA misses = 0. Winner = DATA
[DUEL] Epoch ended. INSTR misses = 0, DATA misses = 0. Winner = INSTR
[DUEL] Epoch ended. INSTR misses = 10, DATA misses = 15. Winner = INSTR
[DUEL] Epoch ended. INSTR misses = 27, DATA misses = 29. Winner = INSTR
[DUEL] Epoch ended. INSTR misses = 14, DATA misses = 13. Winner = DATA
[DUEL] Epoch ended. INSTR misses = 0, DATA misses = 0. Winner = INSTR
[DUEL] Epoch ended. INSTR misses = 1, DATA misses = 0. Winner = DATA
Heartbeat CPU 0 instructions: 30000007 cycles: 5091111 heartbeat IPC: 5.999 cumulative IPC: 5.893 (Simulation time: 00 hr 01 min 21 sec)
Warmup finished CPU 0 instructions: 30000007 cycles: 5091112 cumulative IPC: 5.893 (Simulation time: 00 hr 01 min 21 sec)
Warmup complete CPU 0 instructions: 30000007 cycles: 5091112 cumulative IPC: 5.893 (Simulation time: 00 hr 01 min 21 sec)
[DUEL] Epoch ended. INSTR misses = 0, DATA misses = 0. Winner = INSTR
[DUEL] Epoch ended. INSTR misses = 27, DATA misses = 29. Winner = INSTR
[DUEL] Epoch ended. INSTR misses = 14, DATA misses = 14. Winner = INSTR
[DUEL] Epoch ended. INSTR misses = 56, DATA misses = 62. Winner = INSTR
[DUEL] Epoch ended. INSTR misses = 88, DATA misses = 95. Winner = INSTR
[DUEL] Epoch ended. INSTR misses = 46, DATA misses = 46. Winner = INSTR
[DUEL] Epoch ended. INSTR misses = 37, DATA misses = 39. Winner = INSTR
[DUEL] Epoch ended. INSTR misses = 57, DATA misses = 62. Winner = INSTR
[DUEL] Epoch ended. INSTR misses = 44, DATA misses = 47. Winner = INSTR
[DUEL] Epoch ended. INSTR misses = 105, DATA misses = 99. Winner = DATA
[DUEL] Epoch ended. INSTR misses = 45, DATA misses = 42. Winner = DATA
[DUEL] Epoch ended. INSTR misses = 95, DATA misses = 83. Winner = DATA
[DUEL] Epoch ended. INSTR misses = 55, DATA misses = 42. Winner = DATA
[DUEL] Epoch ended. INSTR misses = 136, DATA misses = 120. Winner = DATA
[DUEL] Epoch ended. INSTR misses = 44, DATA misses = 55. Winner = INSTR
[DUEL] Epoch ended. INSTR misses = 59, DATA misses = 71. Winner = INSTR
[DUEL] Epoch ended. INSTR misses = 57, DATA misses = 63. Winner = INSTR
[DUEL] Epoch ended. INSTR misses = 56, DATA misses = 60. Winner = INSTR
[DUEL] Epoch ended. INSTR misses = 30, DATA misses = 31. Winner = INSTR
[DUEL] Epoch ended. INSTR misses = 103, DATA misses = 105. Winner = INSTR
[DUEL] Epoch ended. INSTR misses = 32, DATA misses = 32. Winner = INSTR
[DUEL] Epoch ended. INSTR misses = 33, DATA misses = 34. Winner = INSTR
[DUEL] Epoch ended. INSTR misses = 10, DATA misses = 23. Winner = INSTR
[DUEL] Epoch ended. INSTR misses = 6, DATA misses = 1. Winner = DATA
[DUEL] Epoch ended. INSTR misses = 17, DATA misses = 23. Winner = INSTR
[DUEL] Epoch ended. INSTR misses = 30, DATA misses = 24. Winner = DATA
[DUEL] Epoch ended. INSTR misses = 29, DATA misses = 32. Winner = INSTR
[DUEL] Epoch ended. INSTR misses = 32, DATA misses = 32. Winner = INSTR
[DUEL] Epoch ended. INSTR misses = 20, DATA misses = 16. Winner = DATA
[DUEL] Epoch ended. INSTR misses = 30, DATA misses = 31. Winner = INSTR
[DUEL] Epoch ended. INSTR misses = 46, DATA misses = 47. Winner = INSTR
[DUEL] Epoch ended. INSTR misses = 32, DATA misses = 32. Winner = INSTR
[DUEL] Epoch ended. INSTR misses = 16, DATA misses = 16. Winner = INSTR
[DUEL] Epoch ended. INSTR misses = 47, DATA misses = 47. Winner = INSTR
[DUEL] Epoch ended. INSTR misses = 0, DATA misses = 0. Winner = INSTR
[DUEL] Epoch ended. INSTR misses = 32, DATA misses = 31. Winner = DATA
[DUEL] Epoch ended. INSTR misses = 31, DATA misses = 32. Winner = INSTR
[DUEL] Epoch ended. INSTR misses = 32, DATA misses = 32. Winner = INSTR
[DUEL] Epoch ended. INSTR misses = 28, DATA misses = 29. Winner = INSTR
Heartbeat CPU 0 instructions: 40000000 cycles: 14827222 heartbeat IPC: 1.027 cumulative IPC: 1.027 (Simulation time: 00 hr 02 min 54 sec)
[DUEL] Epoch ended. INSTR misses = 2, DATA misses = 13. Winner = INSTR
[DUEL] Epoch ended. INSTR misses = 29, DATA misses = 19. Winner = DATA
[DUEL] Epoch ended. INSTR misses = 30, DATA misses = 31. Winner = INSTR
[DUEL] Epoch ended. INSTR misses = 30, DATA misses = 32. Winner = INSTR
[DUEL] Epoch ended. INSTR misses = 16, DATA misses = 14. Winner = DATA
[DUEL] Epoch ended. INSTR misses = 43, DATA misses = 47. Winner = INSTR
[DUEL] Epoch ended. INSTR misses = 16, DATA misses = 16. Winner = INSTR
[DUEL] Epoch ended. INSTR misses = 45, DATA misses = 48. Winner = INSTR
[DUEL] Epoch ended. INSTR misses = 15, DATA misses = 13. Winner = DATA
[DUEL] Epoch ended. INSTR misses = 32, DATA misses = 31. Winner = DATA
[DUEL] Epoch ended. INSTR misses = 48, DATA misses = 53. Winner = INSTR
[DUEL] Epoch ended. INSTR misses = 40, DATA misses = 26. Winner = DATA
[DUEL] Epoch ended. INSTR misses = 24, DATA misses = 30. Winner = INSTR
[DUEL] Epoch ended. INSTR misses = 76, DATA misses = 79. Winner = INSTR
[DUEL] Epoch ended. INSTR misses = 37, DATA misses = 29. Winner = DATA
[DUEL] Epoch ended. INSTR misses = 21, DATA misses = 16. Winner = DATA
[DUEL] Epoch ended. INSTR misses = 64, DATA misses = 57. Winner = DATA
[DUEL] Epoch ended. INSTR misses = 30, DATA misses = 21. Winner = DATA
[DUEL] Epoch ended. INSTR misses = 30, DATA misses = 34. Winner = INSTR
[DUEL] Epoch ended. INSTR misses = 35, DATA misses = 31. Winner = DATA
[DUEL] Epoch ended. INSTR misses = 42, DATA misses = 44. Winner = INSTR
[DUEL] Epoch ended. INSTR misses = 12, DATA misses = 14. Winner = INSTR
[DUEL] Epoch ended. INSTR misses = 30, DATA misses = 40. Winner = INSTR
[DUEL] Epoch ended. INSTR misses = 16, DATA misses = 16. Winner = INSTR
[DUEL] Epoch ended. INSTR misses = 0, DATA misses = 0. Winner = INSTR
[DUEL] Epoch ended. INSTR misses = 30, DATA misses = 32. Winner = INSTR
[DUEL] Epoch ended. INSTR misses = 27, DATA misses = 29. Winner = INSTR
[DUEL] Epoch ended. INSTR misses = 30, DATA misses = 32. Winner = INSTR
[DUEL] Epoch ended. INSTR misses = 46, DATA misses = 48. Winner = INSTR
[DUEL] Epoch ended. INSTR misses = 19, DATA misses = 16. Winner = DATA
[DUEL] Epoch ended. INSTR misses = 29, DATA misses = 32. Winner = INSTR
[DUEL] Epoch ended. INSTR misses = 19, DATA misses = 16. Winner = DATA
[DUEL] Epoch ended. INSTR misses = 12, DATA misses = 16. Winner = INSTR
[DUEL] Epoch ended. INSTR misses = 32, DATA misses = 32. Winner = INSTR
[DUEL] Epoch ended. INSTR misses = 29, DATA misses = 31. Winner = INSTR
[DUEL] Epoch ended. INSTR misses = 16, DATA misses = 16. Winner = INSTR
[DUEL] Epoch ended. INSTR misses = 47, DATA misses = 47. Winner = INSTR
[DUEL] Epoch ended. INSTR misses = 16, DATA misses = 17. Winner = INSTR
[DUEL] Epoch ended. INSTR misses = 32, DATA misses = 32. Winner = INSTR
Heartbeat CPU 0 instructions: 50000001 cycles: 21146389 heartbeat IPC: 1.582 cumulative IPC: 1.246 (Simulation time: 00 hr 03 min 59 sec)
[DUEL] Epoch ended. INSTR misses = 16, DATA misses = 16. Winner = INSTR
[DUEL] Epoch ended. INSTR misses = 32, DATA misses = 32. Winner = INSTR
[DUEL] Epoch ended. INSTR misses = 45, DATA misses = 46. Winner = INSTR
[DUEL] Epoch ended. INSTR misses = 31, DATA misses = 32. Winner = INSTR
[DUEL] Epoch ended. INSTR misses = 16, DATA misses = 16. Winner = INSTR
[DUEL] Epoch ended. INSTR misses = 16, DATA misses = 16. Winner = INSTR
[DUEL] Epoch ended. INSTR misses = 33, DATA misses = 32. Winner = DATA
[DUEL] Epoch ended. INSTR misses = 11, DATA misses = 16. Winner = INSTR
[DUEL] Epoch ended. INSTR misses = 16, DATA misses = 16. Winner = INSTR
[DUEL] Epoch ended. INSTR misses = 44, DATA misses = 47. Winner = INSTR
[DUEL] Epoch ended. INSTR misses = 28, DATA misses = 30. Winner = INSTR
[DUEL] Epoch ended. INSTR misses = 100, DATA misses = 98. Winner = DATA
[DUEL] Epoch ended. INSTR misses = 29, DATA misses = 30. Winner = INSTR
[DUEL] Epoch ended. INSTR misses = 19, DATA misses = 24. Winner = INSTR
[DUEL] Epoch ended. INSTR misses = 2, DATA misses = 0. Winner = DATA
[DUEL] Epoch ended. INSTR misses = 18, DATA misses = 1. Winner = DATA
[DUEL] Epoch ended. INSTR misses = 0, DATA misses = 18. Winner = INSTR
[DUEL] Epoch ended. INSTR misses = 15, DATA misses = 18. Winner = INSTR
[DUEL] Epoch ended. INSTR misses = 19, DATA misses = 16. Winner = DATA
[DUEL] Epoch ended. INSTR misses = 24, DATA misses = 52. Winner = INSTR
[DUEL] Epoch ended. INSTR misses = 66, DATA misses = 46. Winner = DATA
[DUEL] Epoch ended. INSTR misses = 48, DATA misses = 48. Winner = INSTR
[DUEL] Epoch ended. INSTR misses = 46, DATA misses = 48. Winner = INSTR
[DUEL] Epoch ended. INSTR misses = 17, DATA misses = 18. Winner = INSTR
[DUEL] Epoch ended. INSTR misses = 48, DATA misses = 46. Winner = DATA
[DUEL] Epoch ended. INSTR misses = 48, DATA misses = 48. Winner = INSTR
[DUEL] Epoch ended. INSTR misses = 32, DATA misses = 32. Winner = INSTR
[DUEL] Epoch ended. INSTR misses = 43, DATA misses = 37. Winner = DATA
[DUEL] Epoch ended. INSTR misses = 33, DATA misses = 32. Winner = DATA
[DUEL] Epoch ended. INSTR misses = 16, DATA misses = 16. Winner = INSTR
[DUEL] Epoch ended. INSTR misses = 33, DATA misses = 32. Winner = DATA
[DUEL] Epoch ended. INSTR misses = 48, DATA misses = 48. Winner = INSTR
[DUEL] Epoch ended. INSTR misses = 43, DATA misses = 48. Winner = INSTR
[DUEL] Epoch ended. INSTR misses = 32, DATA misses = 32. Winner = INSTR
[DUEL] Epoch ended. INSTR misses = 34, DATA misses = 32. Winner = DATA
[DUEL] Epoch ended. INSTR misses = 65, DATA misses = 58. Winner = DATA
[DUEL] Epoch ended. INSTR misses = 48, DATA misses = 48. Winner = INSTR
[DUEL] Epoch ended. INSTR misses = 48, DATA misses = 48. Winner = INSTR
[DUEL] Epoch ended. INSTR misses = 33, DATA misses = 32. Winner = DATA
Heartbeat CPU 0 instructions: 60000004 cycles: 28995751 heartbeat IPC: 1.274 cumulative IPC: 1.255 (Simulation time: 00 hr 05 min 02 sec)
[DUEL] Epoch ended. INSTR misses = 49, DATA misses = 48. Winner = DATA
[DUEL] Epoch ended. INSTR misses = 34, DATA misses = 32. Winner = DATA
[DUEL] Epoch ended. INSTR misses = 34, DATA misses = 32. Winner = DATA
[DUEL] Epoch ended. INSTR misses = 55, DATA misses = 58. Winner = INSTR
[DUEL] Epoch ended. INSTR misses = 34, DATA misses = 48. Winner = INSTR
[DUEL] Epoch ended. INSTR misses = 58, DATA misses = 48. Winner = DATA
[DUEL] Epoch ended. INSTR misses = 18, DATA misses = 27. Winner = INSTR
[DUEL] Epoch ended. INSTR misses = 60, DATA misses = 63. Winner = INSTR
[DUEL] Epoch ended. INSTR misses = 62, DATA misses = 64. Winner = INSTR
[DUEL] Epoch ended. INSTR misses = 46, DATA misses = 45. Winner = DATA
[DUEL] Epoch ended. INSTR misses = 43, DATA misses = 42. Winner = DATA
[DUEL] Epoch ended. INSTR misses = 32, DATA misses = 32. Winner = INSTR
[DUEL] Epoch ended. INSTR misses = 33, DATA misses = 32. Winner = DATA
[DUEL] Epoch ended. INSTR misses = 32, DATA misses = 32. Winner = INSTR
[DUEL] Epoch ended. INSTR misses = 32, DATA misses = 32. Winner = INSTR
[DUEL] Epoch ended. INSTR misses = 48, DATA misses = 48. Winner = INSTR
[DUEL] Epoch ended. INSTR misses = 48, DATA misses = 48. Winner = INSTR
[DUEL] Epoch ended. INSTR misses = 42, DATA misses = 48. Winner = INSTR
[DUEL] Epoch ended. INSTR misses = 34, DATA misses = 27. Winner = DATA
[DUEL] Epoch ended. INSTR misses = 41, DATA misses = 42. Winner = INSTR
[DUEL] Epoch ended. INSTR misses = 48, DATA misses = 48. Winner = INSTR
[DUEL] Epoch ended. INSTR misses = 42, DATA misses = 48. Winner = INSTR
[DUEL] Epoch ended. INSTR misses = 38, DATA misses = 32. Winner = DATA
[DUEL] Epoch ended. INSTR misses = 33, DATA misses = 32. Winner = DATA
[DUEL] Epoch ended. INSTR misses = 32, DATA misses = 32. Winner = INSTR
[DUEL] Epoch ended. INSTR misses = 32, DATA misses = 32. Winner = INSTR
[DUEL] Epoch ended. INSTR misses = 48, DATA misses = 47. Winner = DATA
[DUEL] Epoch ended. INSTR misses = 30, DATA misses = 32. Winner = INSTR
[DUEL] Epoch ended. INSTR misses = 32, DATA misses = 32. Winner = INSTR
[DUEL] Epoch ended. INSTR misses = 45, DATA misses = 45. Winner = INSTR
[DUEL] Epoch ended. INSTR misses = 39, DATA misses = 33. Winner = DATA
[DUEL] Epoch ended. INSTR misses = 33, DATA misses = 32. Winner = DATA
[DUEL] Epoch ended. INSTR misses = 35, DATA misses = 48. Winner = INSTR
[DUEL] Epoch ended. INSTR misses = 60, DATA misses = 48. Winner = DATA
[DUEL] Epoch ended. INSTR misses = 33, DATA misses = 32. Winner = DATA
[DUEL] Epoch ended. INSTR misses = 32, DATA misses = 32. Winner = INSTR
[DUEL] Epoch ended. INSTR misses = 58, DATA misses = 56. Winner = DATA
[DUEL] Epoch ended. INSTR misses = 32, DATA misses = 32. Winner = INSTR
[DUEL] Epoch ended. INSTR misses = 35, DATA misses = 32. Winner = DATA
Heartbeat CPU 0 instructions: 70000006 cycles: 35920299 heartbeat IPC: 1.444 cumulative IPC: 1.297 (Simulation time: 00 hr 06 min 02 sec)
[DUEL] Epoch ended. INSTR misses = 46, DATA misses = 47. Winner = INSTR
[DUEL] Epoch ended. INSTR misses = 50, DATA misses = 48. Winner = DATA
[DUEL] Epoch ended. INSTR misses = 33, DATA misses = 32. Winner = DATA
[DUEL] Epoch ended. INSTR misses = 32, DATA misses = 32. Winner = INSTR
[DUEL] Epoch ended. INSTR misses = 25, DATA misses = 28. Winner = INSTR
[DUEL] Epoch ended. INSTR misses = 32, DATA misses = 32. Winner = INSTR
[DUEL] Epoch ended. INSTR misses = 74, DATA misses = 73. Winner = DATA
[DUEL] Epoch ended. INSTR misses = 32, DATA misses = 32. Winner = INSTR
[DUEL] Epoch ended. INSTR misses = 32, DATA misses = 32. Winner = INSTR
[DUEL] Epoch ended. INSTR misses = 32, DATA misses = 32. Winner = INSTR
[DUEL] Epoch ended. INSTR misses = 48, DATA misses = 48. Winner = INSTR
[DUEL] Epoch ended. INSTR misses = 32, DATA misses = 32. Winner = INSTR
[DUEL] Epoch ended. INSTR misses = 32, DATA misses = 32. Winner = INSTR
[DUEL] Epoch ended. INSTR misses = 49, DATA misses = 48. Winner = DATA
[DUEL] Epoch ended. INSTR misses = 47, DATA misses = 48. Winner = INSTR
[DUEL] Epoch ended. INSTR misses = 58, DATA misses = 63. Winner = INSTR
[DUEL] Epoch ended. INSTR misses = 43, DATA misses = 44. Winner = INSTR
[DUEL] Epoch ended. INSTR misses = 32, DATA misses = 32. Winner = INSTR
[DUEL] Epoch ended. INSTR misses = 31, DATA misses = 36. Winner = INSTR
[DUEL] Epoch ended. INSTR misses = 41, DATA misses = 37. Winner = DATA
[DUEL] Epoch ended. INSTR misses = 32, DATA misses = 32. Winner = INSTR
[DUEL] Epoch ended. INSTR misses = 48, DATA misses = 48. Winner = INSTR
[DUEL] Epoch ended. INSTR misses = 19, DATA misses = 28. Winner = INSTR
[DUEL] Epoch ended. INSTR misses = 32, DATA misses = 32. Winner = INSTR
[DUEL] Epoch ended. INSTR misses = 32, DATA misses = 32. Winner = INSTR
[DUEL] Epoch ended. INSTR misses = 20, DATA misses = 32. Winner = INSTR
[DUEL] Epoch ended. INSTR misses = 32, DATA misses = 32. Winner = INSTR
[DUEL] Epoch ended. INSTR misses = 35, DATA misses = 32. Winner = DATA
[DUEL] Epoch ended. INSTR misses = 48, DATA misses = 48. Winner = INSTR
[DUEL] Epoch ended. INSTR misses = 48, DATA misses = 48. Winner = INSTR
[DUEL] Epoch ended. INSTR misses = 52, DATA misses = 52. Winner = INSTR
[DUEL] Epoch ended. INSTR misses = 32, DATA misses = 32. Winner = INSTR
[DUEL] Epoch ended. INSTR misses = 34, DATA misses = 55. Winner = INSTR
[DUEL] Epoch ended. INSTR misses = 67, DATA misses = 59. Winner = DATA
[DUEL] Epoch ended. INSTR misses = 71, DATA misses = 69. Winner = DATA
[DUEL] Epoch ended. INSTR misses = 58, DATA misses = 65. Winner = INSTR
[DUEL] Epoch ended. INSTR misses = 35, DATA misses = 60. Winner = INSTR
[DUEL] Epoch ended. INSTR misses = 61, DATA misses = 82. Winner = INSTR
[DUEL] Epoch ended. INSTR misses = 49, DATA misses = 19. Winner = DATA
Heartbeat CPU 0 instructions: 80000000 cycles: 42847022 heartbeat IPC: 1.444 cumulative IPC: 1.324 (Simulation time: 00 hr 07 min 03 sec)
[DUEL] Epoch ended. INSTR misses = 85, DATA misses = 76. Winner = DATA
[DUEL] Epoch ended. INSTR misses = 31, DATA misses = 44. Winner = INSTR
[DUEL] Epoch ended. INSTR misses = 65, DATA misses = 87. Winner = INSTR
[DUEL] Epoch ended. INSTR misses = 48, DATA misses = 54. Winner = INSTR
[DUEL] Epoch ended. INSTR misses = 53, DATA misses = 25. Winner = DATA
[DUEL] Epoch ended. INSTR misses = 51, DATA misses = 57. Winner = INSTR
[DUEL] Epoch ended. INSTR misses = 29, DATA misses = 38. Winner = INSTR
[DUEL] Epoch ended. INSTR misses = 45, DATA misses = 39. Winner = DATA
[DUEL] Epoch ended. INSTR misses = 51, DATA misses = 58. Winner = INSTR
[DUEL] Epoch ended. INSTR misses = 31, DATA misses = 39. Winner = INSTR
[DUEL] Epoch ended. INSTR misses = 47, DATA misses = 41. Winner = DATA
[DUEL] Epoch ended. INSTR misses = 47, DATA misses = 53. Winner = INSTR
[DUEL] Epoch ended. INSTR misses = 70, DATA misses = 65. Winner = DATA
[DUEL] Epoch ended. INSTR misses = 59, DATA misses = 66. Winner = INSTR
[DUEL] Epoch ended. INSTR misses = 28, DATA misses = 32. Winner = INSTR
[DUEL] Epoch ended. INSTR misses = 35, DATA misses = 24. Winner = DATA
[DUEL] Epoch ended. INSTR misses = 56, DATA misses = 64. Winner = INSTR
[DUEL] Epoch ended. INSTR misses = 56, DATA misses = 47. Winner = DATA
[DUEL] Epoch ended. INSTR misses = 19, DATA misses = 14. Winner = DATA
[DUEL] Epoch ended. INSTR misses = 38, DATA misses = 61. Winner = INSTR
[DUEL] Epoch ended. INSTR misses = 60, DATA misses = 64. Winner = INSTR
[DUEL] Epoch ended. INSTR misses = 64, DATA misses = 64. Winner = INSTR
[DUEL] Epoch ended. INSTR misses = 24, DATA misses = 35. Winner = INSTR
[DUEL] Epoch ended. INSTR misses = 48, DATA misses = 48. Winner = INSTR
[DUEL] Epoch ended. INSTR misses = 61, DATA misses = 53. Winner = DATA
[DUEL] Epoch ended. INSTR misses = 64, DATA misses = 63. Winner = DATA
[DUEL] Epoch ended. INSTR misses = 75, DATA misses = 74. Winner = DATA
[DUEL] Epoch ended. INSTR misses = 48, DATA misses = 48. Winner = INSTR
[DUEL] Epoch ended. INSTR misses = 48, DATA misses = 48. Winner = INSTR
[DUEL] Epoch ended. INSTR misses = 71, DATA misses = 73. Winner = INSTR
[DUEL] Epoch ended. INSTR misses = 20, DATA misses = 31. Winner = INSTR
[DUEL] Epoch ended. INSTR misses = 48, DATA misses = 43. Winner = DATA
[DUEL] Epoch ended. INSTR misses = 47, DATA misses = 37. Winner = DATA
[DUEL] Epoch ended. INSTR misses = 89, DATA misses = 79. Winner = DATA
[DUEL] Epoch ended. INSTR misses = 70, DATA misses = 57. Winner = DATA
[DUEL] Epoch ended. INSTR misses = 46, DATA misses = 48. Winner = INSTR
[DUEL] Epoch ended. INSTR misses = 33, DATA misses = 32. Winner = DATA
[DUEL] Epoch ended. INSTR misses = 32, DATA misses = 32. Winner = INSTR
[DUEL] Epoch ended. INSTR misses = 33, DATA misses = 32. Winner = DATA
Heartbeat CPU 0 instructions: 90000001 cycles: 51206885 heartbeat IPC: 1.196 cumulative IPC: 1.301 (Simulation time: 00 hr 08 min 11 sec)
[DUEL] Epoch ended. INSTR misses = 47, DATA misses = 48. Winner = INSTR
[DUEL] Epoch ended. INSTR misses = 32, DATA misses = 32. Winner = INSTR
[DUEL] Epoch ended. INSTR misses = 31, DATA misses = 32. Winner = INSTR
[DUEL] Epoch ended. INSTR misses = 51, DATA misses = 56. Winner = INSTR
[DUEL] Epoch ended. INSTR misses = 48, DATA misses = 48. Winner = INSTR
[DUEL] Epoch ended. INSTR misses = 61, DATA misses = 49. Winner = DATA
[DUEL] Epoch ended. INSTR misses = 43, DATA misses = 48. Winner = INSTR
[DUEL] Epoch ended. INSTR misses = 47, DATA misses = 48. Winner = INSTR
[DUEL] Epoch ended. INSTR misses = 57, DATA misses = 55. Winner = DATA
[DUEL] Epoch ended. INSTR misses = 36, DATA misses = 35. Winner = DATA
[DUEL] Epoch ended. INSTR misses = 34, DATA misses = 32. Winner = DATA
[DUEL] Epoch ended. INSTR misses = 47, DATA misses = 46. Winner = DATA
[DUEL] Epoch ended. INSTR misses = 48, DATA misses = 48. Winner = INSTR
[DUEL] Epoch ended. INSTR misses = 32, DATA misses = 32. Winner = INSTR
[DUEL] Epoch ended. INSTR misses = 48, DATA misses = 48. Winner = INSTR
[DUEL] Epoch ended. INSTR misses = 49, DATA misses = 48. Winner = DATA
[DUEL] Epoch ended. INSTR misses = 63, DATA misses = 58. Winner = DATA
[DUEL] Epoch ended. INSTR misses = 55, DATA misses = 60. Winner = INSTR
[DUEL] Epoch ended. INSTR misses = 48, DATA misses = 48. Winner = INSTR
[DUEL] Epoch ended. INSTR misses = 32, DATA misses = 32. Winner = INSTR
[DUEL] Epoch ended. INSTR misses = 47, DATA misses = 48. Winner = INSTR
[DUEL] Epoch ended. INSTR misses = 48, DATA misses = 48. Winner = INSTR
[DUEL] Epoch ended. INSTR misses = 62, DATA misses = 63. Winner = INSTR
[DUEL] Epoch ended. INSTR misses = 32, DATA misses = 32. Winner = INSTR
[DUEL] Epoch ended. INSTR misses = 46, DATA misses = 46. Winner = INSTR
[DUEL] Epoch ended. INSTR misses = 30, DATA misses = 30. Winner = INSTR
[DUEL] Epoch ended. INSTR misses = 63, DATA misses = 64. Winner = INSTR
[DUEL] Epoch ended. INSTR misses = 47, DATA misses = 44. Winner = DATA
[DUEL] Epoch ended. INSTR misses = 31, DATA misses = 48. Winner = INSTR
[DUEL] Epoch ended. INSTR misses = 48, DATA misses = 32. Winner = DATA
[DUEL] Epoch ended. INSTR misses = 63, DATA misses = 62. Winner = DATA
[DUEL] Epoch ended. INSTR misses = 32, DATA misses = 34. Winner = INSTR
[DUEL] Epoch ended. INSTR misses = 32, DATA misses = 32. Winner = INSTR
[DUEL] Epoch ended. INSTR misses = 31, DATA misses = 32. Winner = INSTR
[DUEL] Epoch ended. INSTR misses = 48, DATA misses = 48. Winner = INSTR
[DUEL] Epoch ended. INSTR misses = 32, DATA misses = 32. Winner = INSTR
[DUEL] Epoch ended. INSTR misses = 48, DATA misses = 48. Winner = INSTR
[DUEL] Epoch ended. INSTR misses = 45, DATA misses = 47. Winner = INSTR
[DUEL] Epoch ended. INSTR misses = 32, DATA misses = 32. Winner = INSTR
Heartbeat CPU 0 instructions: 100000000 cycles: 58042856 heartbeat IPC: 1.463 cumulative IPC: 1.322 (Simulation time: 00 hr 09 min 10 sec)
[DUEL] Epoch ended. INSTR misses = 32, DATA misses = 32. Winner = INSTR
[DUEL] Epoch ended. INSTR misses = 48, DATA misses = 48. Winner = INSTR
[DUEL] Epoch ended. INSTR misses = 44, DATA misses = 47. Winner = INSTR
[DUEL] Epoch ended. INSTR misses = 36, DATA misses = 33. Winner = DATA
[DUEL] Epoch ended. INSTR misses = 48, DATA misses = 47. Winner = DATA
[DUEL] Epoch ended. INSTR misses = 32, DATA misses = 32. Winner = INSTR
[DUEL] Epoch ended. INSTR misses = 32, DATA misses = 32. Winner = INSTR
[DUEL] Epoch ended. INSTR misses = 44, DATA misses = 43. Winner = DATA
[DUEL] Epoch ended. INSTR misses = 48, DATA misses = 48. Winner = INSTR
[DUEL] Epoch ended. INSTR misses = 32, DATA misses = 32. Winner = INSTR
[DUEL] Epoch ended. INSTR misses = 57, DATA misses = 60. Winner = INSTR
[DUEL] Epoch ended. INSTR misses = 32, DATA misses = 32. Winner = INSTR
[DUEL] Epoch ended. INSTR misses = 33, DATA misses = 32. Winner = DATA
[DUEL] Epoch ended. INSTR misses = 75, DATA misses = 75. Winner = INSTR
[DUEL] Epoch ended. INSTR misses = 32, DATA misses = 32. Winner = INSTR
[DUEL] Epoch ended. INSTR misses = 33, DATA misses = 32. Winner = DATA
[DUEL] Epoch ended. INSTR misses = 34, DATA misses = 32. Winner = DATA
[DUEL] Epoch ended. INSTR misses = 33, DATA misses = 32. Winner = DATA
[DUEL] Epoch ended. INSTR misses = 49, DATA misses = 48. Winner = DATA
[DUEL] Epoch ended. INSTR misses = 32, DATA misses = 32. Winner = INSTR
[DUEL] Epoch ended. INSTR misses = 32, DATA misses = 32. Winner = INSTR
[DUEL] Epoch ended. INSTR misses = 62, DATA misses = 61. Winner = DATA
[DUEL] Epoch ended. INSTR misses = 48, DATA misses = 42. Winner = DATA
*** Reached end of trace: (0, "../traces/secret_traces/compute_fp/compute_fp_59.champsimtrace.xz")
[DUEL] Epoch ended. INSTR misses = 47, DATA misses = 47. Winner = INSTR
[DUEL] Epoch ended. INSTR misses = 33, DATA misses = 28. Winner = DATA
[DUEL] Epoch ended. INSTR misses = 135, DATA misses = 96. Winner = DATA
[DUEL] Epoch ended. INSTR misses = 102, DATA misses = 66. Winner = DATA
[DUEL] Epoch ended. INSTR misses = 53, DATA misses = 54. Winner = INSTR
[DUEL] Epoch ended. INSTR misses = 61, DATA misses = 36. Winner = DATA
[DUEL] Epoch ended. INSTR misses = 24, DATA misses = 20. Winner = DATA
[DUEL] Epoch ended. INSTR misses = 21, DATA misses = 21. Winner = INSTR
[DUEL] Epoch ended. INSTR misses = 29, DATA misses = 28. Winner = DATA
[DUEL] Epoch ended. INSTR misses = 26, DATA misses = 43. Winner = INSTR
[DUEL] Epoch ended. INSTR misses = 32, DATA misses = 32. Winner = INSTR
[DUEL] Epoch ended. INSTR misses = 39, DATA misses = 38. Winner = DATA
[DUEL] Epoch ended. INSTR misses = 41, DATA misses = 39. Winner = DATA
[DUEL] Epoch ended. INSTR misses = 32, DATA misses = 31. Winner = DATA
[DUEL] Epoch ended. INSTR misses = 41, DATA misses = 38. Winner = DATA
[DUEL] Epoch ended. INSTR misses = 27, DATA misses = 22. Winner = DATA
Heartbeat CPU 0 instructions: 110000001 cycles: 65436784 heartbeat IPC: 1.352 cumulative IPC: 1.326 (Simulation time: 00 hr 10 min 10 sec)
[DUEL] Epoch ended. INSTR misses = 32, DATA misses = 31. Winner = DATA
[DUEL] Epoch ended. INSTR misses = 32, DATA misses = 31. Winner = DATA
[DUEL] Epoch ended. INSTR misses = 32, DATA misses = 32. Winner = INSTR
[DUEL] Epoch ended. INSTR misses = 50, DATA misses = 48. Winner = DATA
[DUEL] Epoch ended. INSTR misses = 32, DATA misses = 32. Winner = INSTR
[DUEL] Epoch ended. INSTR misses = 34, DATA misses = 32. Winner = DATA
[DUEL] Epoch ended. INSTR misses = 32, DATA misses = 32. Winner = INSTR
[DUEL] Epoch ended. INSTR misses = 32, DATA misses = 32. Winner = INSTR
[DUEL] Epoch ended. INSTR misses = 32, DATA misses = 32. Winner = INSTR
[DUEL] Epoch ended. INSTR misses = 48, DATA misses = 40. Winner = DATA
[DUEL] Epoch ended. INSTR misses = 32, DATA misses = 39. Winner = INSTR
[DUEL] Epoch ended. INSTR misses = 32, DATA misses = 34. Winner = INSTR
[DUEL] Epoch ended. INSTR misses = 13, DATA misses = 14. Winner = INSTR
[DUEL] Epoch ended. INSTR misses = 95, DATA misses = 107. Winner = INSTR
[DUEL] Epoch ended. INSTR misses = 71, DATA misses = 89. Winner = INSTR
[DUEL] Epoch ended. INSTR misses = 114, DATA misses = 83. Winner = DATA
[DUEL] Epoch ended. INSTR misses = 91, DATA misses = 92. Winner = INSTR
[DUEL] Epoch ended. INSTR misses = 78, DATA misses = 97. Winner = INSTR
[DUEL] Epoch ended. INSTR misses = 76, DATA misses = 43. Winner = DATA
[DUEL] Epoch ended. INSTR misses = 69, DATA misses = 61. Winner = DATA
[DUEL] Epoch ended. INSTR misses = 96, DATA misses = 86. Winner = DATA
[DUEL] Epoch ended. INSTR misses = 81, DATA misses = 89. Winner = INSTR
[DUEL] Epoch ended. INSTR misses = 111, DATA misses = 102. Winner = DATA
[DUEL] Epoch ended. INSTR misses = 78, DATA misses = 102. Winner = INSTR
[DUEL] Epoch ended. INSTR misses = 102, DATA misses = 90. Winner = DATA
[DUEL] Epoch ended. INSTR misses = 82, DATA misses = 97. Winner = INSTR
[DUEL] Epoch ended. INSTR misses = 91, DATA misses = 91. Winner = INSTR
[DUEL] Epoch ended. INSTR misses = 96, DATA misses = 86. Winner = DATA
[DUEL] Epoch ended. INSTR misses = 102, DATA misses = 91. Winner = DATA
[DUEL] Epoch ended. INSTR misses = 120, DATA misses = 107. Winner = DATA
[DUEL] Epoch ended. INSTR misses = 54, DATA misses = 35. Winner = DATA
[DUEL] Epoch ended. INSTR misses = 67, DATA misses = 60. Winner = DATA
[DUEL] Epoch ended. INSTR misses = 67, DATA misses = 73. Winner = INSTR
[DUEL] Epoch ended. INSTR misses = 134, DATA misses = 146. Winner = INSTR
[DUEL] Epoch ended. INSTR misses = 96, DATA misses = 96. Winner = INSTR
[DUEL] Epoch ended. INSTR misses = 95, DATA misses = 87. Winner = DATA
[DUEL] Epoch ended. INSTR misses = 87, DATA misses = 86. Winner = DATA
[DUEL] Epoch ended. INSTR misses = 119, DATA misses = 107. Winner = DATA
[DUEL] Epoch ended. INSTR misses = 64, DATA misses = 59. Winner = DATA
Heartbeat CPU 0 instructions: 120000003 cycles: 78634004 heartbeat IPC: 0.7577 cumulative IPC: 1.224 (Simulation time: 00 hr 12 min 07 sec)
[DUEL] Epoch ended. INSTR misses = 77, DATA misses = 103. Winner = INSTR
[DUEL] Epoch ended. INSTR misses = 93, DATA misses = 100. Winner = INSTR
[DUEL] Epoch ended. INSTR misses = 93, DATA misses = 121. Winner = INSTR
[DUEL] Epoch ended. INSTR misses = 75, DATA misses = 82. Winner = INSTR
[DUEL] Epoch ended. INSTR misses = 94, DATA misses = 83. Winner = DATA
[DUEL] Epoch ended. INSTR misses = 78, DATA misses = 106. Winner = INSTR
[DUEL] Epoch ended. INSTR misses = 84, DATA misses = 78. Winner = DATA
[DUEL] Epoch ended. INSTR misses = 97, DATA misses = 146. Winner = INSTR
[DUEL] Epoch ended. INSTR misses = 81, DATA misses = 120. Winner = INSTR
[DUEL] Epoch ended. INSTR misses = 60, DATA misses = 57. Winner = DATA
[DUEL] Epoch ended. INSTR misses = 80, DATA misses = 73. Winner = DATA
[DUEL] Epoch ended. INSTR misses = 68, DATA misses = 88. Winner = INSTR
[DUEL] Epoch ended. INSTR misses = 77, DATA misses = 89. Winner = INSTR
[DUEL] Epoch ended. INSTR misses = 16, DATA misses = 21. Winner = INSTR
[DUEL] Epoch ended. INSTR misses = 8, DATA misses = 8. Winner = INSTR
[DUEL] Epoch ended. INSTR misses = 0, DATA misses = 0. Winner = INSTR
[DUEL] Epoch ended. INSTR misses = 2, DATA misses = 9. Winner = INSTR
[DUEL] Epoch ended. INSTR misses = 13, DATA misses = 13. Winner = INSTR
[DUEL] Epoch ended. INSTR misses = 19, DATA misses = 19. Winner = INSTR
[DUEL] Epoch ended. INSTR misses = 2, DATA misses = 1. Winner = DATA
[DUEL] Epoch ended. INSTR misses = 9, DATA misses = 8. Winner = DATA
[DUEL] Epoch ended. INSTR misses = 27, DATA misses = 25. Winner = DATA
[DUEL] Epoch ended. INSTR misses = 0, DATA misses = 0. Winner = INSTR
[DUEL] Epoch ended. INSTR misses = 19, DATA misses = 18. Winner = DATA
[DUEL] Epoch ended. INSTR misses = 0, DATA misses = 0. Winner = INSTR
[DUEL] Epoch ended. INSTR misses = 0, DATA misses = 0. Winner = INSTR
[DUEL] Epoch ended. INSTR misses = 28, DATA misses = 29. Winner = INSTR
[DUEL] Epoch ended. INSTR misses = 0, DATA misses = 0. Winner = INSTR
[DUEL] Epoch ended. INSTR misses = 16, DATA misses = 16. Winner = INSTR
[DUEL] Epoch ended. INSTR misses = 0, DATA misses = 0. Winner = INSTR
[DUEL] Epoch ended. INSTR misses = 52, DATA misses = 54. Winner = INSTR
[DUEL] Epoch ended. INSTR misses = 1, DATA misses = 0. Winner = DATA
[DUEL] Epoch ended. INSTR misses = 0, DATA misses = 0. Winner = INSTR
[DUEL] Epoch ended. INSTR misses = 1, DATA misses = 0. Winner = DATA
[DUEL] Epoch ended. INSTR misses = 32, DATA misses = 31. Winner = DATA
[DUEL] Epoch ended. INSTR misses = 0, DATA misses = 0. Winner = INSTR
[DUEL] Epoch ended. INSTR misses = 47, DATA misses = 48. Winner = INSTR
[DUEL] Epoch ended. INSTR misses = 16, DATA misses = 16. Winner = INSTR
[DUEL] Epoch ended. INSTR misses = 0, DATA misses = 0. Winner = INSTR
Heartbeat CPU 0 instructions: 130000010 cycles: 86347880 heartbeat IPC: 1.296 cumulative IPC: 1.231 (Simulation time: 00 hr 13 min 21 sec)
Simulation finished CPU 0 instructions: 100000003 cycles: 81256769 cumulative IPC: 1.231 (Simulation time: 00 hr 13 min 21 sec)
Simulation complete CPU 0 instructions: 100000003 cycles: 81256769 cumulative IPC: 1.231 (Simulation time: 00 hr 13 min 21 sec)

ChampSim completed all CPUs

=== Simulation ===
CPU 0 runs ../traces/secret_traces/compute_fp/compute_fp_59.champsimtrace.xz
Region of Interest Statistics

CPU 0 cumulative IPC: 1.231 instructions: 100000003 cycles: 81256769
CPU 0 Branch Prediction Accuracy: 98.24% MPKI: 3.153 Average ROB Occupancy at Mispredict: 73.42
Branch type MPKI
BRANCH_DIRECT_JUMP: 0.00842
BRANCH_INDIRECT: 0.12
BRANCH_CONDITIONAL: 2.99
BRANCH_DIRECT_CALL: 0.0215
BRANCH_INDIRECT_CALL: 0.00258
BRANCH_RETURN: 0.0119

LLC TOTAL        ACCESS:    4663096 HIT:     479498 MISS:    4183598
LLC LOAD         ACCESS:     598575 HIT:      88117 MISS:     510458
LLC RFO          ACCESS:     155267 HIT:       3664 MISS:     151603
LLC PREFETCH     ACCESS:    3236725 HIT:     194667 MISS:    3042058
LLC WRITE        ACCESS:     660999 HIT:     192276 MISS:     468723
LLC TRANSLATION  ACCESS:      11530 HIT:        774 MISS:      10756
LLC PREFETCH REQUESTED:          0 ISSUED:          0 USEFUL:          0 USELESS:          0
LLC AVERAGE MISS LATENCY: 318.9 cycles
cpu0_DTLB TOTAL        ACCESS:   22528553 HIT:   22172487 MISS:     356066
cpu0_DTLB LOAD         ACCESS:   22528553 HIT:   22172487 MISS:     356066
cpu0_DTLB RFO          ACCESS:          0 HIT:          0 MISS:          0
cpu0_DTLB PREFETCH     ACCESS:          0 HIT:          0 MISS:          0
cpu0_DTLB WRITE        ACCESS:          0 HIT:          0 MISS:          0
cpu0_DTLB TRANSLATION  ACCESS:          0 HIT:          0 MISS:          0
cpu0_DTLB PREFETCH REQUESTED:          0 ISSUED:          0 USEFUL:          0 USELESS:          0
cpu0_DTLB AVERAGE MISS LATENCY: 28.83 cycles
cpu0_ITLB TOTAL        ACCESS:     131524 HIT:     129965 MISS:       1559
cpu0_ITLB LOAD         ACCESS:     131524 HIT:     129965 MISS:       1559
cpu0_ITLB RFO          ACCESS:          0 HIT:          0 MISS:          0
cpu0_ITLB PREFETCH     ACCESS:          0 HIT:          0 MISS:          0
cpu0_ITLB WRITE        ACCESS:          0 HIT:          0 MISS:          0
cpu0_ITLB TRANSLATION  ACCESS:          0 HIT:          0 MISS:          0
cpu0_ITLB PREFETCH REQUESTED:          0 ISSUED:          0 USEFUL:          0 USELESS:          0
cpu0_ITLB AVERAGE MISS LATENCY: 66.67 cycles
cpu0_L1D TOTAL        ACCESS:   44067668 HIT:   29682387 MISS:   14385281
cpu0_L1D LOAD         ACCESS:   21369419 HIT:   16203445 MISS:    5165974
cpu0_L1D RFO          ACCESS:          0 HIT:          0 MISS:          0
cpu0_L1D PREFETCH     ACCESS:   18445477 HIT:   10403594 MISS:    8041883
cpu0_L1D WRITE        ACCESS:    4183062 HIT:    3039765 MISS:    1143297
cpu0_L1D TRANSLATION  ACCESS:      69710 HIT:      35583 MISS:      34127
cpu0_L1D PREFETCH REQUESTED:  147129355 ISSUED:   18445445 USEFUL:    1717068 USELESS:     153764
cpu0_L1D AVERAGE MISS LATENCY: 48.06 cycles
cpu0_L1I TOTAL        ACCESS:     191612 HIT:     157133 MISS:      34479
cpu0_L1I LOAD         ACCESS:      63536 HIT:      53805 MISS:       9731
cpu0_L1I RFO          ACCESS:          0 HIT:          0 MISS:          0
cpu0_L1I PREFETCH     ACCESS:     128076 HIT:     103328 MISS:      24748
cpu0_L1I WRITE        ACCESS:          0 HIT:          0 MISS:          0
cpu0_L1I TRANSLATION  ACCESS:          0 HIT:          0 MISS:          0
cpu0_L1I PREFETCH REQUESTED:     181322 ISSUED:     128076 USEFUL:      13593 USELESS:       9238
cpu0_L1I AVERAGE MISS LATENCY: 103.6 cycles
cpu0_L2C TOTAL        ACCESS:   17275280 HIT:    6723221 MISS:   10552059
cpu0_L2C LOAD         ACCESS:    1717966 HIT:     660164 MISS:    1057802
cpu0_L2C RFO          ACCESS:     178110 HIT:      22638 MISS:     155472
cpu0_L2C PREFETCH     ACCESS:   14592136 HIT:    5264881 MISS:    9327255
cpu0_L2C WRITE        ACCESS:     753076 HIT:     753076 MISS:          0
cpu0_L2C TRANSLATION  ACCESS:      33992 HIT:      22462 MISS:      11530
cpu0_L2C PREFETCH REQUESTED:    8437221 ISSUED:    8090390 USEFUL:     648803 USELESS:     440642
cpu0_L2C AVERAGE MISS LATENCY: 126.3 cycles
cpu0_STLB TOTAL        ACCESS:     141387 HIT:      72704 MISS:      68683
cpu0_STLB LOAD         ACCESS:     141387 HIT:      72704 MISS:      68683
cpu0_STLB RFO          ACCESS:          0 HIT:          0 MISS:          0
cpu0_STLB PREFETCH     ACCESS:          0 HIT:          0 MISS:          0
cpu0_STLB WRITE        ACCESS:          0 HIT:          0 MISS:          0
cpu0_STLB TRANSLATION  ACCESS:          0 HIT:          0 MISS:          0
cpu0_STLB PREFETCH REQUESTED:          0 ISSUED:          0 USEFUL:          0 USELESS:          0
cpu0_STLB AVERAGE MISS LATENCY: 188.8 cycles

DRAM Statistics

Channel 0 RQ ROW_BUFFER_HIT:     913561
  ROW_BUFFER_MISS:     947937
 AVG DBUS CONGESTED CYCLE: 3.934
WQ ROW_BUFFER_HIT: Channel 0 
  ROW_BUFFER_MISS:      22978
  FULL:     245000

Channel 1 RQ ROW_BUFFER_HIT:     909134
  ROW_BUFFER_MISS:     943433
 AVG DBUS CONGESTED CYCLE: 3.931
WQ ROW_BUFFER_HIT: Channel 1 
  ROW_BUFFER_MISS:      23979
  FULL:     244160
BERTI TO_L1: 56421166 TO_L2: 120044142 TO_L2_BC_MSHR: 52072464
BERTI AVG_LAT: 216.327 NUM_TRACK_LATENCY: 4596797 NUM_CANT_TRACK_LATENCY: 224
BERTI CROSS_PAGE 25412430 NO_CROSS_PAGE: 151052878
BERTI FOUND_BERTI: 33253411 NO_FOUND_BERTI: 6270044
BERTI AVERAGE_ISSUED: 2.99144
CPU 0 L1I Entangling prefetcher final stats
IP accesses: ea88 3aa200 1428 / 77150
IP misses: ea88 3aa200 1324 / 23345
IP hits: 0 0 0 / 0
IP late: 215c 85700 14 / 4993
IP wrong: e8e9 3a3a40 25 / 9182
miss rate: 0.302593
coverage: 0
coverage_late: 0.213879
accuracy: 0
accuracy_late: 0.35224
discarded: 0
evicts entangled j table: 0
evicts entangled k table: 1421
max bb size: 65
formats: 426 0 1285 674 280 670 0 
hist_lookups: 1155 1221 897 799 698 606 486 341 299 249 197 129 81 42 22 0 12 3207 
hist_lookups_evict: 0.114932 %
hist_lookups_shortlat: 30.7155 %
bb_found_hist: 0 15131 6456 3130 1542 1053 344 138 141 81 19 11 13 84 23 6 20 0 0 0 0 0 0 0 0 0 0 0 0 0 0 0 0 0 0 0 0 0 0 0 0 0 0 0 0 0 0 0 0 2 0 0 0 0 0 0 0 0 0 0 0 0 0 0 
bb_found_summary: 56142 28194 1.99128
entangled_found_hist: 0 8671 4891 9497 2119 405 109 0 
entangled_found_summary: 58099 25692 2.26137
bb_ent_found_hist: 0 19350 9977 5059 2560 1860 803 225 127 56 16 0 0 8 0 8 1 0 0 0 0 0 0 0 0 0 0 0 0 0 0 0 0 0 0 0 0 0 0 0 0 0 0 0 0 0 0 0 0 2 0 0 0 0 0 0 0 0 0 0 0 0 0 0 
bb_ent_found_summary: 82432 40052 2.05813
