WARNING: physical memory size is smaller than virtual memory size.

*** ChampSim Multicore Out-of-Order Simulator ***
Warmup Instructions: 30000000
Simulation Instructions: 100000000
Number of CPUs: 1
Page size: 4096

BTB:
Basic BTB sets: 1024 ways: 8
Indirect:
history lengths: 0 0 10 16 27 44 60 96 109 219 449 487 714 1313 2146 3881 
ITTAGE tables: 64768 bytes;Region table: 240 bytes;IUM: 384 bytes;Total Storage= 65392 bytes;
RAS:
RAS size: 64
[LLC] INSTR Demand IPV: 1 2 2 1 4 Prefetch IPV: 1 2 1 1 4
[LLC] DATA  Demand IPV: 1 1 1 2 4 Prefetch IPV: 1 1 2 2 4
Berti Prefetcher
CPU 0 Entangling prefetcher
Off-chip DRAM Size: 8 GiB Channels: 2 Width: 64-bit Data Race: 6400 MT/s
[DUEL] Epoch ended. INSTR misses = 30, DATA misses = 24. Winner = DATA
[DUEL] Epoch ended. INSTR misses = 102, DATA misses = 99. Winner = DATA
[DUEL] Epoch ended. INSTR misses = 53, DATA misses = 54. Winner = INSTR
[DUEL] Epoch ended. INSTR misses = 74, DATA misses = 75. Winner = INSTR
[DUEL] Epoch ended. INSTR misses = 54, DATA misses = 49. Winner = DATA
[DUEL] Epoch ended. INSTR misses = 48, DATA misses = 48. Winner = INSTR
[DUEL] Epoch ended. INSTR misses = 22, DATA misses = 17. Winner = DATA
[DUEL] Epoch ended. INSTR misses = 40, DATA misses = 38. Winner = DATA
[DUEL] Epoch ended. INSTR misses = 45, DATA misses = 45. Winner = INSTR
[DUEL] Epoch ended. INSTR misses = 53, DATA misses = 30. Winner = DATA
[DUEL] Epoch ended. INSTR misses = 42, DATA misses = 28. Winner = DATA
[DUEL] Epoch ended. INSTR misses = 24, DATA misses = 40. Winner = INSTR
[DUEL] Epoch ended. INSTR misses = 27, DATA misses = 30. Winner = INSTR
[DUEL] Epoch ended. INSTR misses = 42, DATA misses = 48. Winner = INSTR
[DUEL] Epoch ended. INSTR misses = 31, DATA misses = 28. Winner = DATA
[DUEL] Epoch ended. INSTR misses = 19, DATA misses = 18. Winner = DATA
[DUEL] Epoch ended. INSTR misses = 37, DATA misses = 34. Winner = DATA
[DUEL] Epoch ended. INSTR misses = 41, DATA misses = 39. Winner = DATA
[DUEL] Epoch ended. INSTR misses = 47, DATA misses = 23. Winner = DATA
[DUEL] Epoch ended. INSTR misses = 53, DATA misses = 29. Winner = DATA
[DUEL] Epoch ended. INSTR misses = 15, DATA misses = 36. Winner = INSTR
[DUEL] Epoch ended. INSTR misses = 29, DATA misses = 34. Winner = INSTR
[DUEL] Epoch ended. INSTR misses = 29, DATA misses = 29. Winner = INSTR
[DUEL] Epoch ended. INSTR misses = 12, DATA misses = 8. Winner = DATA
[DUEL] Epoch ended. INSTR misses = 33, DATA misses = 29. Winner = DATA
[DUEL] Epoch ended. INSTR misses = 33, DATA misses = 34. Winner = INSTR
[DUEL] Epoch ended. INSTR misses = 28, DATA misses = 22. Winner = DATA
[DUEL] Epoch ended. INSTR misses = 59, DATA misses = 34. Winner = DATA
[DUEL] Epoch ended. INSTR misses = 26, DATA misses = 35. Winner = INSTR
[DUEL] Epoch ended. INSTR misses = 11, DATA misses = 38. Winner = INSTR
[DUEL] Epoch ended. INSTR misses = 30, DATA misses = 33. Winner = INSTR
[DUEL] Epoch ended. INSTR misses = 16, DATA misses = 16. Winner = INSTR
[DUEL] Epoch ended. INSTR misses = 0, DATA misses = 0. Winner = INSTR
[DUEL] Epoch ended. INSTR misses = 0, DATA misses = 0. Winner = INSTR
[DUEL] Epoch ended. INSTR misses = 0, DATA misses = 0. Winner = INSTR
[DUEL] Epoch ended. INSTR misses = 18, DATA misses = 15. Winner = DATA
[DUEL] Epoch ended. INSTR misses = 10, DATA misses = 7. Winner = DATA
Heartbeat CPU 0 instructions: 10000008 cycles: 1890195 heartbeat IPC: 5.29 cumulative IPC: 5.29 (Simulation time: 00 hr 00 min 26 sec)
[DUEL] Epoch ended. INSTR misses = 32, DATA misses = 32. Winner = INSTR
[DUEL] Epoch ended. INSTR misses = 48, DATA misses = 44. Winner = DATA
[DUEL] Epoch ended. INSTR misses = 24, DATA misses = 22. Winner = DATA
[DUEL] Epoch ended. INSTR misses = 45, DATA misses = 42. Winner = DATA
[DUEL] Epoch ended. INSTR misses = 18, DATA misses = 31. Winner = INSTR
[DUEL] Epoch ended. INSTR misses = 32, DATA misses = 32. Winner = INSTR
[DUEL] Epoch ended. INSTR misses = 29, DATA misses = 49. Winner = INSTR
[DUEL] Epoch ended. INSTR misses = 25, DATA misses = 23. Winner = DATA
[DUEL] Epoch ended. INSTR misses = 2, DATA misses = 0. Winner = DATA
[DUEL] Epoch ended. INSTR misses = 32, DATA misses = 29. Winner = DATA
[DUEL] Epoch ended. INSTR misses = 32, DATA misses = 32. Winner = INSTR
[DUEL] Epoch ended. INSTR misses = 40, DATA misses = 37. Winner = DATA
[DUEL] Epoch ended. INSTR misses = 31, DATA misses = 22. Winner = DATA
[DUEL] Epoch ended. INSTR misses = 35, DATA misses = 42. Winner = INSTR
[DUEL] Epoch ended. INSTR misses = 22, DATA misses = 24. Winner = INSTR
[DUEL] Epoch ended. INSTR misses = 18, DATA misses = 33. Winner = INSTR
[DUEL] Epoch ended. INSTR misses = 24, DATA misses = 20. Winner = DATA
[DUEL] Epoch ended. INSTR misses = 24, DATA misses = 22. Winner = DATA
[DUEL] Epoch ended. INSTR misses = 17, DATA misses = 15. Winner = DATA
[DUEL] Epoch ended. INSTR misses = 34, DATA misses = 32. Winner = DATA
[DUEL] Epoch ended. INSTR misses = 36, DATA misses = 32. Winner = DATA
[DUEL] Epoch ended. INSTR misses = 43, DATA misses = 21. Winner = DATA
[DUEL] Epoch ended. INSTR misses = 18, DATA misses = 24. Winner = INSTR
[DUEL] Epoch ended. INSTR misses = 57, DATA misses = 64. Winner = INSTR
[DUEL] Epoch ended. INSTR misses = 33, DATA misses = 52. Winner = INSTR
[DUEL] Epoch ended. INSTR misses = 38, DATA misses = 31. Winner = DATA
[DUEL] Epoch ended. INSTR misses = 31, DATA misses = 36. Winner = INSTR
[DUEL] Epoch ended. INSTR misses = 25, DATA misses = 20. Winner = DATA
[DUEL] Epoch ended. INSTR misses = 7, DATA misses = 5. Winner = DATA
[DUEL] Epoch ended. INSTR misses = 35, DATA misses = 29. Winner = DATA
[DUEL] Epoch ended. INSTR misses = 33, DATA misses = 32. Winner = DATA
[DUEL] Epoch ended. INSTR misses = 23, DATA misses = 19. Winner = DATA
[DUEL] Epoch ended. INSTR misses = 50, DATA misses = 39. Winner = DATA
[DUEL] Epoch ended. INSTR misses = 35, DATA misses = 14. Winner = DATA
[DUEL] Epoch ended. INSTR misses = 64, DATA misses = 70. Winner = INSTR
[DUEL] Epoch ended. INSTR misses = 28, DATA misses = 36. Winner = INSTR
[DUEL] Epoch ended. INSTR misses = 35, DATA misses = 40. Winner = INSTR
[DUEL] Epoch ended. INSTR misses = 26, DATA misses = 32. Winner = INSTR
[DUEL] Epoch ended. INSTR misses = 25, DATA misses = 18. Winner = DATA
Heartbeat CPU 0 instructions: 20000000 cycles: 3706711 heartbeat IPC: 5.505 cumulative IPC: 5.396 (Simulation time: 00 hr 00 min 53 sec)
[DUEL] Epoch ended. INSTR misses = 7, DATA misses = 4. Winner = DATA
[DUEL] Epoch ended. INSTR misses = 34, DATA misses = 29. Winner = DATA
[DUEL] Epoch ended. INSTR misses = 34, DATA misses = 32. Winner = DATA
[DUEL] Epoch ended. INSTR misses = 23, DATA misses = 19. Winner = DATA
[DUEL] Epoch ended. INSTR misses = 47, DATA misses = 32. Winner = DATA
[DUEL] Epoch ended. INSTR misses = 21, DATA misses = 17. Winner = DATA
[DUEL] Epoch ended. INSTR misses = 53, DATA misses = 62. Winner = INSTR
[DUEL] Epoch ended. INSTR misses = 24, DATA misses = 30. Winner = INSTR
[DUEL] Epoch ended. INSTR misses = 34, DATA misses = 42. Winner = INSTR
[DUEL] Epoch ended. INSTR misses = 25, DATA misses = 40. Winner = INSTR
[DUEL] Epoch ended. INSTR misses = 24, DATA misses = 18. Winner = DATA
[DUEL] Epoch ended. INSTR misses = 7, DATA misses = 4. Winner = DATA
[DUEL] Epoch ended. INSTR misses = 34, DATA misses = 29. Winner = DATA
[DUEL] Epoch ended. INSTR misses = 34, DATA misses = 32. Winner = DATA
[DUEL] Epoch ended. INSTR misses = 22, DATA misses = 19. Winner = DATA
[DUEL] Epoch ended. INSTR misses = 35, DATA misses = 29. Winner = DATA
[DUEL] Epoch ended. INSTR misses = 30, DATA misses = 21. Winner = DATA
[DUEL] Epoch ended. INSTR misses = 46, DATA misses = 65. Winner = INSTR
[DUEL] Epoch ended. INSTR misses = 20, DATA misses = 29. Winner = INSTR
[DUEL] Epoch ended. INSTR misses = 28, DATA misses = 26. Winner = DATA
[DUEL] Epoch ended. INSTR misses = 27, DATA misses = 27. Winner = INSTR
[DUEL] Epoch ended. INSTR misses = 17, DATA misses = 16. Winner = DATA
[DUEL] Epoch ended. INSTR misses = 6, DATA misses = 3. Winner = DATA
[DUEL] Epoch ended. INSTR misses = 35, DATA misses = 29. Winner = DATA
[DUEL] Epoch ended. INSTR misses = 33, DATA misses = 32. Winner = DATA
[DUEL] Epoch ended. INSTR misses = 22, DATA misses = 18. Winner = DATA
[DUEL] Epoch ended. INSTR misses = 45, DATA misses = 33. Winner = DATA
[DUEL] Epoch ended. INSTR misses = 24, DATA misses = 21. Winner = DATA
[DUEL] Epoch ended. INSTR misses = 58, DATA misses = 54. Winner = DATA
[DUEL] Epoch ended. INSTR misses = 31, DATA misses = 38. Winner = INSTR
[DUEL] Epoch ended. INSTR misses = 20, DATA misses = 31. Winner = INSTR
[DUEL] Epoch ended. INSTR misses = 37, DATA misses = 34. Winner = DATA
[DUEL] Epoch ended. INSTR misses = 21, DATA misses = 20. Winner = DATA
[DUEL] Epoch ended. INSTR misses = 23, DATA misses = 18. Winner = DATA
[DUEL] Epoch ended. INSTR misses = 19, DATA misses = 14. Winner = DATA
[DUEL] Epoch ended. INSTR misses = 40, DATA misses = 37. Winner = DATA
[DUEL] Epoch ended. INSTR misses = 19, DATA misses = 16. Winner = DATA
[DUEL] Epoch ended. INSTR misses = 42, DATA misses = 36. Winner = DATA
[DUEL] Epoch ended. INSTR misses = 19, DATA misses = 30. Winner = INSTR
Heartbeat CPU 0 instructions: 30000001 cycles: 5514889 heartbeat IPC: 5.53 cumulative IPC: 5.44 (Simulation time: 00 hr 01 min 19 sec)
Warmup finished CPU 0 instructions: 30000001 cycles: 5514890 cumulative IPC: 5.44 (Simulation time: 00 hr 01 min 19 sec)
Warmup complete CPU 0 instructions: 30000001 cycles: 5514890 cumulative IPC: 5.44 (Simulation time: 00 hr 01 min 19 sec)
[DUEL] Epoch ended. INSTR misses = 32, DATA misses = 25. Winner = DATA
[DUEL] Epoch ended. INSTR misses = 62, DATA misses = 59. Winner = DATA
[DUEL] Epoch ended. INSTR misses = 28, DATA misses = 23. Winner = DATA
[DUEL] Epoch ended. INSTR misses = 24, DATA misses = 33. Winner = INSTR
[DUEL] Epoch ended. INSTR misses = 27, DATA misses = 31. Winner = INSTR
[DUEL] Epoch ended. INSTR misses = 28, DATA misses = 20. Winner = DATA
[DUEL] Epoch ended. INSTR misses = 7, DATA misses = 3. Winner = DATA
[DUEL] Epoch ended. INSTR misses = 37, DATA misses = 32. Winner = DATA
[DUEL] Epoch ended. INSTR misses = 20, DATA misses = 19. Winner = DATA
[DUEL] Epoch ended. INSTR misses = 38, DATA misses = 34. Winner = DATA
[DUEL] Epoch ended. INSTR misses = 38, DATA misses = 40. Winner = INSTR
[DUEL] Epoch ended. INSTR misses = 21, DATA misses = 14. Winner = DATA
[DUEL] Epoch ended. INSTR misses = 46, DATA misses = 46. Winner = INSTR
[DUEL] Epoch ended. INSTR misses = 43, DATA misses = 37. Winner = DATA
[DUEL] Epoch ended. INSTR misses = 10, DATA misses = 25. Winner = INSTR
[DUEL] Epoch ended. INSTR misses = 33, DATA misses = 37. Winner = INSTR
[DUEL] Epoch ended. INSTR misses = 34, DATA misses = 25. Winner = DATA
[DUEL] Epoch ended. INSTR misses = 7, DATA misses = 3. Winner = DATA
[DUEL] Epoch ended. INSTR misses = 32, DATA misses = 30. Winner = DATA
[DUEL] Epoch ended. INSTR misses = 24, DATA misses = 18. Winner = DATA
[DUEL] Epoch ended. INSTR misses = 38, DATA misses = 34. Winner = DATA
[DUEL] Epoch ended. INSTR misses = 28, DATA misses = 32. Winner = INSTR
[DUEL] Epoch ended. INSTR misses = 21, DATA misses = 14. Winner = DATA
[DUEL] Epoch ended. INSTR misses = 25, DATA misses = 36. Winner = INSTR
[DUEL] Epoch ended. INSTR misses = 42, DATA misses = 36. Winner = DATA
[DUEL] Epoch ended. INSTR misses = 19, DATA misses = 27. Winner = INSTR
[DUEL] Epoch ended. INSTR misses = 35, DATA misses = 41. Winner = INSTR
[DUEL] Epoch ended. INSTR misses = 26, DATA misses = 20. Winner = DATA
[DUEL] Epoch ended. INSTR misses = 7, DATA misses = 3. Winner = DATA
[DUEL] Epoch ended. INSTR misses = 36, DATA misses = 31. Winner = DATA
[DUEL] Epoch ended. INSTR misses = 36, DATA misses = 34. Winner = DATA
[DUEL] Epoch ended. INSTR misses = 22, DATA misses = 17. Winner = DATA
[DUEL] Epoch ended. INSTR misses = 28, DATA misses = 32. Winner = INSTR
[DUEL] Epoch ended. INSTR misses = 18, DATA misses = 14. Winner = DATA
[DUEL] Epoch ended. INSTR misses = 59, DATA misses = 54. Winner = DATA
[DUEL] Epoch ended. INSTR misses = 28, DATA misses = 38. Winner = INSTR
[DUEL] Epoch ended. INSTR misses = 20, DATA misses = 28. Winner = INSTR
[DUEL] Epoch ended. INSTR misses = 35, DATA misses = 35. Winner = INSTR
[DUEL] Epoch ended. INSTR misses = 24, DATA misses = 17. Winner = DATA
Heartbeat CPU 0 instructions: 40000000 cycles: 11647440 heartbeat IPC: 1.631 cumulative IPC: 1.631 (Simulation time: 00 hr 02 min 11 sec)
[DUEL] Epoch ended. INSTR misses = 0, DATA misses = 0. Winner = INSTR
[DUEL] Epoch ended. INSTR misses = 38, DATA misses = 31. Winner = DATA
[DUEL] Epoch ended. INSTR misses = 36, DATA misses = 38. Winner = INSTR
[DUEL] Epoch ended. INSTR misses = 38, DATA misses = 33. Winner = DATA
[DUEL] Epoch ended. INSTR misses = 23, DATA misses = 23. Winner = INSTR
[DUEL] Epoch ended. INSTR misses = 28, DATA misses = 17. Winner = DATA
[DUEL] Epoch ended. INSTR misses = 42, DATA misses = 56. Winner = INSTR
[DUEL] Epoch ended. INSTR misses = 19, DATA misses = 16. Winner = DATA
[DUEL] Epoch ended. INSTR misses = 26, DATA misses = 34. Winner = INSTR
[DUEL] Epoch ended. INSTR misses = 35, DATA misses = 34. Winner = DATA
[DUEL] Epoch ended. INSTR misses = 24, DATA misses = 17. Winner = DATA
[DUEL] Epoch ended. INSTR misses = 1, DATA misses = 0. Winner = DATA
[DUEL] Epoch ended. INSTR misses = 37, DATA misses = 31. Winner = DATA
[DUEL] Epoch ended. INSTR misses = 35, DATA misses = 36. Winner = INSTR
[DUEL] Epoch ended. INSTR misses = 38, DATA misses = 33. Winner = DATA
[DUEL] Epoch ended. INSTR misses = 21, DATA misses = 28. Winner = INSTR
[DUEL] Epoch ended. INSTR misses = 33, DATA misses = 9. Winner = DATA
[DUEL] Epoch ended. INSTR misses = 36, DATA misses = 59. Winner = INSTR
[DUEL] Epoch ended. INSTR misses = 27, DATA misses = 24. Winner = DATA
[DUEL] Epoch ended. INSTR misses = 27, DATA misses = 14. Winner = DATA
[DUEL] Epoch ended. INSTR misses = 33, DATA misses = 48. Winner = INSTR
[DUEL] Epoch ended. INSTR misses = 21, DATA misses = 16. Winner = DATA
[DUEL] Epoch ended. INSTR misses = 0, DATA misses = 0. Winner = INSTR
[DUEL] Epoch ended. INSTR misses = 0, DATA misses = 0. Winner = INSTR
[DUEL] Epoch ended. INSTR misses = 0, DATA misses = 0. Winner = INSTR
[DUEL] Epoch ended. INSTR misses = 20, DATA misses = 15. Winner = DATA
[DUEL] Epoch ended. INSTR misses = 8, DATA misses = 2. Winner = DATA
[DUEL] Epoch ended. INSTR misses = 23, DATA misses = 17. Winner = DATA
[DUEL] Epoch ended. INSTR misses = 50, DATA misses = 47. Winner = DATA
[DUEL] Epoch ended. INSTR misses = 36, DATA misses = 31. Winner = DATA
[DUEL] Epoch ended. INSTR misses = 38, DATA misses = 40. Winner = INSTR
[DUEL] Epoch ended. INSTR misses = 22, DATA misses = 16. Winner = DATA
[DUEL] Epoch ended. INSTR misses = 31, DATA misses = 40. Winner = INSTR
[DUEL] Epoch ended. INSTR misses = 45, DATA misses = 46. Winner = INSTR
[DUEL] Epoch ended. INSTR misses = 30, DATA misses = 12. Winner = DATA
[DUEL] Epoch ended. INSTR misses = 33, DATA misses = 42. Winner = INSTR
[DUEL] Epoch ended. INSTR misses = 34, DATA misses = 37. Winner = INSTR
[DUEL] Epoch ended. INSTR misses = 18, DATA misses = 15. Winner = DATA
Heartbeat CPU 0 instructions: 50000001 cycles: 17351889 heartbeat IPC: 1.753 cumulative IPC: 1.69 (Simulation time: 00 hr 03 min 00 sec)
[DUEL] Epoch ended. INSTR misses = 7, DATA misses = 2. Winner = DATA
[DUEL] Epoch ended. INSTR misses = 38, DATA misses = 34. Winner = DATA
[DUEL] Epoch ended. INSTR misses = 36, DATA misses = 35. Winner = DATA
[DUEL] Epoch ended. INSTR misses = 22, DATA misses = 17. Winner = DATA
[DUEL] Epoch ended. INSTR misses = 42, DATA misses = 47. Winner = INSTR
[DUEL] Epoch ended. INSTR misses = 29, DATA misses = 18. Winner = DATA
[DUEL] Epoch ended. INSTR misses = 32, DATA misses = 44. Winner = INSTR
[DUEL] Epoch ended. INSTR misses = 51, DATA misses = 29. Winner = DATA
[DUEL] Epoch ended. INSTR misses = 21, DATA misses = 17. Winner = DATA
[DUEL] Epoch ended. INSTR misses = 35, DATA misses = 40. Winner = INSTR
[DUEL] Epoch ended. INSTR misses = 20, DATA misses = 12. Winner = DATA
[DUEL] Epoch ended. INSTR misses = 23, DATA misses = 17. Winner = DATA
[DUEL] Epoch ended. INSTR misses = 16, DATA misses = 13. Winner = DATA
[DUEL] Epoch ended. INSTR misses = 42, DATA misses = 36. Winner = DATA
[DUEL] Epoch ended. INSTR misses = 36, DATA misses = 32. Winner = DATA
[DUEL] Epoch ended. INSTR misses = 32, DATA misses = 21. Winner = DATA
[DUEL] Epoch ended. INSTR misses = 17, DATA misses = 27. Winner = INSTR
[DUEL] Epoch ended. INSTR misses = 48, DATA misses = 51. Winner = INSTR
[DUEL] Epoch ended. INSTR misses = 30, DATA misses = 18. Winner = DATA
[DUEL] Epoch ended. INSTR misses = 16, DATA misses = 32. Winner = INSTR
[DUEL] Epoch ended. INSTR misses = 30, DATA misses = 26. Winner = DATA
[DUEL] Epoch ended. INSTR misses = 23, DATA misses = 17. Winner = DATA
[DUEL] Epoch ended. INSTR misses = 16, DATA misses = 13. Winner = DATA
[DUEL] Epoch ended. INSTR misses = 37, DATA misses = 34. Winner = DATA
[DUEL] Epoch ended. INSTR misses = 37, DATA misses = 33. Winner = DATA
[DUEL] Epoch ended. INSTR misses = 22, DATA misses = 19. Winner = DATA
[DUEL] Epoch ended. INSTR misses = 45, DATA misses = 27. Winner = DATA
[DUEL] Epoch ended. INSTR misses = 27, DATA misses = 45. Winner = INSTR
[DUEL] Epoch ended. INSTR misses = 34, DATA misses = 33. Winner = DATA
[DUEL] Epoch ended. INSTR misses = 32, DATA misses = 39. Winner = INSTR
[DUEL] Epoch ended. INSTR misses = 24, DATA misses = 17. Winner = DATA
[DUEL] Epoch ended. INSTR misses = 12, DATA misses = 0. Winner = DATA
[DUEL] Epoch ended. INSTR misses = 21, DATA misses = 30. Winner = INSTR
[DUEL] Epoch ended. INSTR misses = 36, DATA misses = 34. Winner = DATA
[DUEL] Epoch ended. INSTR misses = 36, DATA misses = 33. Winner = DATA
[DUEL] Epoch ended. INSTR misses = 34, DATA misses = 20. Winner = DATA
[DUEL] Epoch ended. INSTR misses = 45, DATA misses = 50. Winner = INSTR
[DUEL] Epoch ended. INSTR misses = 22, DATA misses = 24. Winner = INSTR
[DUEL] Epoch ended. INSTR misses = 36, DATA misses = 32. Winner = DATA
Heartbeat CPU 0 instructions: 60000010 cycles: 23276270 heartbeat IPC: 1.688 cumulative IPC: 1.689 (Simulation time: 00 hr 03 min 51 sec)
[DUEL] Epoch ended. INSTR misses = 22, DATA misses = 16. Winner = DATA
[DUEL] Epoch ended. INSTR misses = 16, DATA misses = 13. Winner = DATA
[DUEL] Epoch ended. INSTR misses = 32, DATA misses = 29. Winner = DATA
[DUEL] Epoch ended. INSTR misses = 16, DATA misses = 19. Winner = INSTR
[DUEL] Epoch ended. INSTR misses = 43, DATA misses = 40. Winner = DATA
[DUEL] Epoch ended. INSTR misses = 41, DATA misses = 25. Winner = DATA
[DUEL] Epoch ended. INSTR misses = 26, DATA misses = 47. Winner = INSTR
[DUEL] Epoch ended. INSTR misses = 55, DATA misses = 44. Winner = DATA
[DUEL] Epoch ended. INSTR misses = 22, DATA misses = 19. Winner = DATA
[DUEL] Epoch ended. INSTR misses = 6, DATA misses = 1. Winner = DATA
[DUEL] Epoch ended. INSTR misses = 32, DATA misses = 29. Winner = DATA
[DUEL] Epoch ended. INSTR misses = 33, DATA misses = 33. Winner = INSTR
[DUEL] Epoch ended. INSTR misses = 37, DATA misses = 31. Winner = DATA
[DUEL] Epoch ended. INSTR misses = 43, DATA misses = 15. Winner = DATA
[DUEL] Epoch ended. INSTR misses = 18, DATA misses = 38. Winner = INSTR
[DUEL] Epoch ended. INSTR misses = 54, DATA misses = 49. Winner = DATA
[DUEL] Epoch ended. INSTR misses = 22, DATA misses = 15. Winner = DATA
[DUEL] Epoch ended. INSTR misses = 16, DATA misses = 13. Winner = DATA
[DUEL] Epoch ended. INSTR misses = 33, DATA misses = 32. Winner = DATA
[DUEL] Epoch ended. INSTR misses = 35, DATA misses = 32. Winner = DATA
[DUEL] Epoch ended. INSTR misses = 23, DATA misses = 22. Winner = DATA
[DUEL] Epoch ended. INSTR misses = 45, DATA misses = 33. Winner = DATA
[DUEL] Epoch ended. INSTR misses = 39, DATA misses = 38. Winner = DATA
[DUEL] Epoch ended. INSTR misses = 27, DATA misses = 35. Winner = INSTR
[DUEL] Epoch ended. INSTR misses = 6, DATA misses = 0. Winner = DATA
[DUEL] Epoch ended. INSTR misses = 33, DATA misses = 29. Winner = DATA
[DUEL] Epoch ended. INSTR misses = 16, DATA misses = 17. Winner = INSTR
[DUEL] Epoch ended. INSTR misses = 37, DATA misses = 31. Winner = DATA
[DUEL] Epoch ended. INSTR misses = 37, DATA misses = 27. Winner = DATA
[DUEL] Epoch ended. INSTR misses = 30, DATA misses = 41. Winner = INSTR
[DUEL] Epoch ended. INSTR misses = 51, DATA misses = 42. Winner = DATA
[DUEL] Epoch ended. INSTR misses = 21, DATA misses = 19. Winner = DATA
[DUEL] Epoch ended. INSTR misses = 6, DATA misses = 0. Winner = DATA
[DUEL] Epoch ended. INSTR misses = 32, DATA misses = 29. Winner = DATA
[DUEL] Epoch ended. INSTR misses = 32, DATA misses = 34. Winner = INSTR
[DUEL] Epoch ended. INSTR misses = 37, DATA misses = 31. Winner = DATA
[DUEL] Epoch ended. INSTR misses = 46, DATA misses = 26. Winner = DATA
[DUEL] Epoch ended. INSTR misses = 25, DATA misses = 35. Winner = INSTR
[DUEL] Epoch ended. INSTR misses = 45, DATA misses = 45. Winner = INSTR
Heartbeat CPU 0 instructions: 70000000 cycles: 28123904 heartbeat IPC: 2.063 cumulative IPC: 1.769 (Simulation time: 00 hr 04 min 38 sec)
[DUEL] Epoch ended. INSTR misses = 21, DATA misses = 19. Winner = DATA
[DUEL] Epoch ended. INSTR misses = 6, DATA misses = 0. Winner = DATA
[DUEL] Epoch ended. INSTR misses = 32, DATA misses = 30. Winner = DATA
[DUEL] Epoch ended. INSTR misses = 33, DATA misses = 35. Winner = INSTR
[DUEL] Epoch ended. INSTR misses = 37, DATA misses = 31. Winner = DATA
[DUEL] Epoch ended. INSTR misses = 49, DATA misses = 34. Winner = DATA
[DUEL] Epoch ended. INSTR misses = 18, DATA misses = 45. Winner = INSTR
[DUEL] Epoch ended. INSTR misses = 48, DATA misses = 45. Winner = DATA
[DUEL] Epoch ended. INSTR misses = 21, DATA misses = 22. Winner = INSTR
[DUEL] Epoch ended. INSTR misses = 6, DATA misses = 0. Winner = DATA
[DUEL] Epoch ended. INSTR misses = 33, DATA misses = 29. Winner = DATA
[DUEL] Epoch ended. INSTR misses = 33, DATA misses = 35. Winner = INSTR
[DUEL] Epoch ended. INSTR misses = 21, DATA misses = 15. Winner = DATA
[DUEL] Epoch ended. INSTR misses = 52, DATA misses = 31. Winner = DATA
[DUEL] Epoch ended. INSTR misses = 29, DATA misses = 39. Winner = INSTR
[DUEL] Epoch ended. INSTR misses = 54, DATA misses = 46. Winner = DATA
[DUEL] Epoch ended. INSTR misses = 17, DATA misses = 17. Winner = INSTR
[DUEL] Epoch ended. INSTR misses = 0, DATA misses = 0. Winner = INSTR
[DUEL] Epoch ended. INSTR misses = 0, DATA misses = 0. Winner = INSTR
[DUEL] Epoch ended. INSTR misses = 0, DATA misses = 0. Winner = INSTR
[DUEL] Epoch ended. INSTR misses = 31, DATA misses = 15. Winner = DATA
[DUEL] Epoch ended. INSTR misses = 6, DATA misses = 0. Winner = DATA
[DUEL] Epoch ended. INSTR misses = 38, DATA misses = 34. Winner = DATA
[DUEL] Epoch ended. INSTR misses = 35, DATA misses = 24. Winner = DATA
[DUEL] Epoch ended. INSTR misses = 37, DATA misses = 31. Winner = DATA
[DUEL] Epoch ended. INSTR misses = 40, DATA misses = 27. Winner = DATA
[DUEL] Epoch ended. INSTR misses = 43, DATA misses = 40. Winner = DATA
[DUEL] Epoch ended. INSTR misses = 47, DATA misses = 35. Winner = DATA
[DUEL] Epoch ended. INSTR misses = 22, DATA misses = 25. Winner = INSTR
[DUEL] Epoch ended. INSTR misses = 6, DATA misses = 0. Winner = DATA
[DUEL] Epoch ended. INSTR misses = 33, DATA misses = 29. Winner = DATA
[DUEL] Epoch ended. INSTR misses = 33, DATA misses = 26. Winner = DATA
[DUEL] Epoch ended. INSTR misses = 21, DATA misses = 24. Winner = INSTR
[DUEL] Epoch ended. INSTR misses = 43, DATA misses = 27. Winner = DATA
[DUEL] Epoch ended. INSTR misses = 33, DATA misses = 37. Winner = INSTR
[DUEL] Epoch ended. INSTR misses = 54, DATA misses = 45. Winner = DATA
[DUEL] Epoch ended. INSTR misses = 21, DATA misses = 20. Winner = DATA
[DUEL] Epoch ended. INSTR misses = 6, DATA misses = 0. Winner = DATA
Heartbeat CPU 0 instructions: 80000006 cycles: 32460072 heartbeat IPC: 2.306 cumulative IPC: 1.856 (Simulation time: 00 hr 05 min 21 sec)
[DUEL] Epoch ended. INSTR misses = 33, DATA misses = 29. Winner = DATA
[DUEL] Epoch ended. INSTR misses = 33, DATA misses = 29. Winner = DATA
[DUEL] Epoch ended. INSTR misses = 21, DATA misses = 21. Winner = INSTR
[DUEL] Epoch ended. INSTR misses = 45, DATA misses = 30. Winner = DATA
[DUEL] Epoch ended. INSTR misses = 33, DATA misses = 37. Winner = INSTR
[DUEL] Epoch ended. INSTR misses = 43, DATA misses = 40. Winner = DATA
[DUEL] Epoch ended. INSTR misses = 20, DATA misses = 20. Winner = INSTR
[DUEL] Epoch ended. INSTR misses = 7, DATA misses = 0. Winner = DATA
[DUEL] Epoch ended. INSTR misses = 31, DATA misses = 29. Winner = DATA
[DUEL] Epoch ended. INSTR misses = 33, DATA misses = 35. Winner = INSTR
[DUEL] Epoch ended. INSTR misses = 21, DATA misses = 15. Winner = DATA
[DUEL] Epoch ended. INSTR misses = 58, DATA misses = 33. Winner = DATA
[DUEL] Epoch ended. INSTR misses = 22, DATA misses = 35. Winner = INSTR
[DUEL] Epoch ended. INSTR misses = 53, DATA misses = 40. Winner = DATA
[DUEL] Epoch ended. INSTR misses = 21, DATA misses = 20. Winner = DATA
[DUEL] Epoch ended. INSTR misses = 6, DATA misses = 0. Winner = DATA
[DUEL] Epoch ended. INSTR misses = 32, DATA misses = 29. Winner = DATA
[DUEL] Epoch ended. INSTR misses = 32, DATA misses = 35. Winner = INSTR
[DUEL] Epoch ended. INSTR misses = 37, DATA misses = 31. Winner = DATA
[DUEL] Epoch ended. INSTR misses = 38, DATA misses = 20. Winner = DATA
[DUEL] Epoch ended. INSTR misses = 48, DATA misses = 44. Winner = DATA
[DUEL] Epoch ended. INSTR misses = 47, DATA misses = 36. Winner = DATA
[DUEL] Epoch ended. INSTR misses = 22, DATA misses = 15. Winner = DATA
[DUEL] Epoch ended. INSTR misses = 16, DATA misses = 13. Winner = DATA
[DUEL] Epoch ended. INSTR misses = 33, DATA misses = 32. Winner = DATA
[DUEL] Epoch ended. INSTR misses = 16, DATA misses = 18. Winner = INSTR
[DUEL] Epoch ended. INSTR misses = 43, DATA misses = 33. Winner = DATA
[DUEL] Epoch ended. INSTR misses = 60, DATA misses = 41. Winner = DATA
[DUEL] Epoch ended. INSTR misses = 42, DATA misses = 41. Winner = DATA
[DUEL] Epoch ended. INSTR misses = 25, DATA misses = 26. Winner = INSTR
[DUEL] Epoch ended. INSTR misses = 22, DATA misses = 15. Winner = DATA
[DUEL] Epoch ended. INSTR misses = 15, DATA misses = 13. Winner = DATA
[DUEL] Epoch ended. INSTR misses = 35, DATA misses = 32. Winner = DATA
[DUEL] Epoch ended. INSTR misses = 34, DATA misses = 33. Winner = DATA
[DUEL] Epoch ended. INSTR misses = 28, DATA misses = 25. Winner = DATA
[DUEL] Epoch ended. INSTR misses = 56, DATA misses = 44. Winner = DATA
[DUEL] Epoch ended. INSTR misses = 16, DATA misses = 23. Winner = INSTR
[DUEL] Epoch ended. INSTR misses = 42, DATA misses = 45. Winner = INSTR
Heartbeat CPU 0 instructions: 90000003 cycles: 37163550 heartbeat IPC: 2.126 cumulative IPC: 1.896 (Simulation time: 00 hr 06 min 06 sec)
[DUEL] Epoch ended. INSTR misses = 23, DATA misses = 15. Winner = DATA
[DUEL] Epoch ended. INSTR misses = 1, DATA misses = 6. Winner = INSTR
[DUEL] Epoch ended. INSTR misses = 33, DATA misses = 29. Winner = DATA
[DUEL] Epoch ended. INSTR misses = 32, DATA misses = 34. Winner = INSTR
[DUEL] Epoch ended. INSTR misses = 37, DATA misses = 31. Winner = DATA
[DUEL] Epoch ended. INSTR misses = 37, DATA misses = 22. Winner = DATA
[DUEL] Epoch ended. INSTR misses = 45, DATA misses = 54. Winner = INSTR
[DUEL] Epoch ended. INSTR misses = 27, DATA misses = 18. Winner = DATA
[DUEL] Epoch ended. INSTR misses = 43, DATA misses = 46. Winner = INSTR
[DUEL] Epoch ended. INSTR misses = 23, DATA misses = 28. Winner = INSTR
[DUEL] Epoch ended. INSTR misses = 8, DATA misses = 0. Winner = DATA
[DUEL] Epoch ended. INSTR misses = 32, DATA misses = 30. Winner = DATA
[DUEL] Epoch ended. INSTR misses = 26, DATA misses = 18. Winner = DATA
[DUEL] Epoch ended. INSTR misses = 29, DATA misses = 31. Winner = INSTR
[DUEL] Epoch ended. INSTR misses = 43, DATA misses = 36. Winner = DATA
[DUEL] Epoch ended. INSTR misses = 40, DATA misses = 29. Winner = DATA
[DUEL] Epoch ended. INSTR misses = 31, DATA misses = 43. Winner = INSTR
[DUEL] Epoch ended. INSTR misses = 40, DATA misses = 38. Winner = DATA
[DUEL] Epoch ended. INSTR misses = 29, DATA misses = 36. Winner = INSTR
[DUEL] Epoch ended. INSTR misses = 23, DATA misses = 15. Winner = DATA
[DUEL] Epoch ended. INSTR misses = 16, DATA misses = 13. Winner = DATA
[DUEL] Epoch ended. INSTR misses = 20, DATA misses = 17. Winner = DATA
[DUEL] Epoch ended. INSTR misses = 34, DATA misses = 35. Winner = INSTR
[DUEL] Epoch ended. INSTR misses = 35, DATA misses = 31. Winner = DATA
[DUEL] Epoch ended. INSTR misses = 39, DATA misses = 22. Winner = DATA
[DUEL] Epoch ended. INSTR misses = 42, DATA misses = 59. Winner = INSTR
[DUEL] Epoch ended. INSTR misses = 29, DATA misses = 19. Winner = DATA
[DUEL] Epoch ended. INSTR misses = 29, DATA misses = 38. Winner = INSTR
[DUEL] Epoch ended. INSTR misses = 35, DATA misses = 40. Winner = INSTR
[DUEL] Epoch ended. INSTR misses = 23, DATA misses = 15. Winner = DATA
[DUEL] Epoch ended. INSTR misses = 0, DATA misses = 0. Winner = INSTR
[DUEL] Epoch ended. INSTR misses = 36, DATA misses = 32. Winner = DATA
[DUEL] Epoch ended. INSTR misses = 36, DATA misses = 35. Winner = DATA
[DUEL] Epoch ended. INSTR misses = 36, DATA misses = 31. Winner = DATA
[DUEL] Epoch ended. INSTR misses = 31, DATA misses = 17. Winner = DATA
[DUEL] Epoch ended. INSTR misses = 35, DATA misses = 36. Winner = INSTR
[DUEL] Epoch ended. INSTR misses = 59, DATA misses = 65. Winner = INSTR
[DUEL] Epoch ended. INSTR misses = 23, DATA misses = 14. Winner = DATA
[DUEL] Epoch ended. INSTR misses = 25, DATA misses = 25. Winner = INSTR
Heartbeat CPU 0 instructions: 100000003 cycles: 43058540 heartbeat IPC: 1.696 cumulative IPC: 1.864 (Simulation time: 00 hr 06 min 57 sec)
[DUEL] Epoch ended. INSTR misses = 39, DATA misses = 42. Winner = INSTR
[DUEL] Epoch ended. INSTR misses = 32, DATA misses = 31. Winner = DATA
[DUEL] Epoch ended. INSTR misses = 7, DATA misses = 0. Winner = DATA
[DUEL] Epoch ended. INSTR misses = 22, DATA misses = 13. Winner = DATA
*** Reached end of trace: (0, "../traces/secret_traces/compute_fp/compute_fp_94.champsimtrace.xz")
[DUEL] Epoch ended. INSTR misses = 19, DATA misses = 30. Winner = INSTR
[DUEL] Epoch ended. INSTR misses = 9, DATA misses = 4. Winner = DATA
[DUEL] Epoch ended. INSTR misses = 31, DATA misses = 32. Winner = INSTR
[DUEL] Epoch ended. INSTR misses = 67, DATA misses = 66. Winner = DATA
[DUEL] Epoch ended. INSTR misses = 42, DATA misses = 45. Winner = INSTR
[DUEL] Epoch ended. INSTR misses = 34, DATA misses = 27. Winner = DATA
[DUEL] Epoch ended. INSTR misses = 15, DATA misses = 15. Winner = INSTR
[DUEL] Epoch ended. INSTR misses = 42, DATA misses = 18. Winner = DATA
[DUEL] Epoch ended. INSTR misses = 18, DATA misses = 33. Winner = INSTR
[DUEL] Epoch ended. INSTR misses = 42, DATA misses = 31. Winner = DATA
[DUEL] Epoch ended. INSTR misses = 43, DATA misses = 29. Winner = DATA
[DUEL] Epoch ended. INSTR misses = 12, DATA misses = 24. Winner = INSTR
[DUEL] Epoch ended. INSTR misses = 22, DATA misses = 12. Winner = DATA
[DUEL] Epoch ended. INSTR misses = 46, DATA misses = 49. Winner = INSTR
[DUEL] Epoch ended. INSTR misses = 20, DATA misses = 16. Winner = DATA
[DUEL] Epoch ended. INSTR misses = 8, DATA misses = 2. Winner = DATA
[DUEL] Epoch ended. INSTR misses = 35, DATA misses = 29. Winner = DATA
[DUEL] Epoch ended. INSTR misses = 33, DATA misses = 34. Winner = INSTR
[DUEL] Epoch ended. INSTR misses = 37, DATA misses = 31. Winner = DATA
[DUEL] Epoch ended. INSTR misses = 35, DATA misses = 23. Winner = DATA
[DUEL] Epoch ended. INSTR misses = 16, DATA misses = 26. Winner = INSTR
[DUEL] Epoch ended. INSTR misses = 13, DATA misses = 15. Winner = INSTR
[DUEL] Epoch ended. INSTR misses = 23, DATA misses = 29. Winner = INSTR
[DUEL] Epoch ended. INSTR misses = 22, DATA misses = 15. Winner = DATA
[DUEL] Epoch ended. INSTR misses = 16, DATA misses = 13. Winner = DATA
[DUEL] Epoch ended. INSTR misses = 33, DATA misses = 33. Winner = INSTR
[DUEL] Epoch ended. INSTR misses = 33, DATA misses = 31. Winner = DATA
[DUEL] Epoch ended. INSTR misses = 39, DATA misses = 20. Winner = DATA
[DUEL] Epoch ended. INSTR misses = 35, DATA misses = 30. Winner = DATA
[DUEL] Epoch ended. INSTR misses = 13, DATA misses = 26. Winner = INSTR
[DUEL] Epoch ended. INSTR misses = 25, DATA misses = 29. Winner = INSTR
[DUEL] Epoch ended. INSTR misses = 17, DATA misses = 18. Winner = INSTR
[DUEL] Epoch ended. INSTR misses = 0, DATA misses = 0. Winner = INSTR
[DUEL] Epoch ended. INSTR misses = 0, DATA misses = 0. Winner = INSTR
Heartbeat CPU 0 instructions: 110000009 cycles: 49023684 heartbeat IPC: 1.676 cumulative IPC: 1.839 (Simulation time: 00 hr 07 min 47 sec)
[DUEL] Epoch ended. INSTR misses = 0, DATA misses = 0. Winner = INSTR
[DUEL] Epoch ended. INSTR misses = 17, DATA misses = 15. Winner = DATA
[DUEL] Epoch ended. INSTR misses = 6, DATA misses = 1. Winner = DATA
[DUEL] Epoch ended. INSTR misses = 32, DATA misses = 31. Winner = DATA
[DUEL] Epoch ended. INSTR misses = 26, DATA misses = 24. Winner = DATA
[DUEL] Epoch ended. INSTR misses = 40, DATA misses = 31. Winner = DATA
[DUEL] Epoch ended. INSTR misses = 41, DATA misses = 27. Winner = DATA
[DUEL] Epoch ended. INSTR misses = 20, DATA misses = 42. Winner = INSTR
[DUEL] Epoch ended. INSTR misses = 18, DATA misses = 18. Winner = INSTR
[DUEL] Epoch ended. INSTR misses = 22, DATA misses = 41. Winner = INSTR
[DUEL] Epoch ended. INSTR misses = 22, DATA misses = 18. Winner = DATA
[DUEL] Epoch ended. INSTR misses = 5, DATA misses = 0. Winner = DATA
[DUEL] Epoch ended. INSTR misses = 33, DATA misses = 29. Winner = DATA
[DUEL] Epoch ended. INSTR misses = 32, DATA misses = 32. Winner = INSTR
[DUEL] Epoch ended. INSTR misses = 37, DATA misses = 31. Winner = DATA
[DUEL] Epoch ended. INSTR misses = 29, DATA misses = 10. Winner = DATA
[DUEL] Epoch ended. INSTR misses = 32, DATA misses = 49. Winner = INSTR
[DUEL] Epoch ended. INSTR misses = 16, DATA misses = 23. Winner = INSTR
[DUEL] Epoch ended. INSTR misses = 24, DATA misses = 31. Winner = INSTR
[DUEL] Epoch ended. INSTR misses = 21, DATA misses = 25. Winner = INSTR
[DUEL] Epoch ended. INSTR misses = 22, DATA misses = 15. Winner = DATA
[DUEL] Epoch ended. INSTR misses = 17, DATA misses = 15. Winner = DATA
[DUEL] Epoch ended. INSTR misses = 34, DATA misses = 25. Winner = DATA
[DUEL] Epoch ended. INSTR misses = 16, DATA misses = 23. Winner = INSTR
[DUEL] Epoch ended. INSTR misses = 44, DATA misses = 31. Winner = DATA
[DUEL] Epoch ended. INSTR misses = 27, DATA misses = 24. Winner = DATA
[DUEL] Epoch ended. INSTR misses = 44, DATA misses = 41. Winner = DATA
[DUEL] Epoch ended. INSTR misses = 38, DATA misses = 50. Winner = INSTR
[DUEL] Epoch ended. INSTR misses = 17, DATA misses = 34. Winner = INSTR
[DUEL] Epoch ended. INSTR misses = 35, DATA misses = 35. Winner = INSTR
[DUEL] Epoch ended. INSTR misses = 25, DATA misses = 20. Winner = DATA
[DUEL] Epoch ended. INSTR misses = 6, DATA misses = 0. Winner = DATA
[DUEL] Epoch ended. INSTR misses = 33, DATA misses = 29. Winner = DATA
[DUEL] Epoch ended. INSTR misses = 17, DATA misses = 16. Winner = DATA
[DUEL] Epoch ended. INSTR misses = 37, DATA misses = 31. Winner = DATA
[DUEL] Epoch ended. INSTR misses = 41, DATA misses = 26. Winner = DATA
[DUEL] Epoch ended. INSTR misses = 26, DATA misses = 22. Winner = DATA
[DUEL] Epoch ended. INSTR misses = 64, DATA misses = 57. Winner = DATA
[DUEL] Epoch ended. INSTR misses = 16, DATA misses = 34. Winner = INSTR
Heartbeat CPU 0 instructions: 120000004 cycles: 54210998 heartbeat IPC: 1.928 cumulative IPC: 1.848 (Simulation time: 00 hr 08 min 34 sec)
[DUEL] Epoch ended. INSTR misses = 20, DATA misses = 23. Winner = INSTR
[DUEL] Epoch ended. INSTR misses = 34, DATA misses = 38. Winner = INSTR
[DUEL] Epoch ended. INSTR misses = 25, DATA misses = 20. Winner = DATA
[DUEL] Epoch ended. INSTR misses = 6, DATA misses = 0. Winner = DATA
[DUEL] Epoch ended. INSTR misses = 33, DATA misses = 29. Winner = DATA
[DUEL] Epoch ended. INSTR misses = 17, DATA misses = 16. Winner = DATA
[DUEL] Epoch ended. INSTR misses = 37, DATA misses = 31. Winner = DATA
[DUEL] Epoch ended. INSTR misses = 42, DATA misses = 26. Winner = DATA
[DUEL] Epoch ended. INSTR misses = 19, DATA misses = 16. Winner = DATA
[DUEL] Epoch ended. INSTR misses = 44, DATA misses = 43. Winner = DATA
[DUEL] Epoch ended. INSTR misses = 27, DATA misses = 41. Winner = INSTR
[DUEL] Epoch ended. INSTR misses = 20, DATA misses = 29. Winner = INSTR
[DUEL] Epoch ended. INSTR misses = 34, DATA misses = 38. Winner = INSTR
[DUEL] Epoch ended. INSTR misses = 24, DATA misses = 20. Winner = DATA
[DUEL] Epoch ended. INSTR misses = 6, DATA misses = 0. Winner = DATA
[DUEL] Epoch ended. INSTR misses = 34, DATA misses = 29. Winner = DATA
[DUEL] Epoch ended. INSTR misses = 16, DATA misses = 16. Winner = INSTR
[DUEL] Epoch ended. INSTR misses = 37, DATA misses = 31. Winner = DATA
[DUEL] Epoch ended. INSTR misses = 33, DATA misses = 23. Winner = DATA
[DUEL] Epoch ended. INSTR misses = 20, DATA misses = 16. Winner = DATA
[DUEL] Epoch ended. INSTR misses = 56, DATA misses = 60. Winner = INSTR
[DUEL] Epoch ended. INSTR misses = 18, DATA misses = 32. Winner = INSTR
[DUEL] Epoch ended. INSTR misses = 24, DATA misses = 24. Winner = INSTR
[DUEL] Epoch ended. INSTR misses = 22, DATA misses = 26. Winner = INSTR
[DUEL] Epoch ended. INSTR misses = 21, DATA misses = 16. Winner = DATA
[DUEL] Epoch ended. INSTR misses = 5, DATA misses = 0. Winner = DATA
[DUEL] Epoch ended. INSTR misses = 33, DATA misses = 29. Winner = DATA
[DUEL] Epoch ended. INSTR misses = 33, DATA misses = 32. Winner = DATA
[DUEL] Epoch ended. INSTR misses = 21, DATA misses = 15. Winner = DATA
[DUEL] Epoch ended. INSTR misses = 32, DATA misses = 32. Winner = INSTR
[DUEL] Epoch ended. INSTR misses = 24, DATA misses = 20. Winner = DATA
[DUEL] Epoch ended. INSTR misses = 41, DATA misses = 47. Winner = INSTR
[DUEL] Epoch ended. INSTR misses = 49, DATA misses = 52. Winner = INSTR
[DUEL] Epoch ended. INSTR misses = 10, DATA misses = 25. Winner = INSTR
[DUEL] Epoch ended. INSTR misses = 36, DATA misses = 33. Winner = DATA
[DUEL] Epoch ended. INSTR misses = 15, DATA misses = 13. Winner = DATA
[DUEL] Epoch ended. INSTR misses = 22, DATA misses = 15. Winner = DATA
[DUEL] Epoch ended. INSTR misses = 18, DATA misses = 14. Winner = DATA
[DUEL] Epoch ended. INSTR misses = 38, DATA misses = 27. Winner = DATA
Heartbeat CPU 0 instructions: 130000002 cycles: 59805860 heartbeat IPC: 1.787 cumulative IPC: 1.842 (Simulation time: 00 hr 09 min 23 sec)
Simulation finished CPU 0 instructions: 100000001 cycles: 54290971 cumulative IPC: 1.842 (Simulation time: 00 hr 09 min 23 sec)
Simulation complete CPU 0 instructions: 100000001 cycles: 54290971 cumulative IPC: 1.842 (Simulation time: 00 hr 09 min 23 sec)

ChampSim completed all CPUs

=== Simulation ===
CPU 0 runs ../traces/secret_traces/compute_fp/compute_fp_94.champsimtrace.xz
Region of Interest Statistics

CPU 0 cumulative IPC: 1.842 instructions: 100000001 cycles: 54290971
CPU 0 Branch Prediction Accuracy: 97.73% MPKI: 2.837 Average ROB Occupancy at Mispredict: 93.49
Branch type MPKI
BRANCH_DIRECT_JUMP: 0.0115
BRANCH_INDIRECT: 1.65
BRANCH_CONDITIONAL: 1.14
BRANCH_DIRECT_CALL: 0.0223
BRANCH_INDIRECT_CALL: 0.00306
BRANCH_RETURN: 0.0121

LLC TOTAL        ACCESS:    3078919 HIT:    1352922 MISS:    1725997
LLC LOAD         ACCESS:     626462 HIT:     204056 MISS:     422406
LLC RFO          ACCESS:     167869 HIT:     133874 MISS:      33995
LLC PREFETCH     ACCESS:    2006730 HIT:     810387 MISS:    1196343
LLC WRITE        ACCESS:     249676 HIT:     195477 MISS:      54199
LLC TRANSLATION  ACCESS:      28182 HIT:       9128 MISS:      19054
LLC PREFETCH REQUESTED:          0 ISSUED:          0 USEFUL:          0 USELESS:          0
LLC AVERAGE MISS LATENCY: 208.8 cycles
cpu0_DTLB TOTAL        ACCESS:   20733080 HIT:   20222769 MISS:     510311
cpu0_DTLB LOAD         ACCESS:   20733080 HIT:   20222769 MISS:     510311
cpu0_DTLB RFO          ACCESS:          0 HIT:          0 MISS:          0
cpu0_DTLB PREFETCH     ACCESS:          0 HIT:          0 MISS:          0
cpu0_DTLB WRITE        ACCESS:          0 HIT:          0 MISS:          0
cpu0_DTLB TRANSLATION  ACCESS:          0 HIT:          0 MISS:          0
cpu0_DTLB PREFETCH REQUESTED:          0 ISSUED:          0 USEFUL:          0 USELESS:          0
cpu0_DTLB AVERAGE MISS LATENCY: 11.98 cycles
cpu0_ITLB TOTAL        ACCESS:     208096 HIT:     206478 MISS:       1618
cpu0_ITLB LOAD         ACCESS:     208096 HIT:     206478 MISS:       1618
cpu0_ITLB RFO          ACCESS:          0 HIT:          0 MISS:          0
cpu0_ITLB PREFETCH     ACCESS:          0 HIT:          0 MISS:          0
cpu0_ITLB WRITE        ACCESS:          0 HIT:          0 MISS:          0
cpu0_ITLB TRANSLATION  ACCESS:          0 HIT:          0 MISS:          0
cpu0_ITLB PREFETCH REQUESTED:          0 ISSUED:          0 USEFUL:          0 USELESS:          0
cpu0_ITLB AVERAGE MISS LATENCY: 56.61 cycles
cpu0_L1D TOTAL        ACCESS:   39996068 HIT:   32233525 MISS:    7762543
cpu0_L1D LOAD         ACCESS:   19363197 HIT:   15372053 MISS:    3991144
cpu0_L1D RFO          ACCESS:          0 HIT:          0 MISS:          0
cpu0_L1D PREFETCH     ACCESS:   16555616 HIT:   13317330 MISS:    3238286
cpu0_L1D WRITE        ACCESS:    3971916 HIT:    3511914 MISS:     460002
cpu0_L1D TRANSLATION  ACCESS:     105339 HIT:      32228 MISS:      73111
cpu0_L1D PREFETCH REQUESTED:   71542556 ISSUED:   16555623 USEFUL:    1145589 USELESS:      34445
cpu0_L1D AVERAGE MISS LATENCY: 26.75 cycles
cpu0_L1I TOTAL        ACCESS:     305745 HIT:     264441 MISS:      41304
cpu0_L1I LOAD         ACCESS:     111919 HIT:     100663 MISS:      11256
cpu0_L1I RFO          ACCESS:          0 HIT:          0 MISS:          0
cpu0_L1I PREFETCH     ACCESS:     193826 HIT:     163778 MISS:      30048
cpu0_L1I WRITE        ACCESS:          0 HIT:          0 MISS:          0
cpu0_L1I TRANSLATION  ACCESS:          0 HIT:          0 MISS:          0
cpu0_L1I PREFETCH REQUESTED:     295987 ISSUED:     193826 USEFUL:      17452 USELESS:      10153
cpu0_L1I AVERAGE MISS LATENCY: 108.1 cycles
cpu0_L2C TOTAL        ACCESS:    9913939 HIT:    4991312 MISS:    4922627
cpu0_L2C LOAD         ACCESS:    1698880 HIT:     950679 MISS:     748201
cpu0_L2C RFO          ACCESS:     219458 HIT:      51525 MISS:     167933
cpu0_L2C PREFETCH     ACCESS:    7605948 HIT:    3627953 MISS:    3977995
cpu0_L2C WRITE        ACCESS:     317282 HIT:     316966 MISS:        316
cpu0_L2C TRANSLATION  ACCESS:      72371 HIT:      44189 MISS:      28182
cpu0_L2C PREFETCH REQUESTED:    4723730 ISSUED:    4583745 USEFUL:     767977 USELESS:     507267
cpu0_L2C AVERAGE MISS LATENCY: 83.12 cycles
cpu0_STLB TOTAL        ACCESS:     177271 HIT:      72256 MISS:     105015
cpu0_STLB LOAD         ACCESS:     177271 HIT:      72256 MISS:     105015
cpu0_STLB RFO          ACCESS:          0 HIT:          0 MISS:          0
cpu0_STLB PREFETCH     ACCESS:          0 HIT:          0 MISS:          0
cpu0_STLB WRITE        ACCESS:          0 HIT:          0 MISS:          0
cpu0_STLB TRANSLATION  ACCESS:          0 HIT:          0 MISS:          0
cpu0_STLB PREFETCH REQUESTED:          0 ISSUED:          0 USEFUL:          0 USELESS:          0
cpu0_STLB AVERAGE MISS LATENCY: 65.89 cycles

DRAM Statistics

Channel 0 RQ ROW_BUFFER_HIT:     549268
  ROW_BUFFER_MISS:     291324
 AVG DBUS CONGESTED CYCLE: 3.911
WQ ROW_BUFFER_HIT: Channel 0 
  ROW_BUFFER_MISS:       5263
  FULL:      25562

Channel 1 RQ ROW_BUFFER_HIT:     541605
  ROW_BUFFER_MISS:     289017
 AVG DBUS CONGESTED CYCLE: 3.906
WQ ROW_BUFFER_HIT: Channel 1 
  ROW_BUFFER_MISS:       5402
  FULL:      25059
BERTI TO_L1: 68344478 TO_L2: 27945363 TO_L2_BC_MSHR: 4582985
BERTI AVG_LAT: 74.369 NUM_TRACK_LATENCY: 3740364 NUM_CANT_TRACK_LATENCY: 0
BERTI CROSS_PAGE 20716175 NO_CROSS_PAGE: 75573666
BERTI FOUND_BERTI: 15886090 NO_FOUND_BERTI: 9966149
BERTI AVERAGE_ISSUED: 3.66587
CPU 0 L1I Entangling prefetcher final stats
IP accesses: 6d 1b40 1743 / 130318
IP misses: 44de 113780 572 / 29655
IP hits: 0 0 0 / 0
IP late: 5aed 16bb40 16 / 6014
IP wrong: 5aef 16bbc0 25 / 10102
miss rate: 0.227559
coverage: 0
coverage_late: 0.202799
accuracy: 0
accuracy_late: 0.37317
discarded: 0
evicts entangled j table: 0
evicts entangled k table: 1680
max bb size: 65
formats: 420 0 1362 740 370 770 0 
hist_lookups: 1244 1279 1007 840 783 671 515 433 381 324 264 157 112 61 30 0 6 3471 
hist_lookups_evict: 0.0518225 %
hist_lookups_shortlat: 29.9793 %
bb_found_hist: 0 22636 8632 4408 3107 1381 1775 204 356 225 23 21 15 46 3 0 17 0 40 0 0 0 0 0 0 0 0 0 0 0 0 0 0 0 0 0 0 0 0 0 0 0 0 0 0 0 0 0 0 0 0 0 0 0 0 0 0 0 0 0 0 0 0 0 
bb_found_summary: 91681 42889 2.13764
entangled_found_hist: 0 11272 11483 11921 2707 985 224 0 
entangled_found_summary: 87098 38592 2.2569
bb_ent_found_hist: 0 29777 13200 7118 5291 3731 685 471 409 337 66 3 12 389 0 0 0 0 34 0 0 0 0 0 0 0 0 0 0 0 0 0 0 0 0 0 0 0 0 0 0 0 0 0 0 0 0 0 0 0 0 0 0 0 0 0 0 0 0 0 0 0 0 0 
bb_ent_found_summary: 137568 61523 2.23605
