WARNING: physical memory size is smaller than virtual memory size.

*** ChampSim Multicore Out-of-Order Simulator ***
Warmup Instructions: 30000000
Simulation Instructions: 100000000
Number of CPUs: 1
Page size: 4096

BTB:
Basic BTB sets: 1024 ways: 8
Indirect:
history lengths: 0 0 10 16 27 44 60 96 109 219 449 487 714 1313 2146 3881 
ITTAGE tables: 64768 bytes;Region table: 240 bytes;IUM: 384 bytes;Total Storage= 65392 bytes;
RAS:
RAS size: 64
[LLC] INSTR Demand IPV: 1 2 2 1 4 Prefetch IPV: 1 2 1 1 4
[LLC] DATA  Demand IPV: 1 1 1 2 4 Prefetch IPV: 1 1 2 2 4
Berti Prefetcher
CPU 0 Entangling prefetcher
Off-chip DRAM Size: 8 GiB Channels: 2 Width: 64-bit Data Race: 6400 MT/s
[DUEL] Epoch ended. INSTR misses = 14, DATA misses = 16. Winner = INSTR
[DUEL] Epoch ended. INSTR misses = 113, DATA misses = 114. Winner = INSTR
[DUEL] Epoch ended. INSTR misses = 23, DATA misses = 33. Winner = INSTR
[DUEL] Epoch ended. INSTR misses = 14, DATA misses = 31. Winner = INSTR
[DUEL] Epoch ended. INSTR misses = 0, DATA misses = 0. Winner = INSTR
[DUEL] Epoch ended. INSTR misses = 0, DATA misses = 0. Winner = INSTR
[DUEL] Epoch ended. INSTR misses = 0, DATA misses = 0. Winner = INSTR
[DUEL] Epoch ended. INSTR misses = 0, DATA misses = 0. Winner = INSTR
[DUEL] Epoch ended. INSTR misses = 0, DATA misses = 0. Winner = INSTR
[DUEL] Epoch ended. INSTR misses = 0, DATA misses = 0. Winner = INSTR
[DUEL] Epoch ended. INSTR misses = 0, DATA misses = 0. Winner = INSTR
[DUEL] Epoch ended. INSTR misses = 0, DATA misses = 0. Winner = INSTR
[DUEL] Epoch ended. INSTR misses = 0, DATA misses = 0. Winner = INSTR
[DUEL] Epoch ended. INSTR misses = 0, DATA misses = 0. Winner = INSTR
[DUEL] Epoch ended. INSTR misses = 0, DATA misses = 0. Winner = INSTR
[DUEL] Epoch ended. INSTR misses = 0, DATA misses = 0. Winner = INSTR
[DUEL] Epoch ended. INSTR misses = 16, DATA misses = 17. Winner = INSTR
[DUEL] Epoch ended. INSTR misses = 0, DATA misses = 0. Winner = INSTR
[DUEL] Epoch ended. INSTR misses = 0, DATA misses = 0. Winner = INSTR
[DUEL] Epoch ended. INSTR misses = 0, DATA misses = 0. Winner = INSTR
[DUEL] Epoch ended. INSTR misses = 0, DATA misses = 0. Winner = INSTR
[DUEL] Epoch ended. INSTR misses = 0, DATA misses = 0. Winner = INSTR
[DUEL] Epoch ended. INSTR misses = 0, DATA misses = 0. Winner = INSTR
[DUEL] Epoch ended. INSTR misses = 19, DATA misses = 19. Winner = INSTR
[DUEL] Epoch ended. INSTR misses = 47, DATA misses = 35. Winner = DATA
[DUEL] Epoch ended. INSTR misses = 0, DATA misses = 0. Winner = INSTR
[DUEL] Epoch ended. INSTR misses = 5, DATA misses = 3. Winner = DATA
[DUEL] Epoch ended. INSTR misses = 0, DATA misses = 0. Winner = INSTR
[DUEL] Epoch ended. INSTR misses = 0, DATA misses = 0. Winner = INSTR
Heartbeat CPU 0 instructions: 10000005 cycles: 1761081 heartbeat IPC: 5.678 cumulative IPC: 5.678 (Simulation time: 00 hr 00 min 21 sec)
[DUEL] Epoch ended. INSTR misses = 0, DATA misses = 0. Winner = INSTR
[DUEL] Epoch ended. INSTR misses = 0, DATA misses = 0. Winner = INSTR
[DUEL] Epoch ended. INSTR misses = 0, DATA misses = 0. Winner = INSTR
[DUEL] Epoch ended. INSTR misses = 0, DATA misses = 0. Winner = INSTR
[DUEL] Epoch ended. INSTR misses = 3, DATA misses = 4. Winner = INSTR
[DUEL] Epoch ended. INSTR misses = 40, DATA misses = 37. Winner = DATA
[DUEL] Epoch ended. INSTR misses = 0, DATA misses = 0. Winner = INSTR
[DUEL] Epoch ended. INSTR misses = 0, DATA misses = 0. Winner = INSTR
[DUEL] Epoch ended. INSTR misses = 0, DATA misses = 0. Winner = INSTR
[DUEL] Epoch ended. INSTR misses = 0, DATA misses = 0. Winner = INSTR
[DUEL] Epoch ended. INSTR misses = 0, DATA misses = 0. Winner = INSTR
[DUEL] Epoch ended. INSTR misses = 0, DATA misses = 0. Winner = INSTR
[DUEL] Epoch ended. INSTR misses = 0, DATA misses = 0. Winner = INSTR
[DUEL] Epoch ended. INSTR misses = 0, DATA misses = 0. Winner = INSTR
[DUEL] Epoch ended. INSTR misses = 12, DATA misses = 4. Winner = DATA
[DUEL] Epoch ended. INSTR misses = 0, DATA misses = 3. Winner = INSTR
[DUEL] Epoch ended. INSTR misses = 0, DATA misses = 0. Winner = INSTR
[DUEL] Epoch ended. INSTR misses = 0, DATA misses = 0. Winner = INSTR
Heartbeat CPU 0 instructions: 20000001 cycles: 3456227 heartbeat IPC: 5.899 cumulative IPC: 5.787 (Simulation time: 00 hr 00 min 42 sec)
[DUEL] Epoch ended. INSTR misses = 0, DATA misses = 0. Winner = INSTR
[DUEL] Epoch ended. INSTR misses = 0, DATA misses = 0. Winner = INSTR
[DUEL] Epoch ended. INSTR misses = 0, DATA misses = 0. Winner = INSTR
[DUEL] Epoch ended. INSTR misses = 0, DATA misses = 0. Winner = INSTR
[DUEL] Epoch ended. INSTR misses = 0, DATA misses = 0. Winner = INSTR
[DUEL] Epoch ended. INSTR misses = 0, DATA misses = 0. Winner = INSTR
[DUEL] Epoch ended. INSTR misses = 20, DATA misses = 21. Winner = INSTR
[DUEL] Epoch ended. INSTR misses = 55, DATA misses = 51. Winner = DATA
[DUEL] Epoch ended. INSTR misses = 0, DATA misses = 0. Winner = INSTR
[DUEL] Epoch ended. INSTR misses = 0, DATA misses = 0. Winner = INSTR
[DUEL] Epoch ended. INSTR misses = 0, DATA misses = 0. Winner = INSTR
[DUEL] Epoch ended. INSTR misses = 0, DATA misses = 0. Winner = INSTR
[DUEL] Epoch ended. INSTR misses = 0, DATA misses = 0. Winner = INSTR
[DUEL] Epoch ended. INSTR misses = 0, DATA misses = 0. Winner = INSTR
[DUEL] Epoch ended. INSTR misses = 0, DATA misses = 0. Winner = INSTR
[DUEL] Epoch ended. INSTR misses = 0, DATA misses = 0. Winner = INSTR
Heartbeat CPU 0 instructions: 30000002 cycles: 5129591 heartbeat IPC: 5.976 cumulative IPC: 5.848 (Simulation time: 00 hr 01 min 03 sec)
Warmup finished CPU 0 instructions: 30000002 cycles: 5129592 cumulative IPC: 5.848 (Simulation time: 00 hr 01 min 03 sec)
Warmup complete CPU 0 instructions: 30000002 cycles: 5129592 cumulative IPC: 5.848 (Simulation time: 00 hr 01 min 03 sec)
[DUEL] Epoch ended. INSTR misses = 2, DATA misses = 7. Winner = INSTR
[DUEL] Epoch ended. INSTR misses = 5, DATA misses = 3. Winner = DATA
[DUEL] Epoch ended. INSTR misses = 53, DATA misses = 41. Winner = DATA
[DUEL] Epoch ended. INSTR misses = 139, DATA misses = 110. Winner = DATA
[DUEL] Epoch ended. INSTR misses = 125, DATA misses = 80. Winner = DATA
[DUEL] Epoch ended. INSTR misses = 92, DATA misses = 91. Winner = DATA
[DUEL] Epoch ended. INSTR misses = 108, DATA misses = 95. Winner = DATA
[DUEL] Epoch ended. INSTR misses = 102, DATA misses = 85. Winner = DATA
[DUEL] Epoch ended. INSTR misses = 87, DATA misses = 85. Winner = DATA
[DUEL] Epoch ended. INSTR misses = 113, DATA misses = 96. Winner = DATA
[DUEL] Epoch ended. INSTR misses = 106, DATA misses = 84. Winner = DATA
[DUEL] Epoch ended. INSTR misses = 102, DATA misses = 80. Winner = DATA
[DUEL] Epoch ended. INSTR misses = 102, DATA misses = 91. Winner = DATA
[DUEL] Epoch ended. INSTR misses = 98, DATA misses = 71. Winner = DATA
[DUEL] Epoch ended. INSTR misses = 95, DATA misses = 97. Winner = INSTR
[DUEL] Epoch ended. INSTR misses = 100, DATA misses = 94. Winner = DATA
[DUEL] Epoch ended. INSTR misses = 101, DATA misses = 99. Winner = DATA
[DUEL] Epoch ended. INSTR misses = 121, DATA misses = 105. Winner = DATA
[DUEL] Epoch ended. INSTR misses = 105, DATA misses = 80. Winner = DATA
[DUEL] Epoch ended. INSTR misses = 103, DATA misses = 61. Winner = DATA
[DUEL] Epoch ended. INSTR misses = 109, DATA misses = 82. Winner = DATA
[DUEL] Epoch ended. INSTR misses = 112, DATA misses = 78. Winner = DATA
[DUEL] Epoch ended. INSTR misses = 104, DATA misses = 70. Winner = DATA
[DUEL] Epoch ended. INSTR misses = 91, DATA misses = 87. Winner = DATA
[DUEL] Epoch ended. INSTR misses = 107, DATA misses = 84. Winner = DATA
[DUEL] Epoch ended. INSTR misses = 99, DATA misses = 68. Winner = DATA
[DUEL] Epoch ended. INSTR misses = 70, DATA misses = 90. Winner = INSTR
[DUEL] Epoch ended. INSTR misses = 84, DATA misses = 87. Winner = INSTR
[DUEL] Epoch ended. INSTR misses = 108, DATA misses = 74. Winner = DATA
[DUEL] Epoch ended. INSTR misses = 95, DATA misses = 85. Winner = DATA
[DUEL] Epoch ended. INSTR misses = 84, DATA misses = 78. Winner = DATA
[DUEL] Epoch ended. INSTR misses = 89, DATA misses = 97. Winner = INSTR
[DUEL] Epoch ended. INSTR misses = 43, DATA misses = 32. Winner = DATA
[DUEL] Epoch ended. INSTR misses = 10, DATA misses = 9. Winner = DATA
[DUEL] Epoch ended. INSTR misses = 13, DATA misses = 13. Winner = INSTR
[DUEL] Epoch ended. INSTR misses = 21, DATA misses = 21. Winner = INSTR
[DUEL] Epoch ended. INSTR misses = 10, DATA misses = 17. Winner = INSTR
Heartbeat CPU 0 instructions: 40000006 cycles: 22007334 heartbeat IPC: 0.5925 cumulative IPC: 0.5925 (Simulation time: 00 hr 03 min 31 sec)
[DUEL] Epoch ended. INSTR misses = 10, DATA misses = 15. Winner = INSTR
[DUEL] Epoch ended. INSTR misses = 13, DATA misses = 15. Winner = INSTR
[DUEL] Epoch ended. INSTR misses = 7, DATA misses = 13. Winner = INSTR
[DUEL] Epoch ended. INSTR misses = 11, DATA misses = 15. Winner = INSTR
[DUEL] Epoch ended. INSTR misses = 9, DATA misses = 20. Winner = INSTR
[DUEL] Epoch ended. INSTR misses = 13, DATA misses = 17. Winner = INSTR
[DUEL] Epoch ended. INSTR misses = 5, DATA misses = 14. Winner = INSTR
[DUEL] Epoch ended. INSTR misses = 9, DATA misses = 14. Winner = INSTR
[DUEL] Epoch ended. INSTR misses = 9, DATA misses = 10. Winner = INSTR
[DUEL] Epoch ended. INSTR misses = 25, DATA misses = 30. Winner = INSTR
[DUEL] Epoch ended. INSTR misses = 10, DATA misses = 13. Winner = INSTR
[DUEL] Epoch ended. INSTR misses = 10, DATA misses = 17. Winner = INSTR
[DUEL] Epoch ended. INSTR misses = 8, DATA misses = 16. Winner = INSTR
[DUEL] Epoch ended. INSTR misses = 6, DATA misses = 14. Winner = INSTR
[DUEL] Epoch ended. INSTR misses = 13, DATA misses = 11. Winner = DATA
[DUEL] Epoch ended. INSTR misses = 15, DATA misses = 12. Winner = DATA
[DUEL] Epoch ended. INSTR misses = 10, DATA misses = 13. Winner = INSTR
[DUEL] Epoch ended. INSTR misses = 14, DATA misses = 12. Winner = DATA
[DUEL] Epoch ended. INSTR misses = 12, DATA misses = 13. Winner = INSTR
[DUEL] Epoch ended. INSTR misses = 10, DATA misses = 9. Winner = DATA
[DUEL] Epoch ended. INSTR misses = 13, DATA misses = 10. Winner = DATA
[DUEL] Epoch ended. INSTR misses = 13, DATA misses = 10. Winner = DATA
[DUEL] Epoch ended. INSTR misses = 13, DATA misses = 9. Winner = DATA
[DUEL] Epoch ended. INSTR misses = 30, DATA misses = 12. Winner = DATA
[DUEL] Epoch ended. INSTR misses = 10, DATA misses = 7. Winner = DATA
[DUEL] Epoch ended. INSTR misses = 9, DATA misses = 6. Winner = DATA
[DUEL] Epoch ended. INSTR misses = 6, DATA misses = 9. Winner = INSTR
[DUEL] Epoch ended. INSTR misses = 6, DATA misses = 12. Winner = INSTR
[DUEL] Epoch ended. INSTR misses = 5, DATA misses = 14. Winner = INSTR
[DUEL] Epoch ended. INSTR misses = 2, DATA misses = 11. Winner = INSTR
[DUEL] Epoch ended. INSTR misses = 3, DATA misses = 15. Winner = INSTR
[DUEL] Epoch ended. INSTR misses = 3, DATA misses = 15. Winner = INSTR
[DUEL] Epoch ended. INSTR misses = 9, DATA misses = 11. Winner = INSTR
[DUEL] Epoch ended. INSTR misses = 10, DATA misses = 10. Winner = INSTR
[DUEL] Epoch ended. INSTR misses = 9, DATA misses = 12. Winner = INSTR
[DUEL] Epoch ended. INSTR misses = 9, DATA misses = 9. Winner = INSTR
[DUEL] Epoch ended. INSTR misses = 14, DATA misses = 11. Winner = DATA
[DUEL] Epoch ended. INSTR misses = 9, DATA misses = 9. Winner = INSTR
[DUEL] Epoch ended. INSTR misses = 14, DATA misses = 6. Winner = DATA
Heartbeat CPU 0 instructions: 50000001 cycles: 25808957 heartbeat IPC: 2.63 cumulative IPC: 0.9671 (Simulation time: 00 hr 04 min 24 sec)
[DUEL] Epoch ended. INSTR misses = 21, DATA misses = 8. Winner = DATA
[DUEL] Epoch ended. INSTR misses = 25, DATA misses = 25. Winner = INSTR
[DUEL] Epoch ended. INSTR misses = 13, DATA misses = 8. Winner = DATA
[DUEL] Epoch ended. INSTR misses = 9, DATA misses = 10. Winner = INSTR
[DUEL] Epoch ended. INSTR misses = 12, DATA misses = 7. Winner = DATA
[DUEL] Epoch ended. INSTR misses = 14, DATA misses = 7. Winner = DATA
[DUEL] Epoch ended. INSTR misses = 10, DATA misses = 8. Winner = DATA
[DUEL] Epoch ended. INSTR misses = 12, DATA misses = 4. Winner = DATA
[DUEL] Epoch ended. INSTR misses = 14, DATA misses = 8. Winner = DATA
[DUEL] Epoch ended. INSTR misses = 10, DATA misses = 9. Winner = DATA
[DUEL] Epoch ended. INSTR misses = 12, DATA misses = 6. Winner = DATA
[DUEL] Epoch ended. INSTR misses = 11, DATA misses = 8. Winner = DATA
[DUEL] Epoch ended. INSTR misses = 10, DATA misses = 8. Winner = DATA
[DUEL] Epoch ended. INSTR misses = 9, DATA misses = 8. Winner = DATA
[DUEL] Epoch ended. INSTR misses = 10, DATA misses = 15. Winner = INSTR
[DUEL] Epoch ended. INSTR misses = 8, DATA misses = 8. Winner = INSTR
[DUEL] Epoch ended. INSTR misses = 8, DATA misses = 9. Winner = INSTR
[DUEL] Epoch ended. INSTR misses = 8, DATA misses = 15. Winner = INSTR
[DUEL] Epoch ended. INSTR misses = 78, DATA misses = 44. Winner = DATA
[DUEL] Epoch ended. INSTR misses = 108, DATA misses = 71. Winner = DATA
[DUEL] Epoch ended. INSTR misses = 110, DATA misses = 87. Winner = DATA
[DUEL] Epoch ended. INSTR misses = 96, DATA misses = 92. Winner = DATA
[DUEL] Epoch ended. INSTR misses = 101, DATA misses = 78. Winner = DATA
[DUEL] Epoch ended. INSTR misses = 100, DATA misses = 81. Winner = DATA
[DUEL] Epoch ended. INSTR misses = 110, DATA misses = 102. Winner = DATA
[DUEL] Epoch ended. INSTR misses = 111, DATA misses = 82. Winner = DATA
[DUEL] Epoch ended. INSTR misses = 104, DATA misses = 84. Winner = DATA
[DUEL] Epoch ended. INSTR misses = 101, DATA misses = 96. Winner = DATA
[DUEL] Epoch ended. INSTR misses = 109, DATA misses = 67. Winner = DATA
[DUEL] Epoch ended. INSTR misses = 86, DATA misses = 103. Winner = INSTR
[DUEL] Epoch ended. INSTR misses = 112, DATA misses = 92. Winner = DATA
[DUEL] Epoch ended. INSTR misses = 121, DATA misses = 94. Winner = DATA
[DUEL] Epoch ended. INSTR misses = 124, DATA misses = 111. Winner = DATA
[DUEL] Epoch ended. INSTR misses = 118, DATA misses = 72. Winner = DATA
[DUEL] Epoch ended. INSTR misses = 116, DATA misses = 77. Winner = DATA
[DUEL] Epoch ended. INSTR misses = 119, DATA misses = 73. Winner = DATA
[DUEL] Epoch ended. INSTR misses = 111, DATA misses = 83. Winner = DATA
[DUEL] Epoch ended. INSTR misses = 96, DATA misses = 83. Winner = DATA
[DUEL] Epoch ended. INSTR misses = 117, DATA misses = 85. Winner = DATA
Heartbeat CPU 0 instructions: 60000002 cycles: 37386139 heartbeat IPC: 0.8638 cumulative IPC: 0.93 (Simulation time: 00 hr 06 min 15 sec)
[DUEL] Epoch ended. INSTR misses = 124, DATA misses = 83. Winner = DATA
[DUEL] Epoch ended. INSTR misses = 91, DATA misses = 66. Winner = DATA
[DUEL] Epoch ended. INSTR misses = 88, DATA misses = 96. Winner = INSTR
[DUEL] Epoch ended. INSTR misses = 104, DATA misses = 85. Winner = DATA
[DUEL] Epoch ended. INSTR misses = 103, DATA misses = 74. Winner = DATA
[DUEL] Epoch ended. INSTR misses = 119, DATA misses = 82. Winner = DATA
[DUEL] Epoch ended. INSTR misses = 82, DATA misses = 79. Winner = DATA
[DUEL] Epoch ended. INSTR misses = 100, DATA misses = 114. Winner = INSTR
[DUEL] Epoch ended. INSTR misses = 16, DATA misses = 14. Winner = DATA
[DUEL] Epoch ended. INSTR misses = 18, DATA misses = 15. Winner = DATA
[DUEL] Epoch ended. INSTR misses = 15, DATA misses = 16. Winner = INSTR
[DUEL] Epoch ended. INSTR misses = 14, DATA misses = 12. Winner = DATA
[DUEL] Epoch ended. INSTR misses = 13, DATA misses = 14. Winner = INSTR
[DUEL] Epoch ended. INSTR misses = 15, DATA misses = 19. Winner = INSTR
[DUEL] Epoch ended. INSTR misses = 9, DATA misses = 12. Winner = INSTR
[DUEL] Epoch ended. INSTR misses = 9, DATA misses = 15. Winner = INSTR
[DUEL] Epoch ended. INSTR misses = 7, DATA misses = 16. Winner = INSTR
[DUEL] Epoch ended. INSTR misses = 7, DATA misses = 14. Winner = INSTR
[DUEL] Epoch ended. INSTR misses = 10, DATA misses = 16. Winner = INSTR
[DUEL] Epoch ended. INSTR misses = 5, DATA misses = 16. Winner = INSTR
[DUEL] Epoch ended. INSTR misses = 12, DATA misses = 18. Winner = INSTR
[DUEL] Epoch ended. INSTR misses = 5, DATA misses = 15. Winner = INSTR
[DUEL] Epoch ended. INSTR misses = 32, DATA misses = 32. Winner = INSTR
[DUEL] Epoch ended. INSTR misses = 11, DATA misses = 13. Winner = INSTR
[DUEL] Epoch ended. INSTR misses = 5, DATA misses = 13. Winner = INSTR
[DUEL] Epoch ended. INSTR misses = 7, DATA misses = 22. Winner = INSTR
[DUEL] Epoch ended. INSTR misses = 5, DATA misses = 14. Winner = INSTR
[DUEL] Epoch ended. INSTR misses = 8, DATA misses = 13. Winner = INSTR
[DUEL] Epoch ended. INSTR misses = 13, DATA misses = 14. Winner = INSTR
[DUEL] Epoch ended. INSTR misses = 16, DATA misses = 14. Winner = DATA
[DUEL] Epoch ended. INSTR misses = 12, DATA misses = 13. Winner = INSTR
[DUEL] Epoch ended. INSTR misses = 15, DATA misses = 15. Winner = INSTR
[DUEL] Epoch ended. INSTR misses = 11, DATA misses = 12. Winner = INSTR
[DUEL] Epoch ended. INSTR misses = 14, DATA misses = 8. Winner = DATA
[DUEL] Epoch ended. INSTR misses = 12, DATA misses = 8. Winner = DATA
[DUEL] Epoch ended. INSTR misses = 19, DATA misses = 4. Winner = DATA
[DUEL] Epoch ended. INSTR misses = 29, DATA misses = 23. Winner = DATA
[DUEL] Epoch ended. INSTR misses = 12, DATA misses = 7. Winner = DATA
[DUEL] Epoch ended. INSTR misses = 11, DATA misses = 10. Winner = DATA
Heartbeat CPU 0 instructions: 70000006 cycles: 44012074 heartbeat IPC: 1.509 cumulative IPC: 1.029 (Simulation time: 00 hr 07 min 29 sec)
[DUEL] Epoch ended. INSTR misses = 12, DATA misses = 10. Winner = DATA
[DUEL] Epoch ended. INSTR misses = 10, DATA misses = 8. Winner = DATA
[DUEL] Epoch ended. INSTR misses = 9, DATA misses = 13. Winner = INSTR
[DUEL] Epoch ended. INSTR misses = 7, DATA misses = 13. Winner = INSTR
[DUEL] Epoch ended. INSTR misses = 10, DATA misses = 17. Winner = INSTR
[DUEL] Epoch ended. INSTR misses = 6, DATA misses = 12. Winner = INSTR
[DUEL] Epoch ended. INSTR misses = 9, DATA misses = 14. Winner = INSTR
[DUEL] Epoch ended. INSTR misses = 9, DATA misses = 12. Winner = INSTR
[DUEL] Epoch ended. INSTR misses = 8, DATA misses = 11. Winner = INSTR
[DUEL] Epoch ended. INSTR misses = 12, DATA misses = 13. Winner = INSTR
[DUEL] Epoch ended. INSTR misses = 11, DATA misses = 10. Winner = DATA
[DUEL] Epoch ended. INSTR misses = 11, DATA misses = 10. Winner = DATA
[DUEL] Epoch ended. INSTR misses = 16, DATA misses = 11. Winner = DATA
[DUEL] Epoch ended. INSTR misses = 12, DATA misses = 7. Winner = DATA
[DUEL] Epoch ended. INSTR misses = 28, DATA misses = 37. Winner = INSTR
[DUEL] Epoch ended. INSTR misses = 13, DATA misses = 14. Winner = INSTR
[DUEL] Epoch ended. INSTR misses = 14, DATA misses = 13. Winner = DATA
[DUEL] Epoch ended. INSTR misses = 14, DATA misses = 12. Winner = DATA
[DUEL] Epoch ended. INSTR misses = 12, DATA misses = 8. Winner = DATA
[DUEL] Epoch ended. INSTR misses = 14, DATA misses = 6. Winner = DATA
[DUEL] Epoch ended. INSTR misses = 17, DATA misses = 4. Winner = DATA
[DUEL] Epoch ended. INSTR misses = 17, DATA misses = 3. Winner = DATA
[DUEL] Epoch ended. INSTR misses = 12, DATA misses = 7. Winner = DATA
[DUEL] Epoch ended. INSTR misses = 12, DATA misses = 10. Winner = DATA
[DUEL] Epoch ended. INSTR misses = 8, DATA misses = 10. Winner = INSTR
[DUEL] Epoch ended. INSTR misses = 9, DATA misses = 11. Winner = INSTR
[DUEL] Epoch ended. INSTR misses = 7, DATA misses = 13. Winner = INSTR
[DUEL] Epoch ended. INSTR misses = 6, DATA misses = 12. Winner = INSTR
[DUEL] Epoch ended. INSTR misses = 8, DATA misses = 13. Winner = INSTR
[DUEL] Epoch ended. INSTR misses = 9, DATA misses = 15. Winner = INSTR
[DUEL] Epoch ended. INSTR misses = 11, DATA misses = 14. Winner = INSTR
[DUEL] Epoch ended. INSTR misses = 88, DATA misses = 68. Winner = DATA
[DUEL] Epoch ended. INSTR misses = 98, DATA misses = 70. Winner = DATA
[DUEL] Epoch ended. INSTR misses = 95, DATA misses = 96. Winner = INSTR
[DUEL] Epoch ended. INSTR misses = 95, DATA misses = 84. Winner = DATA
[DUEL] Epoch ended. INSTR misses = 108, DATA misses = 91. Winner = DATA
[DUEL] Epoch ended. INSTR misses = 101, DATA misses = 74. Winner = DATA
[DUEL] Epoch ended. INSTR misses = 100, DATA misses = 98. Winner = DATA
[DUEL] Epoch ended. INSTR misses = 127, DATA misses = 89. Winner = DATA
Heartbeat CPU 0 instructions: 80000004 cycles: 50512235 heartbeat IPC: 1.538 cumulative IPC: 1.102 (Simulation time: 00 hr 08 min 40 sec)
[DUEL] Epoch ended. INSTR misses = 100, DATA misses = 83. Winner = DATA
[DUEL] Epoch ended. INSTR misses = 101, DATA misses = 89. Winner = DATA
[DUEL] Epoch ended. INSTR misses = 111, DATA misses = 70. Winner = DATA
[DUEL] Epoch ended. INSTR misses = 88, DATA misses = 95. Winner = INSTR
[DUEL] Epoch ended. INSTR misses = 117, DATA misses = 78. Winner = DATA
[DUEL] Epoch ended. INSTR misses = 102, DATA misses = 90. Winner = DATA
[DUEL] Epoch ended. INSTR misses = 140, DATA misses = 117. Winner = DATA
[DUEL] Epoch ended. INSTR misses = 120, DATA misses = 66. Winner = DATA
[DUEL] Epoch ended. INSTR misses = 117, DATA misses = 84. Winner = DATA
[DUEL] Epoch ended. INSTR misses = 119, DATA misses = 78. Winner = DATA
[DUEL] Epoch ended. INSTR misses = 111, DATA misses = 79. Winner = DATA
[DUEL] Epoch ended. INSTR misses = 100, DATA misses = 89. Winner = DATA
[DUEL] Epoch ended. INSTR misses = 127, DATA misses = 79. Winner = DATA
[DUEL] Epoch ended. INSTR misses = 129, DATA misses = 74. Winner = DATA
[DUEL] Epoch ended. INSTR misses = 87, DATA misses = 73. Winner = DATA
[DUEL] Epoch ended. INSTR misses = 92, DATA misses = 94. Winner = INSTR
[DUEL] Epoch ended. INSTR misses = 104, DATA misses = 87. Winner = DATA
[DUEL] Epoch ended. INSTR misses = 113, DATA misses = 77. Winner = DATA
[DUEL] Epoch ended. INSTR misses = 98, DATA misses = 80. Winner = DATA
[DUEL] Epoch ended. INSTR misses = 89, DATA misses = 93. Winner = INSTR
[DUEL] Epoch ended. INSTR misses = 76, DATA misses = 90. Winner = INSTR
[DUEL] Epoch ended. INSTR misses = 17, DATA misses = 8. Winner = DATA
[DUEL] Epoch ended. INSTR misses = 17, DATA misses = 13. Winner = DATA
[DUEL] Epoch ended. INSTR misses = 15, DATA misses = 17. Winner = INSTR
[DUEL] Epoch ended. INSTR misses = 10, DATA misses = 13. Winner = INSTR
[DUEL] Epoch ended. INSTR misses = 11, DATA misses = 14. Winner = INSTR
[DUEL] Epoch ended. INSTR misses = 7, DATA misses = 14. Winner = INSTR
[DUEL] Epoch ended. INSTR misses = 11, DATA misses = 18. Winner = INSTR
[DUEL] Epoch ended. INSTR misses = 8, DATA misses = 12. Winner = INSTR
[DUEL] Epoch ended. INSTR misses = 8, DATA misses = 17. Winner = INSTR
[DUEL] Epoch ended. INSTR misses = 6, DATA misses = 14. Winner = INSTR
[DUEL] Epoch ended. INSTR misses = 9, DATA misses = 14. Winner = INSTR
[DUEL] Epoch ended. INSTR misses = 8, DATA misses = 14. Winner = INSTR
[DUEL] Epoch ended. INSTR misses = 9, DATA misses = 17. Winner = INSTR
[DUEL] Epoch ended. INSTR misses = 19, DATA misses = 40. Winner = INSTR
[DUEL] Epoch ended. INSTR misses = 7, DATA misses = 13. Winner = INSTR
[DUEL] Epoch ended. INSTR misses = 7, DATA misses = 15. Winner = INSTR
[DUEL] Epoch ended. INSTR misses = 2, DATA misses = 18. Winner = INSTR
[DUEL] Epoch ended. INSTR misses = 8, DATA misses = 17. Winner = INSTR
Heartbeat CPU 0 instructions: 90000008 cycles: 62013713 heartbeat IPC: 0.8695 cumulative IPC: 1.055 (Simulation time: 00 hr 10 min 29 sec)
[DUEL] Epoch ended. INSTR misses = 19, DATA misses = 17. Winner = DATA
[DUEL] Epoch ended. INSTR misses = 8, DATA misses = 11. Winner = INSTR
[DUEL] Epoch ended. INSTR misses = 17, DATA misses = 16. Winner = DATA
[DUEL] Epoch ended. INSTR misses = 18, DATA misses = 12. Winner = DATA
[DUEL] Epoch ended. INSTR misses = 13, DATA misses = 12. Winner = DATA
[DUEL] Epoch ended. INSTR misses = 15, DATA misses = 8. Winner = DATA
[DUEL] Epoch ended. INSTR misses = 12, DATA misses = 4. Winner = DATA
[DUEL] Epoch ended. INSTR misses = 11, DATA misses = 9. Winner = DATA
[DUEL] Epoch ended. INSTR misses = 11, DATA misses = 6. Winner = DATA
[DUEL] Epoch ended. INSTR misses = 15, DATA misses = 21. Winner = INSTR
[DUEL] Epoch ended. INSTR misses = 22, DATA misses = 20. Winner = DATA
[DUEL] Epoch ended. INSTR misses = 7, DATA misses = 12. Winner = INSTR
[DUEL] Epoch ended. INSTR misses = 13, DATA misses = 13. Winner = INSTR
[DUEL] Epoch ended. INSTR misses = 10, DATA misses = 13. Winner = INSTR
[DUEL] Epoch ended. INSTR misses = 8, DATA misses = 13. Winner = INSTR
[DUEL] Epoch ended. INSTR misses = 13, DATA misses = 11. Winner = DATA
[DUEL] Epoch ended. INSTR misses = 8, DATA misses = 15. Winner = INSTR
[DUEL] Epoch ended. INSTR misses = 12, DATA misses = 14. Winner = INSTR
[DUEL] Epoch ended. INSTR misses = 10, DATA misses = 11. Winner = INSTR
[DUEL] Epoch ended. INSTR misses = 9, DATA misses = 12. Winner = INSTR
[DUEL] Epoch ended. INSTR misses = 8, DATA misses = 10. Winner = INSTR
[DUEL] Epoch ended. INSTR misses = 9, DATA misses = 13. Winner = INSTR
[DUEL] Epoch ended. INSTR misses = 13, DATA misses = 11. Winner = DATA
[DUEL] Epoch ended. INSTR misses = 8, DATA misses = 11. Winner = INSTR
[DUEL] Epoch ended. INSTR misses = 11, DATA misses = 10. Winner = DATA
[DUEL] Epoch ended. INSTR misses = 14, DATA misses = 13. Winner = DATA
[DUEL] Epoch ended. INSTR misses = 20, DATA misses = 16. Winner = DATA
[DUEL] Epoch ended. INSTR misses = 20, DATA misses = 15. Winner = DATA
[DUEL] Epoch ended. INSTR misses = 11, DATA misses = 10. Winner = DATA
[DUEL] Epoch ended. INSTR misses = 15, DATA misses = 7. Winner = DATA
[DUEL] Epoch ended. INSTR misses = 8, DATA misses = 10. Winner = INSTR
[DUEL] Epoch ended. INSTR misses = 10, DATA misses = 12. Winner = INSTR
[DUEL] Epoch ended. INSTR misses = 12, DATA misses = 9. Winner = DATA
[DUEL] Epoch ended. INSTR misses = 7, DATA misses = 8. Winner = INSTR
[DUEL] Epoch ended. INSTR misses = 11, DATA misses = 11. Winner = INSTR
[DUEL] Epoch ended. INSTR misses = 14, DATA misses = 11. Winner = DATA
[DUEL] Epoch ended. INSTR misses = 15, DATA misses = 9. Winner = DATA
[DUEL] Epoch ended. INSTR misses = 15, DATA misses = 11. Winner = DATA
[DUEL] Epoch ended. INSTR misses = 15, DATA misses = 11. Winner = DATA
Heartbeat CPU 0 instructions: 100000010 cycles: 65284646 heartbeat IPC: 3.057 cumulative IPC: 1.164 (Simulation time: 00 hr 11 min 17 sec)
[DUEL] Epoch ended. INSTR misses = 11, DATA misses = 11. Winner = INSTR
[DUEL] Epoch ended. INSTR misses = 11, DATA misses = 11. Winner = INSTR
[DUEL] Epoch ended. INSTR misses = 13, DATA misses = 14. Winner = INSTR
[DUEL] Epoch ended. INSTR misses = 9, DATA misses = 9. Winner = INSTR
*** Reached end of trace: (0, "../traces/secret_traces/compute_fp/compute_fp_28.champsimtrace.xz")
[DUEL] Epoch ended. INSTR misses = 14, DATA misses = 15. Winner = INSTR
[DUEL] Epoch ended. INSTR misses = 9, DATA misses = 8. Winner = DATA
[DUEL] Epoch ended. INSTR misses = 23, DATA misses = 23. Winner = INSTR
[DUEL] Epoch ended. INSTR misses = 24, DATA misses = 25. Winner = INSTR
[DUEL] Epoch ended. INSTR misses = 5, DATA misses = 26. Winner = INSTR
[DUEL] Epoch ended. INSTR misses = 0, DATA misses = 0. Winner = INSTR
[DUEL] Epoch ended. INSTR misses = 0, DATA misses = 0. Winner = INSTR
[DUEL] Epoch ended. INSTR misses = 0, DATA misses = 0. Winner = INSTR
[DUEL] Epoch ended. INSTR misses = 0, DATA misses = 0. Winner = INSTR
[DUEL] Epoch ended. INSTR misses = 0, DATA misses = 0. Winner = INSTR
[DUEL] Epoch ended. INSTR misses = 0, DATA misses = 1. Winner = INSTR
[DUEL] Epoch ended. INSTR misses = 0, DATA misses = 0. Winner = INSTR
[DUEL] Epoch ended. INSTR misses = 0, DATA misses = 0. Winner = INSTR
[DUEL] Epoch ended. INSTR misses = 0, DATA misses = 0. Winner = INSTR
[DUEL] Epoch ended. INSTR misses = 0, DATA misses = 0. Winner = INSTR
[DUEL] Epoch ended. INSTR misses = 0, DATA misses = 0. Winner = INSTR
[DUEL] Epoch ended. INSTR misses = 0, DATA misses = 0. Winner = INSTR
[DUEL] Epoch ended. INSTR misses = 16, DATA misses = 17. Winner = INSTR
[DUEL] Epoch ended. INSTR misses = 0, DATA misses = 0. Winner = INSTR
[DUEL] Epoch ended. INSTR misses = 0, DATA misses = 0. Winner = INSTR
[DUEL] Epoch ended. INSTR misses = 0, DATA misses = 0. Winner = INSTR
[DUEL] Epoch ended. INSTR misses = 0, DATA misses = 0. Winner = INSTR
[DUEL] Epoch ended. INSTR misses = 0, DATA misses = 0. Winner = INSTR
[DUEL] Epoch ended. INSTR misses = 0, DATA misses = 0. Winner = INSTR
[DUEL] Epoch ended. INSTR misses = 21, DATA misses = 17. Winner = DATA
[DUEL] Epoch ended. INSTR misses = 16, DATA misses = 18. Winner = INSTR
[DUEL] Epoch ended. INSTR misses = 0, DATA misses = 0. Winner = INSTR
[DUEL] Epoch ended. INSTR misses = 4, DATA misses = 3. Winner = DATA
Heartbeat CPU 0 instructions: 110000000 cycles: 68334833 heartbeat IPC: 3.278 cumulative IPC: 1.266 (Simulation time: 00 hr 11 min 50 sec)
[DUEL] Epoch ended. INSTR misses = 0, DATA misses = 0. Winner = INSTR
[DUEL] Epoch ended. INSTR misses = 0, DATA misses = 0. Winner = INSTR
[DUEL] Epoch ended. INSTR misses = 0, DATA misses = 0. Winner = INSTR
[DUEL] Epoch ended. INSTR misses = 2, DATA misses = 5. Winner = INSTR
[DUEL] Epoch ended. INSTR misses = 33, DATA misses = 30. Winner = DATA
[DUEL] Epoch ended. INSTR misses = 0, DATA misses = 0. Winner = INSTR
[DUEL] Epoch ended. INSTR misses = 0, DATA misses = 0. Winner = INSTR
[DUEL] Epoch ended. INSTR misses = 0, DATA misses = 0. Winner = INSTR
[DUEL] Epoch ended. INSTR misses = 0, DATA misses = 0. Winner = INSTR
[DUEL] Epoch ended. INSTR misses = 0, DATA misses = 0. Winner = INSTR
[DUEL] Epoch ended. INSTR misses = 0, DATA misses = 0. Winner = INSTR
[DUEL] Epoch ended. INSTR misses = 0, DATA misses = 0. Winner = INSTR
[DUEL] Epoch ended. INSTR misses = 0, DATA misses = 0. Winner = INSTR
[DUEL] Epoch ended. INSTR misses = 14, DATA misses = 0. Winner = DATA
[DUEL] Epoch ended. INSTR misses = 0, DATA misses = 3. Winner = INSTR
[DUEL] Epoch ended. INSTR misses = 0, DATA misses = 0. Winner = INSTR
Heartbeat CPU 0 instructions: 120000003 cycles: 70236848 heartbeat IPC: 5.258 cumulative IPC: 1.382 (Simulation time: 00 hr 12 min 15 sec)
[DUEL] Epoch ended. INSTR misses = 0, DATA misses = 0. Winner = INSTR
[DUEL] Epoch ended. INSTR misses = 0, DATA misses = 0. Winner = INSTR
[DUEL] Epoch ended. INSTR misses = 0, DATA misses = 0. Winner = INSTR
[DUEL] Epoch ended. INSTR misses = 0, DATA misses = 0. Winner = INSTR
[DUEL] Epoch ended. INSTR misses = 0, DATA misses = 0. Winner = INSTR
[DUEL] Epoch ended. INSTR misses = 0, DATA misses = 0. Winner = INSTR
[DUEL] Epoch ended. INSTR misses = 0, DATA misses = 0. Winner = INSTR
[DUEL] Epoch ended. INSTR misses = 11, DATA misses = 17. Winner = INSTR
[DUEL] Epoch ended. INSTR misses = 37, DATA misses = 37. Winner = INSTR
[DUEL] Epoch ended. INSTR misses = 0, DATA misses = 0. Winner = INSTR
[DUEL] Epoch ended. INSTR misses = 0, DATA misses = 0. Winner = INSTR
[DUEL] Epoch ended. INSTR misses = 0, DATA misses = 0. Winner = INSTR
[DUEL] Epoch ended. INSTR misses = 0, DATA misses = 0. Winner = INSTR
[DUEL] Epoch ended. INSTR misses = 0, DATA misses = 0. Winner = INSTR
[DUEL] Epoch ended. INSTR misses = 0, DATA misses = 0. Winner = INSTR
[DUEL] Epoch ended. INSTR misses = 0, DATA misses = 0. Winner = INSTR
[DUEL] Epoch ended. INSTR misses = 0, DATA misses = 0. Winner = INSTR
Heartbeat CPU 0 instructions: 130000001 cycles: 72063746 heartbeat IPC: 5.474 cumulative IPC: 1.494 (Simulation time: 00 hr 12 min 41 sec)
Simulation finished CPU 0 instructions: 100000000 cycles: 66934156 cumulative IPC: 1.494 (Simulation time: 00 hr 12 min 41 sec)
Simulation complete CPU 0 instructions: 100000000 cycles: 66934156 cumulative IPC: 1.494 (Simulation time: 00 hr 12 min 41 sec)

ChampSim completed all CPUs

=== Simulation ===
CPU 0 runs ../traces/secret_traces/compute_fp/compute_fp_28.champsimtrace.xz
Region of Interest Statistics

CPU 0 cumulative IPC: 1.494 instructions: 100000000 cycles: 66934156
CPU 0 Branch Prediction Accuracy: 99.78% MPKI: 0.1327 Average ROB Occupancy at Mispredict: 33.46
Branch type MPKI
BRANCH_DIRECT_JUMP: 0.00712
BRANCH_INDIRECT: 0.0652
BRANCH_CONDITIONAL: 0.0272
BRANCH_DIRECT_CALL: 0.0199
BRANCH_INDIRECT_CALL: 0.00237
BRANCH_RETURN: 0.011

LLC TOTAL        ACCESS:    2713721 HIT:      72016 MISS:    2641705
LLC LOAD         ACCESS:     878753 HIT:       6051 MISS:     872702
LLC RFO          ACCESS:      42053 HIT:       6017 MISS:      36036
LLC PREFETCH     ACCESS:    1522835 HIT:      20305 MISS:    1502530
LLC WRITE        ACCESS:      78103 HIT:      38737 MISS:      39366
LLC TRANSLATION  ACCESS:     191977 HIT:        906 MISS:     191071
LLC PREFETCH REQUESTED:          0 ISSUED:          0 USEFUL:          0 USELESS:          0
LLC AVERAGE MISS LATENCY: 467.3 cycles
cpu0_DTLB TOTAL        ACCESS:   21069097 HIT:   17487591 MISS:    3581506
cpu0_DTLB LOAD         ACCESS:   21069097 HIT:   17487591 MISS:    3581506
cpu0_DTLB RFO          ACCESS:          0 HIT:          0 MISS:          0
cpu0_DTLB PREFETCH     ACCESS:          0 HIT:          0 MISS:          0
cpu0_DTLB WRITE        ACCESS:          0 HIT:          0 MISS:          0
cpu0_DTLB TRANSLATION  ACCESS:          0 HIT:          0 MISS:          0
cpu0_DTLB PREFETCH REQUESTED:          0 ISSUED:          0 USEFUL:          0 USELESS:          0
cpu0_DTLB AVERAGE MISS LATENCY: 37.55 cycles
cpu0_ITLB TOTAL        ACCESS:     117258 HIT:     115700 MISS:       1558
cpu0_ITLB LOAD         ACCESS:     117258 HIT:     115700 MISS:       1558
cpu0_ITLB RFO          ACCESS:          0 HIT:          0 MISS:          0
cpu0_ITLB PREFETCH     ACCESS:          0 HIT:          0 MISS:          0
cpu0_ITLB WRITE        ACCESS:          0 HIT:          0 MISS:          0
cpu0_ITLB TRANSLATION  ACCESS:          0 HIT:          0 MISS:          0
cpu0_ITLB PREFETCH REQUESTED:          0 ISSUED:          0 USEFUL:          0 USELESS:          0
cpu0_ITLB AVERAGE MISS LATENCY: 52.32 cycles
cpu0_L1D TOTAL        ACCESS:   30496022 HIT:   18444698 MISS:   12051324
cpu0_L1D LOAD         ACCESS:   12651610 HIT:    4857690 MISS:    7793920
cpu0_L1D RFO          ACCESS:          0 HIT:          0 MISS:          0
cpu0_L1D PREFETCH     ACCESS:    6929912 HIT:    3292231 MISS:    3637681
cpu0_L1D WRITE        ACCESS:   10613341 HIT:   10261366 MISS:     351975
cpu0_L1D TRANSLATION  ACCESS:     301159 HIT:      33411 MISS:     267748
cpu0_L1D PREFETCH REQUESTED:   65669268 ISSUED:    6929918 USEFUL:     737968 USELESS:     197604
cpu0_L1D AVERAGE MISS LATENCY: 48.65 cycles
cpu0_L1I TOTAL        ACCESS:     169694 HIT:     134151 MISS:      35543
cpu0_L1I LOAD         ACCESS:      59459 HIT:      48558 MISS:      10901
cpu0_L1I RFO          ACCESS:          0 HIT:          0 MISS:          0
cpu0_L1I PREFETCH     ACCESS:     110235 HIT:      85593 MISS:      24642
cpu0_L1I WRITE        ACCESS:          0 HIT:          0 MISS:          0
cpu0_L1I TRANSLATION  ACCESS:          0 HIT:          0 MISS:          0
cpu0_L1I PREFETCH REQUESTED:     164644 ISSUED:     110235 USEFUL:      13514 USELESS:       9074
cpu0_L1I AVERAGE MISS LATENCY: 90.4 cycles
cpu0_L2C TOTAL        ACCESS:   20529383 HIT:   17743709 MISS:    2785674
cpu0_L2C LOAD         ACCESS:    7695642 HIT:    6804078 MISS:     891564
cpu0_L2C RFO          ACCESS:     109778 HIT:      67701 MISS:      42077
cpu0_L2C PREFETCH     ACCESS:   11107681 HIT:    9447634 MISS:    1660047
cpu0_L2C WRITE        ACCESS:    1351520 HIT:    1351512 MISS:          8
cpu0_L2C TRANSLATION  ACCESS:     264762 HIT:      72784 MISS:     191978
cpu0_L2C PREFETCH REQUESTED:   11120535 ISSUED:    7761100 USEFUL:     634661 USELESS:     832257
cpu0_L2C AVERAGE MISS LATENCY: 462.2 cycles
cpu0_STLB TOTAL        ACCESS:    3351219 HIT:    3148335 MISS:     202884
cpu0_STLB LOAD         ACCESS:    3351219 HIT:    3148335 MISS:     202884
cpu0_STLB RFO          ACCESS:          0 HIT:          0 MISS:          0
cpu0_STLB PREFETCH     ACCESS:          0 HIT:          0 MISS:          0
cpu0_STLB WRITE        ACCESS:          0 HIT:          0 MISS:          0
cpu0_STLB TRANSLATION  ACCESS:          0 HIT:          0 MISS:          0
cpu0_STLB PREFETCH REQUESTED:          0 ISSUED:          0 USEFUL:          0 USELESS:          0
cpu0_STLB AVERAGE MISS LATENCY: 545.3 cycles

DRAM Statistics

Channel 0 RQ ROW_BUFFER_HIT:     414280
  ROW_BUFFER_MISS:     892937
 AVG DBUS CONGESTED CYCLE: 3.928
WQ ROW_BUFFER_HIT: Channel 0 
  ROW_BUFFER_MISS:       1752
  FULL:      36744

Channel 1 RQ ROW_BUFFER_HIT:     413707
  ROW_BUFFER_MISS:     881342
 AVG DBUS CONGESTED CYCLE: 3.927
WQ ROW_BUFFER_HIT: Channel 1 
  ROW_BUFFER_MISS:       1741
  FULL:      36030
BERTI TO_L1: 18692870 TO_L2: 50430422 TO_L2_BC_MSHR: 19561742
BERTI AVG_LAT: 87.0053 NUM_TRACK_LATENCY: 8677938 NUM_CANT_TRACK_LATENCY: 1883
BERTI CROSS_PAGE 41692606 NO_CROSS_PAGE: 27430686
BERTI FOUND_BERTI: 13456064 NO_FOUND_BERTI: 9234813
BERTI AVERAGE_ISSUED: 5.11451
CPU 0 L1I Entangling prefetcher final stats
IP accesses: 44de 113780 314 / 69058
IP misses: 44de 113780 305 / 20500
IP hits: 0 0 0 / 0
IP late: 5a81 16a040 13 / 5628
IP wrong: 2173 85cc0 20 / 9012
miss rate: 0.296852
coverage: 0
coverage_late: 0.274537
accuracy: 0
accuracy_late: 0.384427
discarded: 0
evicts entangled j table: 0
evicts entangled k table: 1644
max bb size: 119
formats: 456 0 1305 753 309 647 0 
hist_lookups: 1038 1190 1012 890 793 709 589 446 337 259 163 106 96 49 32 0 33 3574 
hist_lookups_evict: 0.291623 %
hist_lookups_shortlat: 31.5836 %
bb_found_hist: 0 14302 6130 2808 1064 632 231 80 59 17 14 7 13 2 28 0 0 0 0 0 0 0 0 2 0 1 0 0 0 0 0 0 0 0 0 0 0 0 0 0 0 0 0 0 0 0 0 0 0 0 0 0 0 0 0 0 0 0 0 0 0 0 0 0 
bb_found_summary: 45835 25390 1.80524
entangled_found_hist: 0 7424 5346 9443 1863 416 62 0 
entangled_found_summary: 56349 24554 2.29491
bb_ent_found_hist: 0 19001 9702 5502 2295 1493 579 253 120 10 27 13 4 2 2 0 0 0 0 0 0 0 0 0 0 3 0 0 0 0 0 0 0 0 0 0 0 0 0 0 0 0 0 0 0 0 0 0 0 0 0 0 0 0 0 5 0 0 0 0 0 0 0 0 
bb_ent_found_summary: 78716 39011 2.01779
