WARNING: physical memory size is smaller than virtual memory size.

*** ChampSim Multicore Out-of-Order Simulator ***
Warmup Instructions: 30000000
Simulation Instructions: 100000000
Number of CPUs: 1
Page size: 4096

BTB:
Basic BTB sets: 1024 ways: 8
Indirect:
history lengths: 0 0 10 16 27 44 60 96 109 219 449 487 714 1313 2146 3881 
ITTAGE tables: 64768 bytes;Region table: 240 bytes;IUM: 384 bytes;Total Storage= 65392 bytes;
RAS:
RAS size: 64
[LLC] INSTR Demand IPV: 1 2 2 1 4 Prefetch IPV: 1 2 1 1 4
[LLC] DATA  Demand IPV: 1 1 1 2 4 Prefetch IPV: 1 1 2 2 4
Berti Prefetcher
CPU 0 Entangling prefetcher
Off-chip DRAM Size: 8 GiB Channels: 2 Width: 64-bit Data Race: 6400 MT/s
[DUEL] Epoch ended. INSTR misses = 19, DATA misses = 20. Winner = INSTR
[DUEL] Epoch ended. INSTR misses = 48, DATA misses = 48. Winner = INSTR
[DUEL] Epoch ended. INSTR misses = 64, DATA misses = 56. Winner = DATA
[DUEL] Epoch ended. INSTR misses = 48, DATA misses = 46. Winner = DATA
[DUEL] Epoch ended. INSTR misses = 33, DATA misses = 33. Winner = INSTR
[DUEL] Epoch ended. INSTR misses = 50, DATA misses = 43. Winner = DATA
[DUEL] Epoch ended. INSTR misses = 65, DATA misses = 51. Winner = DATA
[DUEL] Epoch ended. INSTR misses = 38, DATA misses = 64. Winner = INSTR
[DUEL] Epoch ended. INSTR misses = 81, DATA misses = 83. Winner = INSTR
[DUEL] Epoch ended. INSTR misses = 48, DATA misses = 58. Winner = INSTR
[DUEL] Epoch ended. INSTR misses = 67, DATA misses = 70. Winner = INSTR
[DUEL] Epoch ended. INSTR misses = 53, DATA misses = 51. Winner = DATA
[DUEL] Epoch ended. INSTR misses = 93, DATA misses = 77. Winner = DATA
[DUEL] Epoch ended. INSTR misses = 26, DATA misses = 33. Winner = INSTR
[DUEL] Epoch ended. INSTR misses = 109, DATA misses = 101. Winner = DATA
[DUEL] Epoch ended. INSTR misses = 69, DATA misses = 84. Winner = INSTR
[DUEL] Epoch ended. INSTR misses = 73, DATA misses = 67. Winner = DATA
[DUEL] Epoch ended. INSTR misses = 51, DATA misses = 60. Winner = INSTR
[DUEL] Epoch ended. INSTR misses = 79, DATA misses = 79. Winner = INSTR
[DUEL] Epoch ended. INSTR misses = 131, DATA misses = 128. Winner = DATA
[DUEL] Epoch ended. INSTR misses = 66, DATA misses = 103. Winner = INSTR
[DUEL] Epoch ended. INSTR misses = 102, DATA misses = 109. Winner = INSTR
[DUEL] Epoch ended. INSTR misses = 59, DATA misses = 63. Winner = INSTR
[DUEL] Epoch ended. INSTR misses = 99, DATA misses = 123. Winner = INSTR
[DUEL] Epoch ended. INSTR misses = 114, DATA misses = 112. Winner = DATA
[DUEL] Epoch ended. INSTR misses = 77, DATA misses = 80. Winner = INSTR
[DUEL] Epoch ended. INSTR misses = 83, DATA misses = 97. Winner = INSTR
[DUEL] Epoch ended. INSTR misses = 5, DATA misses = 22. Winner = INSTR
[DUEL] Epoch ended. INSTR misses = 33, DATA misses = 41. Winner = INSTR
[DUEL] Epoch ended. INSTR misses = 19, DATA misses = 21. Winner = INSTR
[DUEL] Epoch ended. INSTR misses = 26, DATA misses = 25. Winner = DATA
[DUEL] Epoch ended. INSTR misses = 29, DATA misses = 24. Winner = DATA
[DUEL] Epoch ended. INSTR misses = 47, DATA misses = 37. Winner = DATA
[DUEL] Epoch ended. INSTR misses = 61, DATA misses = 52. Winner = DATA
[DUEL] Epoch ended. INSTR misses = 39, DATA misses = 64. Winner = INSTR
[DUEL] Epoch ended. INSTR misses = 83, DATA misses = 78. Winner = DATA
[DUEL] Epoch ended. INSTR misses = 47, DATA misses = 60. Winner = INSTR
[DUEL] Epoch ended. INSTR misses = 64, DATA misses = 65. Winner = INSTR
[DUEL] Epoch ended. INSTR misses = 59, DATA misses = 49. Winner = DATA
Heartbeat CPU 0 instructions: 10000000 cycles: 1674064 heartbeat IPC: 5.973 cumulative IPC: 5.973 (Simulation time: 00 hr 00 min 26 sec)
[DUEL] Epoch ended. INSTR misses = 62, DATA misses = 58. Winner = DATA
[DUEL] Epoch ended. INSTR misses = 52, DATA misses = 34. Winner = DATA
[DUEL] Epoch ended. INSTR misses = 108, DATA misses = 113. Winner = INSTR
[DUEL] Epoch ended. INSTR misses = 72, DATA misses = 80. Winner = INSTR
[DUEL] Epoch ended. INSTR misses = 69, DATA misses = 59. Winner = DATA
[DUEL] Epoch ended. INSTR misses = 33, DATA misses = 34. Winner = INSTR
[DUEL] Epoch ended. INSTR misses = 99, DATA misses = 110. Winner = INSTR
[DUEL] Epoch ended. INSTR misses = 120, DATA misses = 126. Winner = INSTR
[DUEL] Epoch ended. INSTR misses = 77, DATA misses = 105. Winner = INSTR
[DUEL] Epoch ended. INSTR misses = 67, DATA misses = 73. Winner = INSTR
[DUEL] Epoch ended. INSTR misses = 90, DATA misses = 97. Winner = INSTR
[DUEL] Epoch ended. INSTR misses = 100, DATA misses = 105. Winner = INSTR
[DUEL] Epoch ended. INSTR misses = 99, DATA misses = 104. Winner = INSTR
[DUEL] Epoch ended. INSTR misses = 94, DATA misses = 104. Winner = INSTR
[DUEL] Epoch ended. INSTR misses = 72, DATA misses = 97. Winner = INSTR
[DUEL] Epoch ended. INSTR misses = 16, DATA misses = 26. Winner = INSTR
[DUEL] Epoch ended. INSTR misses = 30, DATA misses = 41. Winner = INSTR
[DUEL] Epoch ended. INSTR misses = 19, DATA misses = 23. Winner = INSTR
[DUEL] Epoch ended. INSTR misses = 12, DATA misses = 9. Winner = DATA
[DUEL] Epoch ended. INSTR misses = 40, DATA misses = 40. Winner = INSTR
[DUEL] Epoch ended. INSTR misses = 47, DATA misses = 36. Winner = DATA
[DUEL] Epoch ended. INSTR misses = 30, DATA misses = 31. Winner = INSTR
[DUEL] Epoch ended. INSTR misses = 57, DATA misses = 71. Winner = INSTR
[DUEL] Epoch ended. INSTR misses = 62, DATA misses = 75. Winner = INSTR
[DUEL] Epoch ended. INSTR misses = 73, DATA misses = 65. Winner = DATA
[DUEL] Epoch ended. INSTR misses = 67, DATA misses = 68. Winner = INSTR
[DUEL] Epoch ended. INSTR misses = 58, DATA misses = 51. Winner = DATA
[DUEL] Epoch ended. INSTR misses = 62, DATA misses = 58. Winner = DATA
[DUEL] Epoch ended. INSTR misses = 52, DATA misses = 33. Winner = DATA
[DUEL] Epoch ended. INSTR misses = 92, DATA misses = 109. Winner = INSTR
[DUEL] Epoch ended. INSTR misses = 84, DATA misses = 86. Winner = INSTR
[DUEL] Epoch ended. INSTR misses = 67, DATA misses = 57. Winner = DATA
[DUEL] Epoch ended. INSTR misses = 36, DATA misses = 33. Winner = DATA
[DUEL] Epoch ended. INSTR misses = 100, DATA misses = 110. Winner = INSTR
[DUEL] Epoch ended. INSTR misses = 120, DATA misses = 126. Winner = INSTR
[DUEL] Epoch ended. INSTR misses = 77, DATA misses = 108. Winner = INSTR
[DUEL] Epoch ended. INSTR misses = 74, DATA misses = 76. Winner = INSTR
[DUEL] Epoch ended. INSTR misses = 91, DATA misses = 95. Winner = INSTR
[DUEL] Epoch ended. INSTR misses = 93, DATA misses = 104. Winner = INSTR
Heartbeat CPU 0 instructions: 20000006 cycles: 3353873 heartbeat IPC: 5.953 cumulative IPC: 5.963 (Simulation time: 00 hr 00 min 53 sec)
[DUEL] Epoch ended. INSTR misses = 99, DATA misses = 105. Winner = INSTR
[DUEL] Epoch ended. INSTR misses = 95, DATA misses = 102. Winner = INSTR
[DUEL] Epoch ended. INSTR misses = 69, DATA misses = 94. Winner = INSTR
[DUEL] Epoch ended. INSTR misses = 15, DATA misses = 15. Winner = INSTR
[DUEL] Epoch ended. INSTR misses = 32, DATA misses = 47. Winner = INSTR
[DUEL] Epoch ended. INSTR misses = 16, DATA misses = 22. Winner = INSTR
[DUEL] Epoch ended. INSTR misses = 12, DATA misses = 8. Winner = DATA
[DUEL] Epoch ended. INSTR misses = 38, DATA misses = 34. Winner = DATA
[DUEL] Epoch ended. INSTR misses = 45, DATA misses = 35. Winner = DATA
[DUEL] Epoch ended. INSTR misses = 28, DATA misses = 28. Winner = INSTR
[DUEL] Epoch ended. INSTR misses = 60, DATA misses = 70. Winner = INSTR
[DUEL] Epoch ended. INSTR misses = 63, DATA misses = 80. Winner = INSTR
[DUEL] Epoch ended. INSTR misses = 71, DATA misses = 67. Winner = DATA
[DUEL] Epoch ended. INSTR misses = 67, DATA misses = 70. Winner = INSTR
[DUEL] Epoch ended. INSTR misses = 53, DATA misses = 51. Winner = DATA
[DUEL] Epoch ended. INSTR misses = 59, DATA misses = 59. Winner = INSTR
[DUEL] Epoch ended. INSTR misses = 54, DATA misses = 34. Winner = DATA
[DUEL] Epoch ended. INSTR misses = 107, DATA misses = 113. Winner = INSTR
[DUEL] Epoch ended. INSTR misses = 71, DATA misses = 84. Winner = INSTR
[DUEL] Epoch ended. INSTR misses = 65, DATA misses = 57. Winner = DATA
[DUEL] Epoch ended. INSTR misses = 55, DATA misses = 60. Winner = INSTR
[DUEL] Epoch ended. INSTR misses = 79, DATA misses = 79. Winner = INSTR
[DUEL] Epoch ended. INSTR misses = 131, DATA misses = 133. Winner = INSTR
[DUEL] Epoch ended. INSTR misses = 67, DATA misses = 102. Winner = INSTR
[DUEL] Epoch ended. INSTR misses = 99, DATA misses = 104. Winner = INSTR
[DUEL] Epoch ended. INSTR misses = 59, DATA misses = 64. Winner = INSTR
[DUEL] Epoch ended. INSTR misses = 100, DATA misses = 123. Winner = INSTR
[DUEL] Epoch ended. INSTR misses = 119, DATA misses = 109. Winner = DATA
[DUEL] Epoch ended. INSTR misses = 70, DATA misses = 79. Winner = INSTR
[DUEL] Epoch ended. INSTR misses = 80, DATA misses = 95. Winner = INSTR
[DUEL] Epoch ended. INSTR misses = 12, DATA misses = 28. Winner = INSTR
[DUEL] Epoch ended. INSTR misses = 24, DATA misses = 34. Winner = INSTR
[DUEL] Epoch ended. INSTR misses = 16, DATA misses = 25. Winner = INSTR
[DUEL] Epoch ended. INSTR misses = 21, DATA misses = 24. Winner = INSTR
[DUEL] Epoch ended. INSTR misses = 28, DATA misses = 23. Winner = DATA
[DUEL] Epoch ended. INSTR misses = 51, DATA misses = 35. Winner = DATA
[DUEL] Epoch ended. INSTR misses = 54, DATA misses = 48. Winner = DATA
[DUEL] Epoch ended. INSTR misses = 42, DATA misses = 67. Winner = INSTR
[DUEL] Epoch ended. INSTR misses = 84, DATA misses = 77. Winner = DATA
Heartbeat CPU 0 instructions: 30000002 cycles: 5027310 heartbeat IPC: 5.976 cumulative IPC: 5.967 (Simulation time: 00 hr 01 min 20 sec)
Warmup finished CPU 0 instructions: 30000002 cycles: 5027311 cumulative IPC: 5.967 (Simulation time: 00 hr 01 min 20 sec)
Warmup complete CPU 0 instructions: 30000002 cycles: 5027311 cumulative IPC: 5.967 (Simulation time: 00 hr 01 min 20 sec)
[DUEL] Epoch ended. INSTR misses = 48, DATA misses = 60. Winner = INSTR
[DUEL] Epoch ended. INSTR misses = 63, DATA misses = 66. Winner = INSTR
[DUEL] Epoch ended. INSTR misses = 52, DATA misses = 49. Winner = DATA
[DUEL] Epoch ended. INSTR misses = 90, DATA misses = 77. Winner = DATA
[DUEL] Epoch ended. INSTR misses = 15, DATA misses = 31. Winner = INSTR
[DUEL] Epoch ended. INSTR misses = 112, DATA misses = 100. Winner = DATA
[DUEL] Epoch ended. INSTR misses = 97, DATA misses = 117. Winner = INSTR
[DUEL] Epoch ended. INSTR misses = 44, DATA misses = 39. Winner = DATA
[DUEL] Epoch ended. INSTR misses = 49, DATA misses = 56. Winner = INSTR
[DUEL] Epoch ended. INSTR misses = 99, DATA misses = 94. Winner = DATA
[DUEL] Epoch ended. INSTR misses = 109, DATA misses = 111. Winner = INSTR
[DUEL] Epoch ended. INSTR misses = 93, DATA misses = 133. Winner = INSTR
[DUEL] Epoch ended. INSTR misses = 92, DATA misses = 104. Winner = INSTR
[DUEL] Epoch ended. INSTR misses = 64, DATA misses = 69. Winner = INSTR
[DUEL] Epoch ended. INSTR misses = 79, DATA misses = 88. Winner = INSTR
[DUEL] Epoch ended. INSTR misses = 143, DATA misses = 127. Winner = DATA
[DUEL] Epoch ended. INSTR misses = 69, DATA misses = 111. Winner = INSTR
[DUEL] Epoch ended. INSTR misses = 63, DATA misses = 49. Winner = DATA
[DUEL] Epoch ended. INSTR misses = 5, DATA misses = 30. Winner = INSTR
[DUEL] Epoch ended. INSTR misses = 28, DATA misses = 37. Winner = INSTR
[DUEL] Epoch ended. INSTR misses = 14, DATA misses = 10. Winner = DATA
[DUEL] Epoch ended. INSTR misses = 21, DATA misses = 18. Winner = DATA
[DUEL] Epoch ended. INSTR misses = 28, DATA misses = 23. Winner = DATA
[DUEL] Epoch ended. INSTR misses = 56, DATA misses = 33. Winner = DATA
[DUEL] Epoch ended. INSTR misses = 47, DATA misses = 53. Winner = INSTR
[DUEL] Epoch ended. INSTR misses = 56, DATA misses = 77. Winner = INSTR
[DUEL] Epoch ended. INSTR misses = 85, DATA misses = 74. Winner = DATA
[DUEL] Epoch ended. INSTR misses = 44, DATA misses = 64. Winner = INSTR
[DUEL] Epoch ended. INSTR misses = 74, DATA misses = 62. Winner = DATA
[DUEL] Epoch ended. INSTR misses = 40, DATA misses = 33. Winner = DATA
[DUEL] Epoch ended. INSTR misses = 76, DATA misses = 76. Winner = INSTR
[DUEL] Epoch ended. INSTR misses = 49, DATA misses = 58. Winner = INSTR
[DUEL] Epoch ended. INSTR misses = 94, DATA misses = 84. Winner = DATA
[DUEL] Epoch ended. INSTR misses = 92, DATA misses = 95. Winner = INSTR
[DUEL] Epoch ended. INSTR misses = 52, DATA misses = 57. Winner = INSTR
[DUEL] Epoch ended. INSTR misses = 78, DATA misses = 85. Winner = INSTR
[DUEL] Epoch ended. INSTR misses = 64, DATA misses = 62. Winner = DATA
[DUEL] Epoch ended. INSTR misses = 136, DATA misses = 154. Winner = INSTR
[DUEL] Epoch ended. INSTR misses = 80, DATA misses = 112. Winner = INSTR
Heartbeat CPU 0 instructions: 40000001 cycles: 16694957 heartbeat IPC: 0.8571 cumulative IPC: 0.8571 (Simulation time: 00 hr 03 min 00 sec)
[DUEL] Epoch ended. INSTR misses = 72, DATA misses = 70. Winner = DATA
[DUEL] Epoch ended. INSTR misses = 103, DATA misses = 108. Winner = INSTR
[DUEL] Epoch ended. INSTR misses = 68, DATA misses = 73. Winner = INSTR
[DUEL] Epoch ended. INSTR misses = 132, DATA misses = 119. Winner = DATA
[DUEL] Epoch ended. INSTR misses = 56, DATA misses = 102. Winner = INSTR
[DUEL] Epoch ended. INSTR misses = 51, DATA misses = 49. Winner = DATA
[DUEL] Epoch ended. INSTR misses = 19, DATA misses = 35. Winner = INSTR
[DUEL] Epoch ended. INSTR misses = 27, DATA misses = 26. Winner = DATA
[DUEL] Epoch ended. INSTR misses = 4, DATA misses = 11. Winner = INSTR
[DUEL] Epoch ended. INSTR misses = 31, DATA misses = 16. Winner = DATA
[DUEL] Epoch ended. INSTR misses = 34, DATA misses = 25. Winner = DATA
[DUEL] Epoch ended. INSTR misses = 39, DATA misses = 28. Winner = DATA
[DUEL] Epoch ended. INSTR misses = 55, DATA misses = 62. Winner = INSTR
[DUEL] Epoch ended. INSTR misses = 77, DATA misses = 89. Winner = INSTR
[DUEL] Epoch ended. INSTR misses = 75, DATA misses = 86. Winner = INSTR
[DUEL] Epoch ended. INSTR misses = 47, DATA misses = 62. Winner = INSTR
[DUEL] Epoch ended. INSTR misses = 49, DATA misses = 34. Winner = DATA
[DUEL] Epoch ended. INSTR misses = 83, DATA misses = 79. Winner = DATA
[DUEL] Epoch ended. INSTR misses = 38, DATA misses = 26. Winner = DATA
[DUEL] Epoch ended. INSTR misses = 81, DATA misses = 88. Winner = INSTR
[DUEL] Epoch ended. INSTR misses = 113, DATA misses = 118. Winner = INSTR
[DUEL] Epoch ended. INSTR misses = 67, DATA misses = 57. Winner = DATA
[DUEL] Epoch ended. INSTR misses = 25, DATA misses = 35. Winner = INSTR
[DUEL] Epoch ended. INSTR misses = 110, DATA misses = 110. Winner = INSTR
[DUEL] Epoch ended. INSTR misses = 119, DATA misses = 126. Winner = INSTR
[DUEL] Epoch ended. INSTR misses = 75, DATA misses = 102. Winner = INSTR
[DUEL] Epoch ended. INSTR misses = 66, DATA misses = 73. Winner = INSTR
[DUEL] Epoch ended. INSTR misses = 91, DATA misses = 99. Winner = INSTR
[DUEL] Epoch ended. INSTR misses = 99, DATA misses = 103. Winner = INSTR
[DUEL] Epoch ended. INSTR misses = 99, DATA misses = 103. Winner = INSTR
[DUEL] Epoch ended. INSTR misses = 87, DATA misses = 97. Winner = INSTR
[DUEL] Epoch ended. INSTR misses = 85, DATA misses = 100. Winner = INSTR
[DUEL] Epoch ended. INSTR misses = 8, DATA misses = 9. Winner = INSTR
[DUEL] Epoch ended. INSTR misses = 30, DATA misses = 46. Winner = INSTR
[DUEL] Epoch ended. INSTR misses = 16, DATA misses = 19. Winner = INSTR
[DUEL] Epoch ended. INSTR misses = 19, DATA misses = 18. Winner = DATA
[DUEL] Epoch ended. INSTR misses = 28, DATA misses = 23. Winner = DATA
[DUEL] Epoch ended. INSTR misses = 49, DATA misses = 33. Winner = DATA
[DUEL] Epoch ended. INSTR misses = 43, DATA misses = 45. Winner = INSTR
Heartbeat CPU 0 instructions: 50000004 cycles: 28656149 heartbeat IPC: 0.836 cumulative IPC: 0.8464 (Simulation time: 00 hr 04 min 41 sec)
[DUEL] Epoch ended. INSTR misses = 36, DATA misses = 63. Winner = INSTR
[DUEL] Epoch ended. INSTR misses = 84, DATA misses = 79. Winner = DATA
[DUEL] Epoch ended. INSTR misses = 75, DATA misses = 72. Winner = DATA
[DUEL] Epoch ended. INSTR misses = 55, DATA misses = 55. Winner = INSTR
[DUEL] Epoch ended. INSTR misses = 39, DATA misses = 47. Winner = INSTR
[DUEL] Epoch ended. INSTR misses = 90, DATA misses = 75. Winner = DATA
[DUEL] Epoch ended. INSTR misses = 24, DATA misses = 35. Winner = INSTR
[DUEL] Epoch ended. INSTR misses = 101, DATA misses = 84. Winner = DATA
[DUEL] Epoch ended. INSTR misses = 79, DATA misses = 90. Winner = INSTR
[DUEL] Epoch ended. INSTR misses = 66, DATA misses = 62. Winner = DATA
[DUEL] Epoch ended. INSTR misses = 49, DATA misses = 58. Winner = INSTR
[DUEL] Epoch ended. INSTR misses = 64, DATA misses = 62. Winner = DATA
[DUEL] Epoch ended. INSTR misses = 152, DATA misses = 164. Winner = INSTR
[DUEL] Epoch ended. INSTR misses = 79, DATA misses = 111. Winner = INSTR
[DUEL] Epoch ended. INSTR misses = 73, DATA misses = 77. Winner = INSTR
[DUEL] Epoch ended. INSTR misses = 99, DATA misses = 106. Winner = INSTR
[DUEL] Epoch ended. INSTR misses = 66, DATA misses = 73. Winner = INSTR
[DUEL] Epoch ended. INSTR misses = 137, DATA misses = 121. Winner = DATA
[DUEL] Epoch ended. INSTR misses = 55, DATA misses = 100. Winner = INSTR
[DUEL] Epoch ended. INSTR misses = 50, DATA misses = 42. Winner = DATA
[DUEL] Epoch ended. INSTR misses = 15, DATA misses = 23. Winner = INSTR
[DUEL] Epoch ended. INSTR misses = 29, DATA misses = 41. Winner = INSTR
[DUEL] Epoch ended. INSTR misses = 5, DATA misses = 12. Winner = INSTR
[DUEL] Epoch ended. INSTR misses = 46, DATA misses = 40. Winner = DATA
[DUEL] Epoch ended. INSTR misses = 19, DATA misses = 13. Winner = DATA
[DUEL] Epoch ended. INSTR misses = 64, DATA misses = 55. Winner = DATA
[DUEL] Epoch ended. INSTR misses = 52, DATA misses = 62. Winner = INSTR
[DUEL] Epoch ended. INSTR misses = 81, DATA misses = 89. Winner = INSTR
[DUEL] Epoch ended. INSTR misses = 78, DATA misses = 66. Winner = DATA
[DUEL] Epoch ended. INSTR misses = 48, DATA misses = 67. Winner = INSTR
[DUEL] Epoch ended. INSTR misses = 47, DATA misses = 40. Winner = DATA
[DUEL] Epoch ended. INSTR misses = 83, DATA misses = 84. Winner = INSTR
[DUEL] Epoch ended. INSTR misses = 36, DATA misses = 22. Winner = DATA
[DUEL] Epoch ended. INSTR misses = 79, DATA misses = 84. Winner = INSTR
[DUEL] Epoch ended. INSTR misses = 93, DATA misses = 102. Winner = INSTR
[DUEL] Epoch ended. INSTR misses = 71, DATA misses = 62. Winner = DATA
[DUEL] Epoch ended. INSTR misses = 27, DATA misses = 28. Winner = INSTR
[DUEL] Epoch ended. INSTR misses = 95, DATA misses = 99. Winner = INSTR
[DUEL] Epoch ended. INSTR misses = 119, DATA misses = 126. Winner = INSTR
Heartbeat CPU 0 instructions: 60000004 cycles: 40448202 heartbeat IPC: 0.848 cumulative IPC: 0.847 (Simulation time: 00 hr 06 min 22 sec)
[DUEL] Epoch ended. INSTR misses = 73, DATA misses = 102. Winner = INSTR
[DUEL] Epoch ended. INSTR misses = 61, DATA misses = 72. Winner = INSTR
[DUEL] Epoch ended. INSTR misses = 100, DATA misses = 99. Winner = DATA
[DUEL] Epoch ended. INSTR misses = 97, DATA misses = 107. Winner = INSTR
[DUEL] Epoch ended. INSTR misses = 100, DATA misses = 107. Winner = INSTR
[DUEL] Epoch ended. INSTR misses = 86, DATA misses = 95. Winner = INSTR
[DUEL] Epoch ended. INSTR misses = 66, DATA misses = 92. Winner = INSTR
[DUEL] Epoch ended. INSTR misses = 28, DATA misses = 18. Winner = DATA
[DUEL] Epoch ended. INSTR misses = 30, DATA misses = 45. Winner = INSTR
[DUEL] Epoch ended. INSTR misses = 17, DATA misses = 18. Winner = INSTR
[DUEL] Epoch ended. INSTR misses = 27, DATA misses = 20. Winner = DATA
[DUEL] Epoch ended. INSTR misses = 35, DATA misses = 29. Winner = DATA
[DUEL] Epoch ended. INSTR misses = 59, DATA misses = 39. Winner = DATA
[DUEL] Epoch ended. INSTR misses = 25, DATA misses = 34. Winner = INSTR
[DUEL] Epoch ended. INSTR misses = 57, DATA misses = 66. Winner = INSTR
[DUEL] Epoch ended. INSTR misses = 60, DATA misses = 67. Winner = INSTR
[DUEL] Epoch ended. INSTR misses = 77, DATA misses = 70. Winner = DATA
[DUEL] Epoch ended. INSTR misses = 65, DATA misses = 77. Winner = INSTR
[DUEL] Epoch ended. INSTR misses = 54, DATA misses = 49. Winner = DATA
[DUEL] Epoch ended. INSTR misses = 62, DATA misses = 54. Winner = DATA
[DUEL] Epoch ended. INSTR misses = 43, DATA misses = 32. Winner = DATA
[DUEL] Epoch ended. INSTR misses = 94, DATA misses = 107. Winner = INSTR
[DUEL] Epoch ended. INSTR misses = 68, DATA misses = 71. Winner = INSTR
[DUEL] Epoch ended. INSTR misses = 73, DATA misses = 68. Winner = DATA
[DUEL] Epoch ended. INSTR misses = 42, DATA misses = 42. Winner = INSTR
[DUEL] Epoch ended. INSTR misses = 78, DATA misses = 83. Winner = INSTR
[DUEL] Epoch ended. INSTR misses = 128, DATA misses = 126. Winner = DATA
[DUEL] Epoch ended. INSTR misses = 91, DATA misses = 131. Winner = INSTR
[DUEL] Epoch ended. INSTR misses = 68, DATA misses = 77. Winner = INSTR
[DUEL] Epoch ended. INSTR misses = 61, DATA misses = 64. Winner = INSTR
[DUEL] Epoch ended. INSTR misses = 105, DATA misses = 119. Winner = INSTR
[DUEL] Epoch ended. INSTR misses = 127, DATA misses = 122. Winner = DATA
[DUEL] Epoch ended. INSTR misses = 79, DATA misses = 87. Winner = INSTR
[DUEL] Epoch ended. INSTR misses = 66, DATA misses = 78. Winner = INSTR
[DUEL] Epoch ended. INSTR misses = 4, DATA misses = 17. Winner = INSTR
[DUEL] Epoch ended. INSTR misses = 30, DATA misses = 43. Winner = INSTR
[DUEL] Epoch ended. INSTR misses = 16, DATA misses = 14. Winner = DATA
[DUEL] Epoch ended. INSTR misses = 35, DATA misses = 27. Winner = DATA
[DUEL] Epoch ended. INSTR misses = 28, DATA misses = 23. Winner = DATA
Heartbeat CPU 0 instructions: 70000006 cycles: 52042242 heartbeat IPC: 0.8625 cumulative IPC: 0.8508 (Simulation time: 00 hr 08 min 01 sec)
[DUEL] Epoch ended. INSTR misses = 65, DATA misses = 47. Winner = DATA
[DUEL] Epoch ended. INSTR misses = 45, DATA misses = 51. Winner = INSTR
[DUEL] Epoch ended. INSTR misses = 49, DATA misses = 67. Winner = INSTR
[DUEL] Epoch ended. INSTR misses = 61, DATA misses = 49. Winner = DATA
[DUEL] Epoch ended. INSTR misses = 74, DATA misses = 87. Winner = INSTR
[DUEL] Epoch ended. INSTR misses = 62, DATA misses = 55. Winner = DATA
[DUEL] Epoch ended. INSTR misses = 51, DATA misses = 57. Winner = INSTR
[DUEL] Epoch ended. INSTR misses = 91, DATA misses = 72. Winner = DATA
[DUEL] Epoch ended. INSTR misses = 27, DATA misses = 35. Winner = INSTR
[DUEL] Epoch ended. INSTR misses = 98, DATA misses = 93. Winner = DATA
[DUEL] Epoch ended. INSTR misses = 89, DATA misses = 111. Winner = INSTR
[DUEL] Epoch ended. INSTR misses = 65, DATA misses = 58. Winner = DATA
[DUEL] Epoch ended. INSTR misses = 51, DATA misses = 54. Winner = INSTR
[DUEL] Epoch ended. INSTR misses = 81, DATA misses = 82. Winner = INSTR
[DUEL] Epoch ended. INSTR misses = 137, DATA misses = 153. Winner = INSTR
[DUEL] Epoch ended. INSTR misses = 76, DATA misses = 114. Winner = INSTR
[DUEL] Epoch ended. INSTR misses = 76, DATA misses = 76. Winner = INSTR
[DUEL] Epoch ended. INSTR misses = 101, DATA misses = 111. Winner = INSTR
[DUEL] Epoch ended. INSTR misses = 65, DATA misses = 72. Winner = INSTR
[DUEL] Epoch ended. INSTR misses = 110, DATA misses = 94. Winner = DATA
[DUEL] Epoch ended. INSTR misses = 90, DATA misses = 130. Winner = INSTR
[DUEL] Epoch ended. INSTR misses = 48, DATA misses = 36. Winner = DATA
[DUEL] Epoch ended. INSTR misses = 17, DATA misses = 26. Winner = INSTR
[DUEL] Epoch ended. INSTR misses = 33, DATA misses = 48. Winner = INSTR
[DUEL] Epoch ended. INSTR misses = 4, DATA misses = 12. Winner = INSTR
[DUEL] Epoch ended. INSTR misses = 36, DATA misses = 29. Winner = DATA
[DUEL] Epoch ended. INSTR misses = 33, DATA misses = 24. Winner = DATA
[DUEL] Epoch ended. INSTR misses = 67, DATA misses = 55. Winner = DATA
[DUEL] Epoch ended. INSTR misses = 57, DATA misses = 52. Winner = DATA
[DUEL] Epoch ended. INSTR misses = 74, DATA misses = 84. Winner = INSTR
[DUEL] Epoch ended. INSTR misses = 80, DATA misses = 78. Winner = DATA
[DUEL] Epoch ended. INSTR misses = 60, DATA misses = 69. Winner = INSTR
[DUEL] Epoch ended. INSTR misses = 41, DATA misses = 53. Winner = INSTR
[DUEL] Epoch ended. INSTR misses = 75, DATA misses = 65. Winner = DATA
[DUEL] Epoch ended. INSTR misses = 44, DATA misses = 41. Winner = DATA
[DUEL] Epoch ended. INSTR misses = 61, DATA misses = 63. Winner = INSTR
[DUEL] Epoch ended. INSTR misses = 118, DATA misses = 147. Winner = INSTR
[DUEL] Epoch ended. INSTR misses = 77, DATA misses = 58. Winner = DATA
[DUEL] Epoch ended. INSTR misses = 25, DATA misses = 26. Winner = INSTR
Heartbeat CPU 0 instructions: 80000001 cycles: 63829775 heartbeat IPC: 0.8484 cumulative IPC: 0.8503 (Simulation time: 00 hr 09 min 42 sec)
[DUEL] Epoch ended. INSTR misses = 87, DATA misses = 101. Winner = INSTR
[DUEL] Epoch ended. INSTR misses = 77, DATA misses = 82. Winner = INSTR
[DUEL] Epoch ended. INSTR misses = 109, DATA misses = 114. Winner = INSTR
[DUEL] Epoch ended. INSTR misses = 76, DATA misses = 112. Winner = INSTR
[DUEL] Epoch ended. INSTR misses = 88, DATA misses = 93. Winner = INSTR
[DUEL] Epoch ended. INSTR misses = 111, DATA misses = 103. Winner = DATA
[DUEL] Epoch ended. INSTR misses = 101, DATA misses = 105. Winner = INSTR
[DUEL] Epoch ended. INSTR misses = 92, DATA misses = 103. Winner = INSTR
[DUEL] Epoch ended. INSTR misses = 70, DATA misses = 94. Winner = INSTR
[DUEL] Epoch ended. INSTR misses = 20, DATA misses = 13. Winner = DATA
[DUEL] Epoch ended. INSTR misses = 28, DATA misses = 45. Winner = INSTR
[DUEL] Epoch ended. INSTR misses = 18, DATA misses = 22. Winner = INSTR
[DUEL] Epoch ended. INSTR misses = 27, DATA misses = 19. Winner = DATA
[DUEL] Epoch ended. INSTR misses = 35, DATA misses = 29. Winner = DATA
[DUEL] Epoch ended. INSTR misses = 59, DATA misses = 39. Winner = DATA
[DUEL] Epoch ended. INSTR misses = 34, DATA misses = 33. Winner = DATA
[DUEL] Epoch ended. INSTR misses = 54, DATA misses = 66. Winner = INSTR
[DUEL] Epoch ended. INSTR misses = 60, DATA misses = 66. Winner = INSTR
[DUEL] Epoch ended. INSTR misses = 72, DATA misses = 65. Winner = DATA
[DUEL] Epoch ended. INSTR misses = 61, DATA misses = 73. Winner = INSTR
[DUEL] Epoch ended. INSTR misses = 55, DATA misses = 54. Winner = DATA
[DUEL] Epoch ended. INSTR misses = 63, DATA misses = 55. Winner = DATA
[DUEL] Epoch ended. INSTR misses = 61, DATA misses = 49. Winner = DATA
[DUEL] Epoch ended. INSTR misses = 108, DATA misses = 84. Winner = DATA
[DUEL] Epoch ended. INSTR misses = 76, DATA misses = 96. Winner = INSTR
[DUEL] Epoch ended. INSTR misses = 47, DATA misses = 41. Winner = DATA
[DUEL] Epoch ended. INSTR misses = 70, DATA misses = 78. Winner = INSTR
[DUEL] Epoch ended. INSTR misses = 64, DATA misses = 61. Winner = DATA
[DUEL] Epoch ended. INSTR misses = 150, DATA misses = 163. Winner = INSTR
[DUEL] Epoch ended. INSTR misses = 51, DATA misses = 79. Winner = INSTR
[DUEL] Epoch ended. INSTR misses = 99, DATA misses = 108. Winner = INSTR
[DUEL] Epoch ended. INSTR misses = 85, DATA misses = 96. Winner = INSTR
[DUEL] Epoch ended. INSTR misses = 79, DATA misses = 89. Winner = INSTR
[DUEL] Epoch ended. INSTR misses = 112, DATA misses = 94. Winner = DATA
[DUEL] Epoch ended. INSTR misses = 83, DATA misses = 128. Winner = INSTR
[DUEL] Epoch ended. INSTR misses = 48, DATA misses = 41. Winner = DATA
[DUEL] Epoch ended. INSTR misses = 14, DATA misses = 16. Winner = INSTR
[DUEL] Epoch ended. INSTR misses = 31, DATA misses = 47. Winner = INSTR
[DUEL] Epoch ended. INSTR misses = 4, DATA misses = 6. Winner = INSTR
Heartbeat CPU 0 instructions: 90000004 cycles: 75363032 heartbeat IPC: 0.8671 cumulative IPC: 0.8531 (Simulation time: 00 hr 11 min 20 sec)
[DUEL] Epoch ended. INSTR misses = 34, DATA misses = 30. Winner = DATA
[DUEL] Epoch ended. INSTR misses = 31, DATA misses = 23. Winner = DATA
[DUEL] Epoch ended. INSTR misses = 71, DATA misses = 54. Winner = DATA
[DUEL] Epoch ended. INSTR misses = 55, DATA misses = 51. Winner = DATA
[DUEL] Epoch ended. INSTR misses = 75, DATA misses = 85. Winner = INSTR
[DUEL] Epoch ended. INSTR misses = 79, DATA misses = 81. Winner = INSTR
[DUEL] Epoch ended. INSTR misses = 49, DATA misses = 71. Winner = INSTR
[DUEL] Epoch ended. INSTR misses = 47, DATA misses = 37. Winner = DATA
[DUEL] Epoch ended. INSTR misses = 68, DATA misses = 63. Winner = DATA
[DUEL] Epoch ended. INSTR misses = 52, DATA misses = 44. Winner = DATA
[DUEL] Epoch ended. INSTR misses = 49, DATA misses = 65. Winner = INSTR
[DUEL] Epoch ended. INSTR misses = 118, DATA misses = 115. Winner = DATA
[DUEL] Epoch ended. INSTR misses = 69, DATA misses = 61. Winner = DATA
[DUEL] Epoch ended. INSTR misses = 32, DATA misses = 36. Winner = INSTR
[DUEL] Epoch ended. INSTR misses = 96, DATA misses = 100. Winner = INSTR
[DUEL] Epoch ended. INSTR misses = 118, DATA misses = 126. Winner = INSTR
[DUEL] Epoch ended. INSTR misses = 75, DATA misses = 103. Winner = INSTR
[DUEL] Epoch ended. INSTR misses = 66, DATA misses = 73. Winner = INSTR
[DUEL] Epoch ended. INSTR misses = 90, DATA misses = 95. Winner = INSTR
[DUEL] Epoch ended. INSTR misses = 97, DATA misses = 108. Winner = INSTR
[DUEL] Epoch ended. INSTR misses = 99, DATA misses = 102. Winner = INSTR
[DUEL] Epoch ended. INSTR misses = 92, DATA misses = 97. Winner = INSTR
[DUEL] Epoch ended. INSTR misses = 81, DATA misses = 98. Winner = INSTR
[DUEL] Epoch ended. INSTR misses = 6, DATA misses = 12. Winner = INSTR
[DUEL] Epoch ended. INSTR misses = 30, DATA misses = 46. Winner = INSTR
[DUEL] Epoch ended. INSTR misses = 18, DATA misses = 18. Winner = INSTR
[DUEL] Epoch ended. INSTR misses = 35, DATA misses = 24. Winner = DATA
[DUEL] Epoch ended. INSTR misses = 28, DATA misses = 23. Winner = DATA
[DUEL] Epoch ended. INSTR misses = 65, DATA misses = 47. Winner = DATA
[DUEL] Epoch ended. INSTR misses = 47, DATA misses = 50. Winner = INSTR
[DUEL] Epoch ended. INSTR misses = 52, DATA misses = 66. Winner = INSTR
[DUEL] Epoch ended. INSTR misses = 59, DATA misses = 38. Winner = DATA
[DUEL] Epoch ended. INSTR misses = 71, DATA misses = 89. Winner = INSTR
[DUEL] Epoch ended. INSTR misses = 62, DATA misses = 54. Winner = DATA
[DUEL] Epoch ended. INSTR misses = 39, DATA misses = 47. Winner = INSTR
[DUEL] Epoch ended. INSTR misses = 94, DATA misses = 78. Winner = DATA
[DUEL] Epoch ended. INSTR misses = 29, DATA misses = 33. Winner = INSTR
[DUEL] Epoch ended. INSTR misses = 117, DATA misses = 104. Winner = DATA
[DUEL] Epoch ended. INSTR misses = 64, DATA misses = 71. Winner = INSTR
Heartbeat CPU 0 instructions: 100000009 cycles: 87204300 heartbeat IPC: 0.8445 cumulative IPC: 0.8518 (Simulation time: 00 hr 13 min 02 sec)
*** Reached end of trace: (0, "../traces/secret_traces/compute_fp/compute_fp_48.champsimtrace.xz")
[DUEL] Epoch ended. INSTR misses = 53, DATA misses = 50. Winner = DATA
[DUEL] Epoch ended. INSTR misses = 14, DATA misses = 15. Winner = INSTR
[DUEL] Epoch ended. INSTR misses = 16, DATA misses = 25. Winner = INSTR
[DUEL] Epoch ended. INSTR misses = 3, DATA misses = 0. Winner = DATA
[DUEL] Epoch ended. INSTR misses = 19, DATA misses = 21. Winner = INSTR
[DUEL] Epoch ended. INSTR misses = 28, DATA misses = 23. Winner = DATA
[DUEL] Epoch ended. INSTR misses = 52, DATA misses = 33. Winner = DATA
[DUEL] Epoch ended. INSTR misses = 52, DATA misses = 59. Winner = INSTR
[DUEL] Epoch ended. INSTR misses = 75, DATA misses = 96. Winner = INSTR
[DUEL] Epoch ended. INSTR misses = 66, DATA misses = 50. Winner = DATA
[DUEL] Epoch ended. INSTR misses = 65, DATA misses = 87. Winner = INSTR
[DUEL] Epoch ended. INSTR misses = 48, DATA misses = 47. Winner = DATA
[DUEL] Epoch ended. INSTR misses = 71, DATA misses = 66. Winner = DATA
[DUEL] Epoch ended. INSTR misses = 45, DATA misses = 37. Winner = DATA
[DUEL] Epoch ended. INSTR misses = 49, DATA misses = 67. Winner = INSTR
[DUEL] Epoch ended. INSTR misses = 118, DATA misses = 110. Winner = DATA
[DUEL] Epoch ended. INSTR misses = 58, DATA misses = 58. Winner = INSTR
[DUEL] Epoch ended. INSTR misses = 57, DATA misses = 58. Winner = INSTR
[DUEL] Epoch ended. INSTR misses = 80, DATA misses = 84. Winner = INSTR
[DUEL] Epoch ended. INSTR misses = 64, DATA misses = 62. Winner = DATA
[DUEL] Epoch ended. INSTR misses = 136, DATA misses = 151. Winner = INSTR
[DUEL] Epoch ended. INSTR misses = 79, DATA misses = 112. Winner = INSTR
[DUEL] Epoch ended. INSTR misses = 76, DATA misses = 76. Winner = INSTR
[DUEL] Epoch ended. INSTR misses = 100, DATA misses = 111. Winner = INSTR
[DUEL] Epoch ended. INSTR misses = 68, DATA misses = 74. Winner = INSTR
[DUEL] Epoch ended. INSTR misses = 137, DATA misses = 123. Winner = DATA
[DUEL] Epoch ended. INSTR misses = 56, DATA misses = 103. Winner = INSTR
[DUEL] Epoch ended. INSTR misses = 47, DATA misses = 37. Winner = DATA
[DUEL] Epoch ended. INSTR misses = 14, DATA misses = 24. Winner = INSTR
[DUEL] Epoch ended. INSTR misses = 32, DATA misses = 44. Winner = INSTR
[DUEL] Epoch ended. INSTR misses = 2, DATA misses = 1. Winner = DATA
[DUEL] Epoch ended. INSTR misses = 18, DATA misses = 15. Winner = DATA
[DUEL] Epoch ended. INSTR misses = 28, DATA misses = 23. Winner = DATA
[DUEL] Epoch ended. INSTR misses = 51, DATA misses = 33. Winner = DATA
[DUEL] Epoch ended. INSTR misses = 52, DATA misses = 59. Winner = INSTR
[DUEL] Epoch ended. INSTR misses = 77, DATA misses = 98. Winner = INSTR
[DUEL] Epoch ended. INSTR misses = 63, DATA misses = 47. Winner = DATA
[DUEL] Epoch ended. INSTR misses = 66, DATA misses = 87. Winner = INSTR
[DUEL] Epoch ended. INSTR misses = 47, DATA misses = 39. Winner = DATA
Heartbeat CPU 0 instructions: 110000004 cycles: 98703494 heartbeat IPC: 0.8696 cumulative IPC: 0.854 (Simulation time: 00 hr 14 min 40 sec)
[DUEL] Epoch ended. INSTR misses = 36, DATA misses = 32. Winner = DATA
[DUEL] Epoch ended. INSTR misses = 80, DATA misses = 77. Winner = DATA
[DUEL] Epoch ended. INSTR misses = 58, DATA misses = 58. Winner = INSTR
[DUEL] Epoch ended. INSTR misses = 98, DATA misses = 93. Winner = DATA
[DUEL] Epoch ended. INSTR misses = 78, DATA misses = 95. Winner = INSTR
[DUEL] Epoch ended. INSTR misses = 64, DATA misses = 54. Winner = DATA
[DUEL] Epoch ended. INSTR misses = 60, DATA misses = 68. Winner = INSTR
[DUEL] Epoch ended. INSTR misses = 64, DATA misses = 63. Winner = DATA
[DUEL] Epoch ended. INSTR misses = 153, DATA misses = 169. Winner = INSTR
[DUEL] Epoch ended. INSTR misses = 86, DATA misses = 112. Winner = INSTR
[DUEL] Epoch ended. INSTR misses = 68, DATA misses = 72. Winner = INSTR
[DUEL] Epoch ended. INSTR misses = 94, DATA misses = 96. Winner = INSTR
[DUEL] Epoch ended. INSTR misses = 72, DATA misses = 90. Winner = INSTR
[DUEL] Epoch ended. INSTR misses = 111, DATA misses = 93. Winner = DATA
[DUEL] Epoch ended. INSTR misses = 76, DATA misses = 116. Winner = INSTR
[DUEL] Epoch ended. INSTR misses = 59, DATA misses = 60. Winner = INSTR
[DUEL] Epoch ended. INSTR misses = 15, DATA misses = 15. Winner = INSTR
[DUEL] Epoch ended. INSTR misses = 31, DATA misses = 47. Winner = INSTR
[DUEL] Epoch ended. INSTR misses = 3, DATA misses = 15. Winner = INSTR
[DUEL] Epoch ended. INSTR misses = 19, DATA misses = 21. Winner = INSTR
[DUEL] Epoch ended. INSTR misses = 28, DATA misses = 23. Winner = DATA
[DUEL] Epoch ended. INSTR misses = 57, DATA misses = 33. Winner = DATA
[DUEL] Epoch ended. INSTR misses = 46, DATA misses = 53. Winner = INSTR
[DUEL] Epoch ended. INSTR misses = 59, DATA misses = 78. Winner = INSTR
[DUEL] Epoch ended. INSTR misses = 84, DATA misses = 76. Winner = DATA
[DUEL] Epoch ended. INSTR misses = 43, DATA misses = 65. Winner = INSTR
[DUEL] Epoch ended. INSTR misses = 75, DATA misses = 61. Winner = DATA
[DUEL] Epoch ended. INSTR misses = 41, DATA misses = 40. Winner = DATA
[DUEL] Epoch ended. INSTR misses = 74, DATA misses = 67. Winner = DATA
[DUEL] Epoch ended. INSTR misses = 61, DATA misses = 60. Winner = DATA
[DUEL] Epoch ended. INSTR misses = 108, DATA misses = 87. Winner = DATA
[DUEL] Epoch ended. INSTR misses = 76, DATA misses = 101. Winner = INSTR
[DUEL] Epoch ended. INSTR misses = 55, DATA misses = 54. Winner = DATA
[DUEL] Epoch ended. INSTR misses = 62, DATA misses = 68. Winner = INSTR
[DUEL] Epoch ended. INSTR misses = 64, DATA misses = 63. Winner = DATA
[DUEL] Epoch ended. INSTR misses = 152, DATA misses = 169. Winner = INSTR
[DUEL] Epoch ended. INSTR misses = 80, DATA misses = 112. Winner = INSTR
[DUEL] Epoch ended. INSTR misses = 77, DATA misses = 76. Winner = DATA
[DUEL] Epoch ended. INSTR misses = 89, DATA misses = 97. Winner = INSTR
Heartbeat CPU 0 instructions: 120000011 cycles: 110068413 heartbeat IPC: 0.8799 cumulative IPC: 0.8568 (Simulation time: 00 hr 16 min 17 sec)
[DUEL] Epoch ended. INSTR misses = 80, DATA misses = 88. Winner = INSTR
[DUEL] Epoch ended. INSTR misses = 117, DATA misses = 96. Winner = DATA
[DUEL] Epoch ended. INSTR misses = 81, DATA misses = 128. Winner = INSTR
[DUEL] Epoch ended. INSTR misses = 41, DATA misses = 43. Winner = INSTR
[DUEL] Epoch ended. INSTR misses = 14, DATA misses = 16. Winner = INSTR
[DUEL] Epoch ended. INSTR misses = 31, DATA misses = 47. Winner = INSTR
[DUEL] Epoch ended. INSTR misses = 3, DATA misses = 9. Winner = INSTR
[DUEL] Epoch ended. INSTR misses = 19, DATA misses = 13. Winner = DATA
[DUEL] Epoch ended. INSTR misses = 28, DATA misses = 23. Winner = DATA
[DUEL] Epoch ended. INSTR misses = 51, DATA misses = 33. Winner = DATA
[DUEL] Epoch ended. INSTR misses = 49, DATA misses = 53. Winner = INSTR
[DUEL] Epoch ended. INSTR misses = 56, DATA misses = 75. Winner = INSTR
[DUEL] Epoch ended. INSTR misses = 86, DATA misses = 72. Winner = DATA
[DUEL] Epoch ended. INSTR misses = 71, DATA misses = 84. Winner = INSTR
[DUEL] Epoch ended. INSTR misses = 42, DATA misses = 43. Winner = INSTR
[DUEL] Epoch ended. INSTR misses = 39, DATA misses = 38. Winner = DATA
[DUEL] Epoch ended. INSTR misses = 77, DATA misses = 69. Winner = DATA
[DUEL] Epoch ended. INSTR misses = 61, DATA misses = 59. Winner = DATA
[DUEL] Epoch ended. INSTR misses = 111, DATA misses = 97. Winner = DATA
[DUEL] Epoch ended. INSTR misses = 73, DATA misses = 91. Winner = INSTR
[DUEL] Epoch ended. INSTR misses = 53, DATA misses = 52. Winner = DATA
[DUEL] Epoch ended. INSTR misses = 78, DATA misses = 83. Winner = INSTR
[DUEL] Epoch ended. INSTR misses = 63, DATA misses = 61. Winner = DATA
[DUEL] Epoch ended. INSTR misses = 137, DATA misses = 156. Winner = INSTR
[DUEL] Epoch ended. INSTR misses = 86, DATA misses = 113. Winner = INSTR
[DUEL] Epoch ended. INSTR misses = 67, DATA misses = 71. Winner = INSTR
[DUEL] Epoch ended. INSTR misses = 99, DATA misses = 111. Winner = INSTR
[DUEL] Epoch ended. INSTR misses = 70, DATA misses = 74. Winner = INSTR
[DUEL] Epoch ended. INSTR misses = 136, DATA misses = 122. Winner = DATA
[DUEL] Epoch ended. INSTR misses = 57, DATA misses = 104. Winner = INSTR
[DUEL] Epoch ended. INSTR misses = 45, DATA misses = 36. Winner = DATA
[DUEL] Epoch ended. INSTR misses = 16, DATA misses = 25. Winner = INSTR
[DUEL] Epoch ended. INSTR misses = 29, DATA misses = 43. Winner = INSTR
[DUEL] Epoch ended. INSTR misses = 4, DATA misses = 11. Winner = INSTR
[DUEL] Epoch ended. INSTR misses = 30, DATA misses = 25. Winner = DATA
[DUEL] Epoch ended. INSTR misses = 18, DATA misses = 13. Winner = DATA
[DUEL] Epoch ended. INSTR misses = 49, DATA misses = 42. Winner = DATA
[DUEL] Epoch ended. INSTR misses = 54, DATA misses = 50. Winner = DATA
[DUEL] Epoch ended. INSTR misses = 81, DATA misses = 96. Winner = INSTR
Heartbeat CPU 0 instructions: 130000001 cycles: 121671935 heartbeat IPC: 0.8618 cumulative IPC: 0.8573 (Simulation time: 00 hr 17 min 56 sec)
Simulation finished CPU 0 instructions: 100000011 cycles: 116644626 cumulative IPC: 0.8573 (Simulation time: 00 hr 17 min 56 sec)
Simulation complete CPU 0 instructions: 100000011 cycles: 116644626 cumulative IPC: 0.8573 (Simulation time: 00 hr 17 min 56 sec)

ChampSim completed all CPUs

=== Simulation ===
CPU 0 runs ../traces/secret_traces/compute_fp/compute_fp_48.champsimtrace.xz
Region of Interest Statistics

CPU 0 cumulative IPC: 0.8573 instructions: 100000011 cycles: 116644626
CPU 0 Branch Prediction Accuracy: 99.99% MPKI: 0.00271 Average ROB Occupancy at Mispredict: 290.7
Branch type MPKI
BRANCH_DIRECT_JUMP: 0
BRANCH_INDIRECT: 0
BRANCH_CONDITIONAL: 0.00271
BRANCH_DIRECT_CALL: 0
BRANCH_INDIRECT_CALL: 0
BRANCH_RETURN: 0

LLC TOTAL        ACCESS:    7130990 HIT:    1318525 MISS:    5812465
LLC LOAD         ACCESS:     940409 HIT:     160724 MISS:     779685
LLC RFO          ACCESS:        201 HIT:         11 MISS:        190
LLC PREFETCH     ACCESS:    2764403 HIT:     422535 MISS:    2341868
LLC WRITE        ACCESS:    3385036 HIT:     730240 MISS:    2654796
LLC TRANSLATION  ACCESS:      40941 HIT:       5015 MISS:      35926
LLC PREFETCH REQUESTED:          0 ISSUED:          0 USEFUL:          0 USELESS:          0
LLC AVERAGE MISS LATENCY: 265.6 cycles
cpu0_DTLB TOTAL        ACCESS:   19287856 HIT:   18796453 MISS:     491403
cpu0_DTLB LOAD         ACCESS:   19287856 HIT:   18796453 MISS:     491403
cpu0_DTLB RFO          ACCESS:          0 HIT:          0 MISS:          0
cpu0_DTLB PREFETCH     ACCESS:          0 HIT:          0 MISS:          0
cpu0_DTLB WRITE        ACCESS:          0 HIT:          0 MISS:          0
cpu0_DTLB TRANSLATION  ACCESS:          0 HIT:          0 MISS:          0
cpu0_DTLB PREFETCH REQUESTED:          0 ISSUED:          0 USEFUL:          0 USELESS:          0
cpu0_DTLB AVERAGE MISS LATENCY: 79.45 cycles
cpu0_ITLB TOTAL        ACCESS:       8890 HIT:       8890 MISS:          0
cpu0_ITLB LOAD         ACCESS:       8890 HIT:       8890 MISS:          0
cpu0_ITLB RFO          ACCESS:          0 HIT:          0 MISS:          0
cpu0_ITLB PREFETCH     ACCESS:          0 HIT:          0 MISS:          0
cpu0_ITLB WRITE        ACCESS:          0 HIT:          0 MISS:          0
cpu0_ITLB TRANSLATION  ACCESS:          0 HIT:          0 MISS:          0
cpu0_ITLB PREFETCH REQUESTED:          0 ISSUED:          0 USEFUL:          0 USELESS:          0
cpu0_ITLB AVERAGE MISS LATENCY: -nan cycles
cpu0_L1D TOTAL        ACCESS:   46917885 HIT:   36237527 MISS:   10680358
cpu0_L1D LOAD         ACCESS:   13635486 HIT:    8311451 MISS:    5324035
cpu0_L1D RFO          ACCESS:          0 HIT:          0 MISS:          0
cpu0_L1D PREFETCH     ACCESS:   19565383 HIT:   14324643 MISS:    5240740
cpu0_L1D WRITE        ACCESS:   13557172 HIT:   13550614 MISS:       6558
cpu0_L1D TRANSLATION  ACCESS:     159844 HIT:      50819 MISS:     109025
cpu0_L1D PREFETCH REQUESTED:   81268260 ISSUED:   19565351 USEFUL:    1277919 USELESS:     121444
cpu0_L1D AVERAGE MISS LATENCY: 92.61 cycles
cpu0_L1I TOTAL        ACCESS:      12982 HIT:      12673 MISS:        309
cpu0_L1I LOAD         ACCESS:       6262 HIT:       6070 MISS:        192
cpu0_L1I RFO          ACCESS:          0 HIT:          0 MISS:          0
cpu0_L1I PREFETCH     ACCESS:       6720 HIT:       6603 MISS:        117
cpu0_L1I WRITE        ACCESS:          0 HIT:          0 MISS:          0
cpu0_L1I TRANSLATION  ACCESS:          0 HIT:          0 MISS:          0
cpu0_L1I PREFETCH REQUESTED:       9037 ISSUED:       6720 USEFUL:         78 USELESS:          0
cpu0_L1I AVERAGE MISS LATENCY: 283.5 cycles
cpu0_L2C TOTAL        ACCESS:   16237099 HIT:    5690787 MISS:   10546312
cpu0_L2C LOAD         ACCESS:    2198579 HIT:     480639 MISS:    1717940
cpu0_L2C RFO          ACCESS:       5819 HIT:       5618 MISS:        201
cpu0_L2C PREFETCH     ACCESS:   10533020 HIT:    1745813 MISS:    8787207
cpu0_L2C WRITE        ACCESS:    3393193 HIT:    3393170 MISS:         23
cpu0_L2C TRANSLATION  ACCESS:     106488 HIT:      65547 MISS:      40941
cpu0_L2C PREFETCH REQUESTED:    6395529 ISSUED:    6337641 USEFUL:     731528 USELESS:     127221
cpu0_L2C AVERAGE MISS LATENCY: 136.3 cycles
cpu0_STLB TOTAL        ACCESS:     177016 HIT:      17243 MISS:     159773
cpu0_STLB LOAD         ACCESS:     177016 HIT:      17243 MISS:     159773
cpu0_STLB RFO          ACCESS:          0 HIT:          0 MISS:          0
cpu0_STLB PREFETCH     ACCESS:          0 HIT:          0 MISS:          0
cpu0_STLB WRITE        ACCESS:          0 HIT:          0 MISS:          0
cpu0_STLB TRANSLATION  ACCESS:          0 HIT:          0 MISS:          0
cpu0_STLB PREFETCH REQUESTED:          0 ISSUED:          0 USEFUL:          0 USELESS:          0
cpu0_STLB AVERAGE MISS LATENCY: 262.1 cycles

DRAM Statistics

Channel 0 RQ ROW_BUFFER_HIT:     594066
  ROW_BUFFER_MISS:     990228
 AVG DBUS CONGESTED CYCLE: 3.968
WQ ROW_BUFFER_HIT: Channel 0 
  ROW_BUFFER_MISS:      82436
  FULL:    1325521

Channel 1 RQ ROW_BUFFER_HIT:     590412
  ROW_BUFFER_MISS:     982914
 AVG DBUS CONGESTED CYCLE: 3.96
WQ ROW_BUFFER_HIT: Channel 1 
  ROW_BUFFER_MISS:      86708
  FULL:    1321758
BERTI TO_L1: 40304041 TO_L2: 64588949 TO_L2_BC_MSHR: 16666630
BERTI AVG_LAT: 283.331 NUM_TRACK_LATENCY: 4700167 NUM_CANT_TRACK_LATENCY: 642
BERTI CROSS_PAGE 17077169 NO_CROSS_PAGE: 87815821
BERTI FOUND_BERTI: 22146841 NO_FOUND_BERTI: 658496
BERTI AVERAGE_ISSUED: 3.18268
CPU 0 L1I Entangling prefetcher final stats
IP accesses: 81af 206bc0 207 / 6262
IP misses: 4374 10dd00 46 / 192
IP hits: 0 0 0 / 0
IP late: 3b33 eccc0 9 / 61
IP wrong: 0 0 0 / 0
miss rate: 0.0306612
coverage: 0
coverage_late: 0.317709
accuracy: 0
accuracy_late: 1
discarded: 0
evicts entangled j table: 0
evicts entangled k table: 0
max bb size: 15
formats: 0 0 2 0 2 2 0 
hist_lookups: 0 0 1 0 1 2 2 2 1 0 1 0 0 0 0 0 0 205 
hist_lookups_evict: 0 %
hist_lookups_shortlat: 95.3489 %
bb_found_hist: 0 1044 414 153 30 45 18 14 0 46 0 0 120 0 0 9 0 0 0 0 0 0 0 0 0 0 0 0 0 0 0 0 0 0 0 0 0 0 0 0 0 0 0 0 0 0 0 0 0 0 0 0 0 0 0 0 0 0 0 0 0 0 0 0 
bb_found_summary: 4871 1893 2.57317
entangled_found_hist: 0 596 176 236 20 0 0 0 
entangled_found_summary: 1736 1028 1.68872
bb_ent_found_hist: 0 528 345 166 18 129 18 0 0 9 0 0 0 0 0 9 0 0 0 0 0 0 0 0 0 0 0 0 0 0 0 0 0 0 0 0 0 0 0 0 0 0 0 0 0 0 0 0 0 0 0 0 0 0 0 0 0 0 0 0 0 0 0 0 
bb_ent_found_summary: 2757 1222 2.25614
