WARNING: physical memory size is smaller than virtual memory size.

*** ChampSim Multicore Out-of-Order Simulator ***
Warmup Instructions: 30000000
Simulation Instructions: 100000000
Number of CPUs: 1
Page size: 4096

BTB:
Basic BTB sets: 1024 ways: 8
Indirect:
history lengths: 0 0 10 16 27 44 60 96 109 219 449 487 714 1313 2146 3881 
ITTAGE tables: 64768 bytes;Region table: 240 bytes;IUM: 384 bytes;Total Storage= 65392 bytes;
RAS:
RAS size: 64
[LLC] INSTR Demand IPV: 1 2 2 1 4 Prefetch IPV: 1 2 1 1 4
[LLC] DATA  Demand IPV: 1 1 1 2 4 Prefetch IPV: 1 1 2 2 4
Berti Prefetcher
CPU 0 Entangling prefetcher
Off-chip DRAM Size: 8 GiB Channels: 2 Width: 64-bit Data Race: 6400 MT/s
[DUEL] Epoch ended. INSTR misses = 14, DATA misses = 16. Winner = INSTR
[DUEL] Epoch ended. INSTR misses = 97, DATA misses = 98. Winner = INSTR
[DUEL] Epoch ended. INSTR misses = 0, DATA misses = 1. Winner = INSTR
[DUEL] Epoch ended. INSTR misses = 55, DATA misses = 73. Winner = INSTR
[DUEL] Epoch ended. INSTR misses = 37, DATA misses = 35. Winner = DATA
[DUEL] Epoch ended. INSTR misses = 62, DATA misses = 54. Winner = DATA
[DUEL] Epoch ended. INSTR misses = 51, DATA misses = 43. Winner = DATA
[DUEL] Epoch ended. INSTR misses = 55, DATA misses = 66. Winner = INSTR
[DUEL] Epoch ended. INSTR misses = 46, DATA misses = 35. Winner = DATA
[DUEL] Epoch ended. INSTR misses = 65, DATA misses = 53. Winner = DATA
[DUEL] Epoch ended. INSTR misses = 61, DATA misses = 64. Winner = INSTR
[DUEL] Epoch ended. INSTR misses = 76, DATA misses = 65. Winner = DATA
[DUEL] Epoch ended. INSTR misses = 69, DATA misses = 79. Winner = INSTR
[DUEL] Epoch ended. INSTR misses = 54, DATA misses = 54. Winner = INSTR
[DUEL] Epoch ended. INSTR misses = 51, DATA misses = 48. Winner = DATA
[DUEL] Epoch ended. INSTR misses = 51, DATA misses = 84. Winner = INSTR
[DUEL] Epoch ended. INSTR misses = 59, DATA misses = 37. Winner = DATA
[DUEL] Epoch ended. INSTR misses = 75, DATA misses = 58. Winner = DATA
[DUEL] Epoch ended. INSTR misses = 90, DATA misses = 54. Winner = DATA
[DUEL] Epoch ended. INSTR misses = 102, DATA misses = 106. Winner = INSTR
[DUEL] Epoch ended. INSTR misses = 58, DATA misses = 53. Winner = DATA
[DUEL] Epoch ended. INSTR misses = 62, DATA misses = 51. Winner = DATA
[DUEL] Epoch ended. INSTR misses = 59, DATA misses = 54. Winner = DATA
[DUEL] Epoch ended. INSTR misses = 45, DATA misses = 55. Winner = INSTR
[DUEL] Epoch ended. INSTR misses = 70, DATA misses = 56. Winner = DATA
[DUEL] Epoch ended. INSTR misses = 78, DATA misses = 69. Winner = DATA
[DUEL] Epoch ended. INSTR misses = 67, DATA misses = 89. Winner = INSTR
[DUEL] Epoch ended. INSTR misses = 72, DATA misses = 70. Winner = DATA
[DUEL] Epoch ended. INSTR misses = 43, DATA misses = 50. Winner = INSTR
[DUEL] Epoch ended. INSTR misses = 52, DATA misses = 89. Winner = INSTR
[DUEL] Epoch ended. INSTR misses = 45, DATA misses = 64. Winner = INSTR
[DUEL] Epoch ended. INSTR misses = 48, DATA misses = 94. Winner = INSTR
[DUEL] Epoch ended. INSTR misses = 77, DATA misses = 77. Winner = INSTR
[DUEL] Epoch ended. INSTR misses = 67, DATA misses = 42. Winner = DATA
[DUEL] Epoch ended. INSTR misses = 74, DATA misses = 77. Winner = INSTR
[DUEL] Epoch ended. INSTR misses = 57, DATA misses = 44. Winner = DATA
[DUEL] Epoch ended. INSTR misses = 95, DATA misses = 62. Winner = DATA
[DUEL] Epoch ended. INSTR misses = 54, DATA misses = 64. Winner = INSTR
[DUEL] Epoch ended. INSTR misses = 53, DATA misses = 65. Winner = INSTR
Heartbeat CPU 0 instructions: 10000002 cycles: 1716938 heartbeat IPC: 5.824 cumulative IPC: 5.824 (Simulation time: 00 hr 00 min 29 sec)
[DUEL] Epoch ended. INSTR misses = 40, DATA misses = 55. Winner = INSTR
[DUEL] Epoch ended. INSTR misses = 72, DATA misses = 76. Winner = INSTR
[DUEL] Epoch ended. INSTR misses = 64, DATA misses = 70. Winner = INSTR
[DUEL] Epoch ended. INSTR misses = 99, DATA misses = 96. Winner = DATA
[DUEL] Epoch ended. INSTR misses = 88, DATA misses = 114. Winner = INSTR
[DUEL] Epoch ended. INSTR misses = 53, DATA misses = 71. Winner = INSTR
[DUEL] Epoch ended. INSTR misses = 66, DATA misses = 64. Winner = DATA
[DUEL] Epoch ended. INSTR misses = 47, DATA misses = 60. Winner = INSTR
[DUEL] Epoch ended. INSTR misses = 88, DATA misses = 75. Winner = DATA
[DUEL] Epoch ended. INSTR misses = 86, DATA misses = 48. Winner = DATA
[DUEL] Epoch ended. INSTR misses = 68, DATA misses = 86. Winner = INSTR
[DUEL] Epoch ended. INSTR misses = 86, DATA misses = 62. Winner = DATA
[DUEL] Epoch ended. INSTR misses = 52, DATA misses = 62. Winner = INSTR
[DUEL] Epoch ended. INSTR misses = 54, DATA misses = 61. Winner = INSTR
[DUEL] Epoch ended. INSTR misses = 64, DATA misses = 62. Winner = DATA
[DUEL] Epoch ended. INSTR misses = 47, DATA misses = 45. Winner = DATA
[DUEL] Epoch ended. INSTR misses = 63, DATA misses = 82. Winner = INSTR
[DUEL] Epoch ended. INSTR misses = 70, DATA misses = 46. Winner = DATA
[DUEL] Epoch ended. INSTR misses = 64, DATA misses = 71. Winner = INSTR
[DUEL] Epoch ended. INSTR misses = 75, DATA misses = 57. Winner = DATA
[DUEL] Epoch ended. INSTR misses = 44, DATA misses = 48. Winner = INSTR
[DUEL] Epoch ended. INSTR misses = 64, DATA misses = 55. Winner = DATA
[DUEL] Epoch ended. INSTR misses = 53, DATA misses = 57. Winner = INSTR
[DUEL] Epoch ended. INSTR misses = 53, DATA misses = 71. Winner = INSTR
[DUEL] Epoch ended. INSTR misses = 61, DATA misses = 36. Winner = DATA
[DUEL] Epoch ended. INSTR misses = 68, DATA misses = 65. Winner = DATA
[DUEL] Epoch ended. INSTR misses = 87, DATA misses = 83. Winner = DATA
[DUEL] Epoch ended. INSTR misses = 61, DATA misses = 35. Winner = DATA
[DUEL] Epoch ended. INSTR misses = 75, DATA misses = 77. Winner = INSTR
[DUEL] Epoch ended. INSTR misses = 47, DATA misses = 63. Winner = INSTR
[DUEL] Epoch ended. INSTR misses = 68, DATA misses = 49. Winner = DATA
[DUEL] Epoch ended. INSTR misses = 50, DATA misses = 61. Winner = INSTR
[DUEL] Epoch ended. INSTR misses = 54, DATA misses = 54. Winner = INSTR
[DUEL] Epoch ended. INSTR misses = 67, DATA misses = 52. Winner = DATA
[DUEL] Epoch ended. INSTR misses = 81, DATA misses = 58. Winner = DATA
[DUEL] Epoch ended. INSTR misses = 52, DATA misses = 50. Winner = DATA
[DUEL] Epoch ended. INSTR misses = 68, DATA misses = 44. Winner = DATA
[DUEL] Epoch ended. INSTR misses = 42, DATA misses = 53. Winner = INSTR
[DUEL] Epoch ended. INSTR misses = 66, DATA misses = 75. Winner = INSTR
Heartbeat CPU 0 instructions: 20000001 cycles: 3384833 heartbeat IPC: 5.996 cumulative IPC: 5.909 (Simulation time: 00 hr 00 min 58 sec)
[DUEL] Epoch ended. INSTR misses = 32, DATA misses = 38. Winner = INSTR
[DUEL] Epoch ended. INSTR misses = 77, DATA misses = 80. Winner = INSTR
[DUEL] Epoch ended. INSTR misses = 54, DATA misses = 48. Winner = DATA
[DUEL] Epoch ended. INSTR misses = 60, DATA misses = 47. Winner = DATA
[DUEL] Epoch ended. INSTR misses = 69, DATA misses = 63. Winner = DATA
[DUEL] Epoch ended. INSTR misses = 60, DATA misses = 68. Winner = INSTR
[DUEL] Epoch ended. INSTR misses = 59, DATA misses = 68. Winner = INSTR
[DUEL] Epoch ended. INSTR misses = 90, DATA misses = 90. Winner = INSTR
[DUEL] Epoch ended. INSTR misses = 88, DATA misses = 51. Winner = DATA
[DUEL] Epoch ended. INSTR misses = 33, DATA misses = 58. Winner = INSTR
[DUEL] Epoch ended. INSTR misses = 78, DATA misses = 82. Winner = INSTR
[DUEL] Epoch ended. INSTR misses = 44, DATA misses = 62. Winner = INSTR
[DUEL] Epoch ended. INSTR misses = 62, DATA misses = 55. Winner = DATA
[DUEL] Epoch ended. INSTR misses = 46, DATA misses = 55. Winner = INSTR
[DUEL] Epoch ended. INSTR misses = 85, DATA misses = 71. Winner = DATA
[DUEL] Epoch ended. INSTR misses = 45, DATA misses = 50. Winner = INSTR
[DUEL] Epoch ended. INSTR misses = 76, DATA misses = 65. Winner = DATA
[DUEL] Epoch ended. INSTR misses = 45, DATA misses = 67. Winner = INSTR
[DUEL] Epoch ended. INSTR misses = 91, DATA misses = 79. Winner = DATA
[DUEL] Epoch ended. INSTR misses = 53, DATA misses = 48. Winner = DATA
[DUEL] Epoch ended. INSTR misses = 40, DATA misses = 13. Winner = DATA
[DUEL] Epoch ended. INSTR misses = 94, DATA misses = 109. Winner = INSTR
[DUEL] Epoch ended. INSTR misses = 63, DATA misses = 36. Winner = DATA
[DUEL] Epoch ended. INSTR misses = 51, DATA misses = 57. Winner = INSTR
[DUEL] Epoch ended. INSTR misses = 83, DATA misses = 68. Winner = DATA
[DUEL] Epoch ended. INSTR misses = 50, DATA misses = 65. Winner = INSTR
[DUEL] Epoch ended. INSTR misses = 77, DATA misses = 66. Winner = DATA
[DUEL] Epoch ended. INSTR misses = 46, DATA misses = 57. Winner = INSTR
[DUEL] Epoch ended. INSTR misses = 48, DATA misses = 38. Winner = DATA
[DUEL] Epoch ended. INSTR misses = 83, DATA misses = 81. Winner = DATA
[DUEL] Epoch ended. INSTR misses = 53, DATA misses = 45. Winner = DATA
[DUEL] Epoch ended. INSTR misses = 82, DATA misses = 56. Winner = DATA
[DUEL] Epoch ended. INSTR misses = 74, DATA misses = 91. Winner = INSTR
[DUEL] Epoch ended. INSTR misses = 88, DATA misses = 83. Winner = DATA
[DUEL] Epoch ended. INSTR misses = 56, DATA misses = 74. Winner = INSTR
[DUEL] Epoch ended. INSTR misses = 48, DATA misses = 50. Winner = INSTR
[DUEL] Epoch ended. INSTR misses = 70, DATA misses = 46. Winner = DATA
[DUEL] Epoch ended. INSTR misses = 81, DATA misses = 94. Winner = INSTR
[DUEL] Epoch ended. INSTR misses = 89, DATA misses = 71. Winner = DATA
Heartbeat CPU 0 instructions: 30000011 cycles: 5052111 heartbeat IPC: 5.998 cumulative IPC: 5.938 (Simulation time: 00 hr 01 min 28 sec)
Warmup finished CPU 0 instructions: 30000011 cycles: 5052112 cumulative IPC: 5.938 (Simulation time: 00 hr 01 min 28 sec)
Warmup complete CPU 0 instructions: 30000011 cycles: 5052112 cumulative IPC: 5.938 (Simulation time: 00 hr 01 min 28 sec)
[DUEL] Epoch ended. INSTR misses = 77, DATA misses = 78. Winner = INSTR
[DUEL] Epoch ended. INSTR misses = 79, DATA misses = 80. Winner = INSTR
[DUEL] Epoch ended. INSTR misses = 81, DATA misses = 77. Winner = DATA
[DUEL] Epoch ended. INSTR misses = 75, DATA misses = 75. Winner = INSTR
[DUEL] Epoch ended. INSTR misses = 65, DATA misses = 56. Winner = DATA
[DUEL] Epoch ended. INSTR misses = 48, DATA misses = 50. Winner = INSTR
[DUEL] Epoch ended. INSTR misses = 54, DATA misses = 64. Winner = INSTR
[DUEL] Epoch ended. INSTR misses = 88, DATA misses = 83. Winner = DATA
[DUEL] Epoch ended. INSTR misses = 113, DATA misses = 116. Winner = INSTR
[DUEL] Epoch ended. INSTR misses = 79, DATA misses = 77. Winner = DATA
[DUEL] Epoch ended. INSTR misses = 78, DATA misses = 74. Winner = DATA
[DUEL] Epoch ended. INSTR misses = 64, DATA misses = 78. Winner = INSTR
[DUEL] Epoch ended. INSTR misses = 68, DATA misses = 62. Winner = DATA
[DUEL] Epoch ended. INSTR misses = 63, DATA misses = 76. Winner = INSTR
[DUEL] Epoch ended. INSTR misses = 51, DATA misses = 35. Winner = DATA
[DUEL] Epoch ended. INSTR misses = 93, DATA misses = 80. Winner = DATA
[DUEL] Epoch ended. INSTR misses = 83, DATA misses = 78. Winner = DATA
[DUEL] Epoch ended. INSTR misses = 99, DATA misses = 96. Winner = DATA
[DUEL] Epoch ended. INSTR misses = 63, DATA misses = 64. Winner = INSTR
[DUEL] Epoch ended. INSTR misses = 49, DATA misses = 48. Winner = DATA
[DUEL] Epoch ended. INSTR misses = 63, DATA misses = 63. Winner = INSTR
[DUEL] Epoch ended. INSTR misses = 45, DATA misses = 45. Winner = INSTR
[DUEL] Epoch ended. INSTR misses = 75, DATA misses = 60. Winner = DATA
[DUEL] Epoch ended. INSTR misses = 69, DATA misses = 105. Winner = INSTR
[DUEL] Epoch ended. INSTR misses = 63, DATA misses = 55. Winner = DATA
[DUEL] Epoch ended. INSTR misses = 107, DATA misses = 100. Winner = DATA
[DUEL] Epoch ended. INSTR misses = 97, DATA misses = 92. Winner = DATA
[DUEL] Epoch ended. INSTR misses = 76, DATA misses = 80. Winner = INSTR
[DUEL] Epoch ended. INSTR misses = 25, DATA misses = 30. Winner = INSTR
[DUEL] Epoch ended. INSTR misses = 65, DATA misses = 52. Winner = DATA
[DUEL] Epoch ended. INSTR misses = 53, DATA misses = 31. Winner = DATA
[DUEL] Epoch ended. INSTR misses = 53, DATA misses = 47. Winner = DATA
[DUEL] Epoch ended. INSTR misses = 69, DATA misses = 51. Winner = DATA
[DUEL] Epoch ended. INSTR misses = 70, DATA misses = 70. Winner = INSTR
[DUEL] Epoch ended. INSTR misses = 84, DATA misses = 83. Winner = DATA
[DUEL] Epoch ended. INSTR misses = 57, DATA misses = 64. Winner = INSTR
[DUEL] Epoch ended. INSTR misses = 46, DATA misses = 46. Winner = INSTR
[DUEL] Epoch ended. INSTR misses = 50, DATA misses = 51. Winner = INSTR
[DUEL] Epoch ended. INSTR misses = 47, DATA misses = 38. Winner = DATA
Heartbeat CPU 0 instructions: 40000004 cycles: 21209575 heartbeat IPC: 0.6189 cumulative IPC: 0.6189 (Simulation time: 00 hr 03 min 50 sec)
[DUEL] Epoch ended. INSTR misses = 50, DATA misses = 46. Winner = DATA
[DUEL] Epoch ended. INSTR misses = 44, DATA misses = 48. Winner = INSTR
[DUEL] Epoch ended. INSTR misses = 62, DATA misses = 59. Winner = DATA
[DUEL] Epoch ended. INSTR misses = 83, DATA misses = 72. Winner = DATA
[DUEL] Epoch ended. INSTR misses = 47, DATA misses = 51. Winner = INSTR
[DUEL] Epoch ended. INSTR misses = 66, DATA misses = 78. Winner = INSTR
[DUEL] Epoch ended. INSTR misses = 68, DATA misses = 64. Winner = DATA
[DUEL] Epoch ended. INSTR misses = 81, DATA misses = 76. Winner = DATA
[DUEL] Epoch ended. INSTR misses = 117, DATA misses = 86. Winner = DATA
[DUEL] Epoch ended. INSTR misses = 46, DATA misses = 62. Winner = INSTR
[DUEL] Epoch ended. INSTR misses = 43, DATA misses = 48. Winner = INSTR
[DUEL] Epoch ended. INSTR misses = 101, DATA misses = 111. Winner = INSTR
[DUEL] Epoch ended. INSTR misses = 81, DATA misses = 89. Winner = INSTR
[DUEL] Epoch ended. INSTR misses = 68, DATA misses = 58. Winner = DATA
[DUEL] Epoch ended. INSTR misses = 61, DATA misses = 67. Winner = INSTR
[DUEL] Epoch ended. INSTR misses = 79, DATA misses = 76. Winner = DATA
[DUEL] Epoch ended. INSTR misses = 48, DATA misses = 50. Winner = INSTR
[DUEL] Epoch ended. INSTR misses = 50, DATA misses = 48. Winner = DATA
[DUEL] Epoch ended. INSTR misses = 52, DATA misses = 48. Winner = DATA
[DUEL] Epoch ended. INSTR misses = 65, DATA misses = 68. Winner = INSTR
[DUEL] Epoch ended. INSTR misses = 68, DATA misses = 62. Winner = DATA
[DUEL] Epoch ended. INSTR misses = 79, DATA misses = 78. Winner = DATA
[DUEL] Epoch ended. INSTR misses = 33, DATA misses = 32. Winner = DATA
[DUEL] Epoch ended. INSTR misses = 96, DATA misses = 82. Winner = DATA
[DUEL] Epoch ended. INSTR misses = 77, DATA misses = 63. Winner = DATA
[DUEL] Epoch ended. INSTR misses = 72, DATA misses = 78. Winner = INSTR
[DUEL] Epoch ended. INSTR misses = 83, DATA misses = 93. Winner = INSTR
[DUEL] Epoch ended. INSTR misses = 77, DATA misses = 80. Winner = INSTR
[DUEL] Epoch ended. INSTR misses = 65, DATA misses = 60. Winner = DATA
[DUEL] Epoch ended. INSTR misses = 34, DATA misses = 34. Winner = INSTR
[DUEL] Epoch ended. INSTR misses = 54, DATA misses = 45. Winner = DATA
[DUEL] Epoch ended. INSTR misses = 67, DATA misses = 64. Winner = DATA
[DUEL] Epoch ended. INSTR misses = 30, DATA misses = 32. Winner = INSTR
[DUEL] Epoch ended. INSTR misses = 71, DATA misses = 76. Winner = INSTR
[DUEL] Epoch ended. INSTR misses = 65, DATA misses = 64. Winner = DATA
[DUEL] Epoch ended. INSTR misses = 54, DATA misses = 66. Winner = INSTR
[DUEL] Epoch ended. INSTR misses = 38, DATA misses = 32. Winner = DATA
[DUEL] Epoch ended. INSTR misses = 70, DATA misses = 69. Winner = DATA
[DUEL] Epoch ended. INSTR misses = 89, DATA misses = 94. Winner = INSTR
Heartbeat CPU 0 instructions: 50000002 cycles: 37030140 heartbeat IPC: 0.6321 cumulative IPC: 0.6254 (Simulation time: 00 hr 06 min 10 sec)
[DUEL] Epoch ended. INSTR misses = 70, DATA misses = 74. Winner = INSTR
[DUEL] Epoch ended. INSTR misses = 98, DATA misses = 92. Winner = DATA
[DUEL] Epoch ended. INSTR misses = 102, DATA misses = 99. Winner = DATA
[DUEL] Epoch ended. INSTR misses = 49, DATA misses = 67. Winner = INSTR
[DUEL] Epoch ended. INSTR misses = 20, DATA misses = 34. Winner = INSTR
[DUEL] Epoch ended. INSTR misses = 65, DATA misses = 70. Winner = INSTR
[DUEL] Epoch ended. INSTR misses = 64, DATA misses = 72. Winner = INSTR
[DUEL] Epoch ended. INSTR misses = 55, DATA misses = 64. Winner = INSTR
[DUEL] Epoch ended. INSTR misses = 78, DATA misses = 65. Winner = DATA
[DUEL] Epoch ended. INSTR misses = 92, DATA misses = 68. Winner = DATA
[DUEL] Epoch ended. INSTR misses = 64, DATA misses = 72. Winner = INSTR
[DUEL] Epoch ended. INSTR misses = 64, DATA misses = 64. Winner = INSTR
[DUEL] Epoch ended. INSTR misses = 99, DATA misses = 96. Winner = DATA
[DUEL] Epoch ended. INSTR misses = 57, DATA misses = 46. Winner = DATA
[DUEL] Epoch ended. INSTR misses = 43, DATA misses = 78. Winner = INSTR
[DUEL] Epoch ended. INSTR misses = 47, DATA misses = 48. Winner = INSTR
[DUEL] Epoch ended. INSTR misses = 40, DATA misses = 48. Winner = INSTR
[DUEL] Epoch ended. INSTR misses = 117, DATA misses = 97. Winner = DATA
[DUEL] Epoch ended. INSTR misses = 65, DATA misses = 68. Winner = INSTR
[DUEL] Epoch ended. INSTR misses = 52, DATA misses = 64. Winner = INSTR
[DUEL] Epoch ended. INSTR misses = 49, DATA misses = 53. Winner = INSTR
[DUEL] Epoch ended. INSTR misses = 92, DATA misses = 89. Winner = DATA
[DUEL] Epoch ended. INSTR misses = 6, DATA misses = 0. Winner = DATA
[DUEL] Epoch ended. INSTR misses = 21, DATA misses = 16. Winner = DATA
[DUEL] Epoch ended. INSTR misses = 76, DATA misses = 64. Winner = DATA
[DUEL] Epoch ended. INSTR misses = 77, DATA misses = 77. Winner = INSTR
[DUEL] Epoch ended. INSTR misses = 93, DATA misses = 77. Winner = DATA
[DUEL] Epoch ended. INSTR misses = 76, DATA misses = 77. Winner = INSTR
[DUEL] Epoch ended. INSTR misses = 95, DATA misses = 90. Winner = DATA
[DUEL] Epoch ended. INSTR misses = 76, DATA misses = 79. Winner = INSTR
[DUEL] Epoch ended. INSTR misses = 95, DATA misses = 93. Winner = DATA
[DUEL] Epoch ended. INSTR misses = 64, DATA misses = 62. Winner = DATA
[DUEL] Epoch ended. INSTR misses = 80, DATA misses = 80. Winner = INSTR
[DUEL] Epoch ended. INSTR misses = 79, DATA misses = 78. Winner = DATA
[DUEL] Epoch ended. INSTR misses = 79, DATA misses = 79. Winner = INSTR
[DUEL] Epoch ended. INSTR misses = 93, DATA misses = 96. Winner = INSTR
[DUEL] Epoch ended. INSTR misses = 47, DATA misses = 48. Winner = INSTR
[DUEL] Epoch ended. INSTR misses = 81, DATA misses = 79. Winner = DATA
[DUEL] Epoch ended. INSTR misses = 47, DATA misses = 48. Winner = INSTR
Heartbeat CPU 0 instructions: 60000001 cycles: 53719257 heartbeat IPC: 0.5992 cumulative IPC: 0.6164 (Simulation time: 00 hr 08 min 36 sec)
[DUEL] Epoch ended. INSTR misses = 107, DATA misses = 112. Winner = INSTR
[DUEL] Epoch ended. INSTR misses = 48, DATA misses = 47. Winner = DATA
[DUEL] Epoch ended. INSTR misses = 100, DATA misses = 83. Winner = DATA
[DUEL] Epoch ended. INSTR misses = 63, DATA misses = 75. Winner = INSTR
[DUEL] Epoch ended. INSTR misses = 48, DATA misses = 47. Winner = DATA
[DUEL] Epoch ended. INSTR misses = 80, DATA misses = 79. Winner = DATA
[DUEL] Epoch ended. INSTR misses = 80, DATA misses = 80. Winner = INSTR
[DUEL] Epoch ended. INSTR misses = 126, DATA misses = 128. Winner = INSTR
[DUEL] Epoch ended. INSTR misses = 64, DATA misses = 64. Winner = INSTR
[DUEL] Epoch ended. INSTR misses = 95, DATA misses = 96. Winner = INSTR
[DUEL] Epoch ended. INSTR misses = 79, DATA misses = 78. Winner = DATA
[DUEL] Epoch ended. INSTR misses = 45, DATA misses = 46. Winner = INSTR
[DUEL] Epoch ended. INSTR misses = 95, DATA misses = 97. Winner = INSTR
[DUEL] Epoch ended. INSTR misses = 47, DATA misses = 46. Winner = DATA
[DUEL] Epoch ended. INSTR misses = 65, DATA misses = 60. Winner = DATA
[DUEL] Epoch ended. INSTR misses = 48, DATA misses = 49. Winner = INSTR
[DUEL] Epoch ended. INSTR misses = 106, DATA misses = 112. Winner = INSTR
[DUEL] Epoch ended. INSTR misses = 61, DATA misses = 62. Winner = INSTR
[DUEL] Epoch ended. INSTR misses = 47, DATA misses = 48. Winner = INSTR
[DUEL] Epoch ended. INSTR misses = 66, DATA misses = 63. Winner = DATA
[DUEL] Epoch ended. INSTR misses = 46, DATA misses = 48. Winner = INSTR
[DUEL] Epoch ended. INSTR misses = 80, DATA misses = 79. Winner = DATA
[DUEL] Epoch ended. INSTR misses = 79, DATA misses = 78. Winner = DATA
[DUEL] Epoch ended. INSTR misses = 96, DATA misses = 82. Winner = DATA
[DUEL] Epoch ended. INSTR misses = 67, DATA misses = 76. Winner = INSTR
[DUEL] Epoch ended. INSTR misses = 92, DATA misses = 95. Winner = INSTR
[DUEL] Epoch ended. INSTR misses = 93, DATA misses = 96. Winner = INSTR
[DUEL] Epoch ended. INSTR misses = 47, DATA misses = 47. Winner = INSTR
[DUEL] Epoch ended. INSTR misses = 112, DATA misses = 112. Winner = INSTR
[DUEL] Epoch ended. INSTR misses = 33, DATA misses = 32. Winner = DATA
[DUEL] Epoch ended. INSTR misses = 112, DATA misses = 84. Winner = DATA
[DUEL] Epoch ended. INSTR misses = 31, DATA misses = 59. Winner = INSTR
[DUEL] Epoch ended. INSTR misses = 69, DATA misses = 62. Winner = DATA
[DUEL] Epoch ended. INSTR misses = 89, DATA misses = 92. Winner = INSTR
[DUEL] Epoch ended. INSTR misses = 62, DATA misses = 60. Winner = DATA
[DUEL] Epoch ended. INSTR misses = 128, DATA misses = 126. Winner = DATA
[DUEL] Epoch ended. INSTR misses = 64, DATA misses = 64. Winner = INSTR
[DUEL] Epoch ended. INSTR misses = 64, DATA misses = 62. Winner = DATA
[DUEL] Epoch ended. INSTR misses = 80, DATA misses = 75. Winner = DATA
Heartbeat CPU 0 instructions: 70000006 cycles: 70597878 heartbeat IPC: 0.5925 cumulative IPC: 0.6103 (Simulation time: 00 hr 11 min 04 sec)
[DUEL] Epoch ended. INSTR misses = 39, DATA misses = 33. Winner = DATA
[DUEL] Epoch ended. INSTR misses = 94, DATA misses = 94. Winner = INSTR
[DUEL] Epoch ended. INSTR misses = 59, DATA misses = 63. Winner = INSTR
[DUEL] Epoch ended. INSTR misses = 80, DATA misses = 80. Winner = INSTR
[DUEL] Epoch ended. INSTR misses = 50, DATA misses = 49. Winner = DATA
[DUEL] Epoch ended. INSTR misses = 50, DATA misses = 44. Winner = DATA
[DUEL] Epoch ended. INSTR misses = 65, DATA misses = 67. Winner = INSTR
[DUEL] Epoch ended. INSTR misses = 75, DATA misses = 81. Winner = INSTR
[DUEL] Epoch ended. INSTR misses = 81, DATA misses = 80. Winner = DATA
[DUEL] Epoch ended. INSTR misses = 92, DATA misses = 92. Winner = INSTR
[DUEL] Epoch ended. INSTR misses = 96, DATA misses = 94. Winner = DATA
[DUEL] Epoch ended. INSTR misses = 68, DATA misses = 63. Winner = DATA
[DUEL] Epoch ended. INSTR misses = 28, DATA misses = 30. Winner = INSTR
[DUEL] Epoch ended. INSTR misses = 50, DATA misses = 48. Winner = DATA
[DUEL] Epoch ended. INSTR misses = 69, DATA misses = 65. Winner = DATA
[DUEL] Epoch ended. INSTR misses = 77, DATA misses = 80. Winner = INSTR
[DUEL] Epoch ended. INSTR misses = 62, DATA misses = 64. Winner = INSTR
[DUEL] Epoch ended. INSTR misses = 110, DATA misses = 112. Winner = INSTR
[DUEL] Epoch ended. INSTR misses = 35, DATA misses = 31. Winner = DATA
[DUEL] Epoch ended. INSTR misses = 76, DATA misses = 80. Winner = INSTR
[DUEL] Epoch ended. INSTR misses = 51, DATA misses = 48. Winner = DATA
[DUEL] Epoch ended. INSTR misses = 78, DATA misses = 76. Winner = DATA
[DUEL] Epoch ended. INSTR misses = 96, DATA misses = 90. Winner = DATA
[DUEL] Epoch ended. INSTR misses = 80, DATA misses = 79. Winner = DATA
[DUEL] Epoch ended. INSTR misses = 52, DATA misses = 52. Winner = INSTR
[DUEL] Epoch ended. INSTR misses = 63, DATA misses = 62. Winner = DATA
[DUEL] Epoch ended. INSTR misses = 64, DATA misses = 63. Winner = DATA
[DUEL] Epoch ended. INSTR misses = 73, DATA misses = 64. Winner = DATA
[DUEL] Epoch ended. INSTR misses = 86, DATA misses = 94. Winner = INSTR
[DUEL] Epoch ended. INSTR misses = 107, DATA misses = 93. Winner = DATA
[DUEL] Epoch ended. INSTR misses = 51, DATA misses = 60. Winner = INSTR
[DUEL] Epoch ended. INSTR misses = 91, DATA misses = 78. Winner = DATA
[DUEL] Epoch ended. INSTR misses = 69, DATA misses = 80. Winner = INSTR
[DUEL] Epoch ended. INSTR misses = 50, DATA misses = 48. Winner = DATA
[DUEL] Epoch ended. INSTR misses = 49, DATA misses = 48. Winner = DATA
[DUEL] Epoch ended. INSTR misses = 109, DATA misses = 112. Winner = INSTR
[DUEL] Epoch ended. INSTR misses = 78, DATA misses = 80. Winner = INSTR
[DUEL] Epoch ended. INSTR misses = 95, DATA misses = 96. Winner = INSTR
[DUEL] Epoch ended. INSTR misses = 33, DATA misses = 28. Winner = DATA
Heartbeat CPU 0 instructions: 80000008 cycles: 87443610 heartbeat IPC: 0.5936 cumulative IPC: 0.6069 (Simulation time: 00 hr 13 min 30 sec)
[DUEL] Epoch ended. INSTR misses = 96, DATA misses = 96. Winner = INSTR
[DUEL] Epoch ended. INSTR misses = 97, DATA misses = 93. Winner = DATA
[DUEL] Epoch ended. INSTR misses = 96, DATA misses = 97. Winner = INSTR
[DUEL] Epoch ended. INSTR misses = 36, DATA misses = 32. Winner = DATA
[DUEL] Epoch ended. INSTR misses = 91, DATA misses = 87. Winner = DATA
[DUEL] Epoch ended. INSTR misses = 63, DATA misses = 75. Winner = INSTR
[DUEL] Epoch ended. INSTR misses = 95, DATA misses = 96. Winner = INSTR
[DUEL] Epoch ended. INSTR misses = 125, DATA misses = 127. Winner = INSTR
[DUEL] Epoch ended. INSTR misses = 16, DATA misses = 16. Winner = INSTR
[DUEL] Epoch ended. INSTR misses = 112, DATA misses = 108. Winner = DATA
[DUEL] Epoch ended. INSTR misses = 50, DATA misses = 45. Winner = DATA
[DUEL] Epoch ended. INSTR misses = 62, DATA misses = 65. Winner = INSTR
[DUEL] Epoch ended. INSTR misses = 48, DATA misses = 48. Winner = INSTR
[DUEL] Epoch ended. INSTR misses = 93, DATA misses = 94. Winner = INSTR
[DUEL] Epoch ended. INSTR misses = 79, DATA misses = 82. Winner = INSTR
[DUEL] Epoch ended. INSTR misses = 110, DATA misses = 110. Winner = INSTR
[DUEL] Epoch ended. INSTR misses = 33, DATA misses = 33. Winner = INSTR
[DUEL] Epoch ended. INSTR misses = 125, DATA misses = 124. Winner = DATA
[DUEL] Epoch ended. INSTR misses = 64, DATA misses = 64. Winner = INSTR
[DUEL] Epoch ended. INSTR misses = 36, DATA misses = 32. Winner = DATA
[DUEL] Epoch ended. INSTR misses = 62, DATA misses = 60. Winner = DATA
[DUEL] Epoch ended. INSTR misses = 79, DATA misses = 78. Winner = DATA
[DUEL] Epoch ended. INSTR misses = 81, DATA misses = 80. Winner = DATA
[DUEL] Epoch ended. INSTR misses = 61, DATA misses = 63. Winner = INSTR
[DUEL] Epoch ended. INSTR misses = 52, DATA misses = 49. Winner = DATA
[DUEL] Epoch ended. INSTR misses = 74, DATA misses = 80. Winner = INSTR
[DUEL] Epoch ended. INSTR misses = 95, DATA misses = 95. Winner = INSTR
[DUEL] Epoch ended. INSTR misses = 65, DATA misses = 62. Winner = DATA
[DUEL] Epoch ended. INSTR misses = 81, DATA misses = 78. Winner = DATA
[DUEL] Epoch ended. INSTR misses = 83, DATA misses = 78. Winner = DATA
[DUEL] Epoch ended. INSTR misses = 92, DATA misses = 94. Winner = INSTR
[DUEL] Epoch ended. INSTR misses = 65, DATA misses = 64. Winner = DATA
[DUEL] Epoch ended. INSTR misses = 45, DATA misses = 32. Winner = DATA
[DUEL] Epoch ended. INSTR misses = 83, DATA misses = 96. Winner = INSTR
[DUEL] Epoch ended. INSTR misses = 93, DATA misses = 88. Winner = DATA
[DUEL] Epoch ended. INSTR misses = 50, DATA misses = 56. Winner = INSTR
[DUEL] Epoch ended. INSTR misses = 124, DATA misses = 122. Winner = DATA
[DUEL] Epoch ended. INSTR misses = 52, DATA misses = 49. Winner = DATA
[DUEL] Epoch ended. INSTR misses = 95, DATA misses = 92. Winner = DATA
Heartbeat CPU 0 instructions: 90000006 cycles: 104864966 heartbeat IPC: 0.574 cumulative IPC: 0.6011 (Simulation time: 00 hr 16 min 02 sec)
[DUEL] Epoch ended. INSTR misses = 65, DATA misses = 53. Winner = DATA
[DUEL] Epoch ended. INSTR misses = 22, DATA misses = 29. Winner = INSTR
[DUEL] Epoch ended. INSTR misses = 0, DATA misses = 0. Winner = INSTR
[DUEL] Epoch ended. INSTR misses = 1, DATA misses = 2. Winner = INSTR
[DUEL] Epoch ended. INSTR misses = 0, DATA misses = 0. Winner = INSTR
[DUEL] Epoch ended. INSTR misses = 0, DATA misses = 0. Winner = INSTR
[DUEL] Epoch ended. INSTR misses = 0, DATA misses = 0. Winner = INSTR
[DUEL] Epoch ended. INSTR misses = 0, DATA misses = 0. Winner = INSTR
[DUEL] Epoch ended. INSTR misses = 0, DATA misses = 0. Winner = INSTR
[DUEL] Epoch ended. INSTR misses = 0, DATA misses = 0. Winner = INSTR
[DUEL] Epoch ended. INSTR misses = 0, DATA misses = 0. Winner = INSTR
[DUEL] Epoch ended. INSTR misses = 0, DATA misses = 0. Winner = INSTR
[DUEL] Epoch ended. INSTR misses = 0, DATA misses = 0. Winner = INSTR
[DUEL] Epoch ended. INSTR misses = 0, DATA misses = 0. Winner = INSTR
[DUEL] Epoch ended. INSTR misses = 0, DATA misses = 0. Winner = INSTR
[DUEL] Epoch ended. INSTR misses = 0, DATA misses = 0. Winner = INSTR
[DUEL] Epoch ended. INSTR misses = 0, DATA misses = 0. Winner = INSTR
[DUEL] Epoch ended. INSTR misses = 0, DATA misses = 0. Winner = INSTR
[DUEL] Epoch ended. INSTR misses = 0, DATA misses = 0. Winner = INSTR
[DUEL] Epoch ended. INSTR misses = 0, DATA misses = 0. Winner = INSTR
[DUEL] Epoch ended. INSTR misses = 0, DATA misses = 0. Winner = INSTR
[DUEL] Epoch ended. INSTR misses = 142, DATA misses = 123. Winner = DATA
[DUEL] Epoch ended. INSTR misses = 357, DATA misses = 285. Winner = DATA
[DUEL] Epoch ended. INSTR misses = 51, DATA misses = 42. Winner = DATA
[DUEL] Epoch ended. INSTR misses = 0, DATA misses = 0. Winner = INSTR
[DUEL] Epoch ended. INSTR misses = 0, DATA misses = 0. Winner = INSTR
[DUEL] Epoch ended. INSTR misses = 2, DATA misses = 0. Winner = DATA
[DUEL] Epoch ended. INSTR misses = 0, DATA misses = 0. Winner = INSTR
Heartbeat CPU 0 instructions: 100000007 cycles: 109493177 heartbeat IPC: 2.161 cumulative IPC: 0.6702 (Simulation time: 00 hr 16 min 50 sec)
[DUEL] Epoch ended. INSTR misses = 0, DATA misses = 0. Winner = INSTR
*** Reached end of trace: (0, "../traces/secret_traces/compute_fp/compute_fp_103.champsimtrace.xz")
[DUEL] Epoch ended. INSTR misses = 24, DATA misses = 25. Winner = INSTR
[DUEL] Epoch ended. INSTR misses = 42, DATA misses = 50. Winner = INSTR
[DUEL] Epoch ended. INSTR misses = 1, DATA misses = 5. Winner = INSTR
[DUEL] Epoch ended. INSTR misses = 20, DATA misses = 38. Winner = INSTR
[DUEL] Epoch ended. INSTR misses = 38, DATA misses = 29. Winner = DATA
[DUEL] Epoch ended. INSTR misses = 58, DATA misses = 40. Winner = DATA
[DUEL] Epoch ended. INSTR misses = 55, DATA misses = 50. Winner = DATA
[DUEL] Epoch ended. INSTR misses = 58, DATA misses = 75. Winner = INSTR
[DUEL] Epoch ended. INSTR misses = 54, DATA misses = 54. Winner = INSTR
[DUEL] Epoch ended. INSTR misses = 65, DATA misses = 50. Winner = DATA
[DUEL] Epoch ended. INSTR misses = 75, DATA misses = 61. Winner = DATA
[DUEL] Epoch ended. INSTR misses = 80, DATA misses = 63. Winner = DATA
[DUEL] Epoch ended. INSTR misses = 71, DATA misses = 81. Winner = INSTR
[DUEL] Epoch ended. INSTR misses = 54, DATA misses = 56. Winner = INSTR
[DUEL] Epoch ended. INSTR misses = 61, DATA misses = 55. Winner = DATA
[DUEL] Epoch ended. INSTR misses = 53, DATA misses = 82. Winner = INSTR
[DUEL] Epoch ended. INSTR misses = 62, DATA misses = 57. Winner = DATA
[DUEL] Epoch ended. INSTR misses = 89, DATA misses = 62. Winner = DATA
[DUEL] Epoch ended. INSTR misses = 109, DATA misses = 48. Winner = DATA
[DUEL] Epoch ended. INSTR misses = 74, DATA misses = 95. Winner = INSTR
[DUEL] Epoch ended. INSTR misses = 80, DATA misses = 78. Winner = DATA
[DUEL] Epoch ended. INSTR misses = 74, DATA misses = 57. Winner = DATA
[DUEL] Epoch ended. INSTR misses = 57, DATA misses = 61. Winner = INSTR
[DUEL] Epoch ended. INSTR misses = 61, DATA misses = 48. Winner = DATA
[DUEL] Epoch ended. INSTR misses = 73, DATA misses = 64. Winner = DATA
[DUEL] Epoch ended. INSTR misses = 78, DATA misses = 78. Winner = INSTR
[DUEL] Epoch ended. INSTR misses = 89, DATA misses = 87. Winner = DATA
[DUEL] Epoch ended. INSTR misses = 53, DATA misses = 62. Winner = INSTR
[DUEL] Epoch ended. INSTR misses = 79, DATA misses = 65. Winner = DATA
[DUEL] Epoch ended. INSTR misses = 52, DATA misses = 99. Winner = INSTR
[DUEL] Epoch ended. INSTR misses = 55, DATA misses = 71. Winner = INSTR
[DUEL] Epoch ended. INSTR misses = 62, DATA misses = 91. Winner = INSTR
[DUEL] Epoch ended. INSTR misses = 72, DATA misses = 93. Winner = INSTR
[DUEL] Epoch ended. INSTR misses = 80, DATA misses = 64. Winner = DATA
[DUEL] Epoch ended. INSTR misses = 84, DATA misses = 68. Winner = DATA
[DUEL] Epoch ended. INSTR misses = 57, DATA misses = 63. Winner = INSTR
[DUEL] Epoch ended. INSTR misses = 105, DATA misses = 59. Winner = DATA
Heartbeat CPU 0 instructions: 110000008 cycles: 125153389 heartbeat IPC: 0.6386 cumulative IPC: 0.6661 (Simulation time: 00 hr 19 min 05 sec)
[DUEL] Epoch ended. INSTR misses = 77, DATA misses = 66. Winner = DATA
[DUEL] Epoch ended. INSTR misses = 50, DATA misses = 81. Winner = INSTR
[DUEL] Epoch ended. INSTR misses = 46, DATA misses = 56. Winner = INSTR
[DUEL] Epoch ended. INSTR misses = 88, DATA misses = 83. Winner = DATA
[DUEL] Epoch ended. INSTR misses = 69, DATA misses = 67. Winner = DATA
[DUEL] Epoch ended. INSTR misses = 88, DATA misses = 98. Winner = INSTR
[DUEL] Epoch ended. INSTR misses = 83, DATA misses = 119. Winner = INSTR
[DUEL] Epoch ended. INSTR misses = 80, DATA misses = 78. Winner = DATA
[DUEL] Epoch ended. INSTR misses = 71, DATA misses = 92. Winner = INSTR
[DUEL] Epoch ended. INSTR misses = 55, DATA misses = 62. Winner = INSTR
[DUEL] Epoch ended. INSTR misses = 99, DATA misses = 78. Winner = DATA
[DUEL] Epoch ended. INSTR misses = 83, DATA misses = 61. Winner = DATA
[DUEL] Epoch ended. INSTR misses = 79, DATA misses = 87. Winner = INSTR
[DUEL] Epoch ended. INSTR misses = 70, DATA misses = 74. Winner = INSTR
[DUEL] Epoch ended. INSTR misses = 83, DATA misses = 63. Winner = DATA
[DUEL] Epoch ended. INSTR misses = 67, DATA misses = 64. Winner = DATA
[DUEL] Epoch ended. INSTR misses = 69, DATA misses = 78. Winner = INSTR
[DUEL] Epoch ended. INSTR misses = 77, DATA misses = 37. Winner = DATA
[DUEL] Epoch ended. INSTR misses = 53, DATA misses = 97. Winner = INSTR
[DUEL] Epoch ended. INSTR misses = 61, DATA misses = 43. Winner = DATA
[DUEL] Epoch ended. INSTR misses = 85, DATA misses = 70. Winner = DATA
[DUEL] Epoch ended. INSTR misses = 70, DATA misses = 67. Winner = DATA
[DUEL] Epoch ended. INSTR misses = 53, DATA misses = 73. Winner = INSTR
[DUEL] Epoch ended. INSTR misses = 83, DATA misses = 58. Winner = DATA
[DUEL] Epoch ended. INSTR misses = 56, DATA misses = 61. Winner = INSTR
[DUEL] Epoch ended. INSTR misses = 68, DATA misses = 78. Winner = INSTR
[DUEL] Epoch ended. INSTR misses = 67, DATA misses = 49. Winner = DATA
[DUEL] Epoch ended. INSTR misses = 80, DATA misses = 65. Winner = DATA
[DUEL] Epoch ended. INSTR misses = 107, DATA misses = 80. Winner = DATA
[DUEL] Epoch ended. INSTR misses = 58, DATA misses = 46. Winner = DATA
[DUEL] Epoch ended. INSTR misses = 87, DATA misses = 74. Winner = DATA
[DUEL] Epoch ended. INSTR misses = 51, DATA misses = 73. Winner = INSTR
[DUEL] Epoch ended. INSTR misses = 69, DATA misses = 59. Winner = DATA
[DUEL] Epoch ended. INSTR misses = 45, DATA misses = 54. Winner = INSTR
[DUEL] Epoch ended. INSTR misses = 57, DATA misses = 67. Winner = INSTR
[DUEL] Epoch ended. INSTR misses = 86, DATA misses = 66. Winner = DATA
[DUEL] Epoch ended. INSTR misses = 80, DATA misses = 60. Winner = DATA
[DUEL] Epoch ended. INSTR misses = 67, DATA misses = 55. Winner = DATA
[DUEL] Epoch ended. INSTR misses = 62, DATA misses = 63. Winner = INSTR
Heartbeat CPU 0 instructions: 120000002 cycles: 140746994 heartbeat IPC: 0.6413 cumulative IPC: 0.6633 (Simulation time: 00 hr 21 min 25 sec)
[DUEL] Epoch ended. INSTR misses = 42, DATA misses = 37. Winner = DATA
[DUEL] Epoch ended. INSTR misses = 76, DATA misses = 78. Winner = INSTR
[DUEL] Epoch ended. INSTR misses = 48, DATA misses = 46. Winner = DATA
[DUEL] Epoch ended. INSTR misses = 55, DATA misses = 70. Winner = INSTR
[DUEL] Epoch ended. INSTR misses = 72, DATA misses = 76. Winner = INSTR
[DUEL] Epoch ended. INSTR misses = 70, DATA misses = 48. Winner = DATA
[DUEL] Epoch ended. INSTR misses = 55, DATA misses = 63. Winner = INSTR
[DUEL] Epoch ended. INSTR misses = 75, DATA misses = 66. Winner = DATA
[DUEL] Epoch ended. INSTR misses = 54, DATA misses = 75. Winner = INSTR
[DUEL] Epoch ended. INSTR misses = 67, DATA misses = 66. Winner = DATA
[DUEL] Epoch ended. INSTR misses = 92, DATA misses = 78. Winner = DATA
[DUEL] Epoch ended. INSTR misses = 34, DATA misses = 60. Winner = INSTR
[DUEL] Epoch ended. INSTR misses = 91, DATA misses = 80. Winner = DATA
[DUEL] Epoch ended. INSTR misses = 64, DATA misses = 78. Winner = INSTR
[DUEL] Epoch ended. INSTR misses = 42, DATA misses = 48. Winner = INSTR
[DUEL] Epoch ended. INSTR misses = 64, DATA misses = 64. Winner = INSTR
[DUEL] Epoch ended. INSTR misses = 92, DATA misses = 64. Winner = DATA
[DUEL] Epoch ended. INSTR misses = 46, DATA misses = 56. Winner = INSTR
[DUEL] Epoch ended. INSTR misses = 68, DATA misses = 73. Winner = INSTR
[DUEL] Epoch ended. INSTR misses = 57, DATA misses = 42. Winner = DATA
[DUEL] Epoch ended. INSTR misses = 66, DATA misses = 90. Winner = INSTR
[DUEL] Epoch ended. INSTR misses = 63, DATA misses = 52. Winner = DATA
[DUEL] Epoch ended. INSTR misses = 69, DATA misses = 42. Winner = DATA
[DUEL] Epoch ended. INSTR misses = 77, DATA misses = 88. Winner = INSTR
[DUEL] Epoch ended. INSTR misses = 61, DATA misses = 51. Winner = DATA
[DUEL] Epoch ended. INSTR misses = 66, DATA misses = 61. Winner = DATA
[DUEL] Epoch ended. INSTR misses = 70, DATA misses = 63. Winner = DATA
[DUEL] Epoch ended. INSTR misses = 70, DATA misses = 76. Winner = INSTR
[DUEL] Epoch ended. INSTR misses = 54, DATA misses = 46. Winner = DATA
[DUEL] Epoch ended. INSTR misses = 74, DATA misses = 77. Winner = INSTR
[DUEL] Epoch ended. INSTR misses = 29, DATA misses = 16. Winner = DATA
[DUEL] Epoch ended. INSTR misses = 105, DATA misses = 108. Winner = INSTR
[DUEL] Epoch ended. INSTR misses = 38, DATA misses = 30. Winner = DATA
[DUEL] Epoch ended. INSTR misses = 96, DATA misses = 78. Winner = DATA
[DUEL] Epoch ended. INSTR misses = 81, DATA misses = 78. Winner = DATA
[DUEL] Epoch ended. INSTR misses = 95, DATA misses = 94. Winner = DATA
[DUEL] Epoch ended. INSTR misses = 42, DATA misses = 48. Winner = INSTR
[DUEL] Epoch ended. INSTR misses = 42, DATA misses = 63. Winner = INSTR
[DUEL] Epoch ended. INSTR misses = 98, DATA misses = 63. Winner = DATA
[DUEL] Epoch ended. INSTR misses = 80, DATA misses = 95. Winner = INSTR
Heartbeat CPU 0 instructions: 130000008 cycles: 155943914 heartbeat IPC: 0.658 cumulative IPC: 0.6627 (Simulation time: 00 hr 23 min 40 sec)
Simulation finished CPU 0 instructions: 100000009 cycles: 150891804 cumulative IPC: 0.6627 (Simulation time: 00 hr 23 min 40 sec)
Simulation complete CPU 0 instructions: 100000009 cycles: 150891804 cumulative IPC: 0.6627 (Simulation time: 00 hr 23 min 40 sec)

ChampSim completed all CPUs

=== Simulation ===
CPU 0 runs ../traces/secret_traces/compute_fp/compute_fp_103.champsimtrace.xz
Region of Interest Statistics

CPU 0 cumulative IPC: 0.6627 instructions: 100000009 cycles: 150891804
CPU 0 Branch Prediction Accuracy: 99.62% MPKI: 0.1343 Average ROB Occupancy at Mispredict: 34.76
Branch type MPKI
BRANCH_DIRECT_JUMP: 0.00727
BRANCH_INDIRECT: 0.0656
BRANCH_CONDITIONAL: 0.0277
BRANCH_DIRECT_CALL: 0.0202
BRANCH_INDIRECT_CALL: 0.00244
BRANCH_RETURN: 0.0111

LLC TOTAL        ACCESS:    6334618 HIT:     260584 MISS:    6074034
LLC LOAD         ACCESS:     204774 HIT:       1820 MISS:     202954
LLC RFO          ACCESS:      46597 HIT:       2433 MISS:      44164
LLC PREFETCH     ACCESS:    3880532 HIT:      17750 MISS:    3862782
LLC WRITE        ACCESS:    2185226 HIT:     238401 MISS:    1946825
LLC TRANSLATION  ACCESS:      17489 HIT:        180 MISS:      17309
LLC PREFETCH REQUESTED:          0 ISSUED:          0 USEFUL:          0 USELESS:          0
LLC AVERAGE MISS LATENCY: 631.8 cycles
cpu0_DTLB TOTAL        ACCESS:   23827388 HIT:   23372652 MISS:     454736
cpu0_DTLB LOAD         ACCESS:   23827388 HIT:   23372652 MISS:     454736
cpu0_DTLB RFO          ACCESS:          0 HIT:          0 MISS:          0
cpu0_DTLB PREFETCH     ACCESS:          0 HIT:          0 MISS:          0
cpu0_DTLB WRITE        ACCESS:          0 HIT:          0 MISS:          0
cpu0_DTLB TRANSLATION  ACCESS:          0 HIT:          0 MISS:          0
cpu0_DTLB PREFETCH REQUESTED:          0 ISSUED:          0 USEFUL:          0 USELESS:          0
cpu0_DTLB AVERAGE MISS LATENCY: 57.52 cycles
cpu0_ITLB TOTAL        ACCESS:     118974 HIT:     117394 MISS:       1580
cpu0_ITLB LOAD         ACCESS:     118974 HIT:     117394 MISS:       1580
cpu0_ITLB RFO          ACCESS:          0 HIT:          0 MISS:          0
cpu0_ITLB PREFETCH     ACCESS:          0 HIT:          0 MISS:          0
cpu0_ITLB WRITE        ACCESS:          0 HIT:          0 MISS:          0
cpu0_ITLB TRANSLATION  ACCESS:          0 HIT:          0 MISS:          0
cpu0_ITLB PREFETCH REQUESTED:          0 ISSUED:          0 USEFUL:          0 USELESS:          0
cpu0_ITLB AVERAGE MISS LATENCY: 79.93 cycles
cpu0_L1D TOTAL        ACCESS:   37568174 HIT:   27217086 MISS:   10351088
cpu0_L1D LOAD         ACCESS:   14169608 HIT:   10815575 MISS:    3354033
cpu0_L1D RFO          ACCESS:          0 HIT:          0 MISS:          0
cpu0_L1D PREFETCH     ACCESS:   10642790 HIT:    4644134 MISS:    5998656
cpu0_L1D WRITE        ACCESS:   12600850 HIT:   11733905 MISS:     866945
cpu0_L1D TRANSLATION  ACCESS:     154926 HIT:      23472 MISS:     131454
cpu0_L1D PREFETCH REQUESTED:  111589714 ISSUED:   10642790 USEFUL:    1808256 USELESS:     164801
cpu0_L1D AVERAGE MISS LATENCY: 123.6 cycles
cpu0_L1I TOTAL        ACCESS:     171810 HIT:     134684 MISS:      37126
cpu0_L1I LOAD         ACCESS:      60392 HIT:      48872 MISS:      11520
cpu0_L1I RFO          ACCESS:          0 HIT:          0 MISS:          0
cpu0_L1I PREFETCH     ACCESS:     111418 HIT:      85812 MISS:      25606
cpu0_L1I WRITE        ACCESS:          0 HIT:          0 MISS:          0
cpu0_L1I TRANSLATION  ACCESS:          0 HIT:          0 MISS:          0
cpu0_L1I PREFETCH REQUESTED:     166385 ISSUED:     111418 USEFUL:      13685 USELESS:       9734
cpu0_L1I AVERAGE MISS LATENCY: 160.3 cycles
cpu0_L2C TOTAL        ACCESS:   17982931 HIT:    8308756 MISS:    9674175
cpu0_L2C LOAD         ACCESS:    2191242 HIT:    1214021 MISS:     977221
cpu0_L2C RFO          ACCESS:     186881 HIT:     119190 MISS:      67691
cpu0_L2C PREFETCH     ACCESS:   13274205 HIT:    4662678 MISS:    8611527
cpu0_L2C WRITE        ACCESS:    2199328 HIT:    2199089 MISS:        239
cpu0_L2C TRANSLATION  ACCESS:     131275 HIT:     113778 MISS:      17497
cpu0_L2C PREFETCH REQUESTED:   10887259 ISSUED:    7789321 USEFUL:    1807219 USELESS:     377461
cpu0_L2C AVERAGE MISS LATENCY: 372.1 cycles
cpu0_STLB TOTAL        ACCESS:     299022 HIT:     145650 MISS:     153372
cpu0_STLB LOAD         ACCESS:     299022 HIT:     145650 MISS:     153372
cpu0_STLB RFO          ACCESS:          0 HIT:          0 MISS:          0
cpu0_STLB PREFETCH     ACCESS:          0 HIT:          0 MISS:          0
cpu0_STLB WRITE        ACCESS:          0 HIT:          0 MISS:          0
cpu0_STLB TRANSLATION  ACCESS:          0 HIT:          0 MISS:          0
cpu0_STLB PREFETCH REQUESTED:          0 ISSUED:          0 USEFUL:          0 USELESS:          0
cpu0_STLB AVERAGE MISS LATENCY: 210.4 cycles

DRAM Statistics

Channel 0 RQ ROW_BUFFER_HIT:     847018
  ROW_BUFFER_MISS:    1224184
 AVG DBUS CONGESTED CYCLE: 3.962
WQ ROW_BUFFER_HIT: Channel 0 
  ROW_BUFFER_MISS:      92674
  FULL:     994260

Channel 1 RQ ROW_BUFFER_HIT:     845581
  ROW_BUFFER_MISS:    1210388
 AVG DBUS CONGESTED CYCLE: 3.959
WQ ROW_BUFFER_HIT: Channel 1 
  ROW_BUFFER_MISS:      95454
  FULL:     990835
BERTI TO_L1: 39414965 TO_L2: 97953660 TO_L2_BC_MSHR: 50489222
BERTI AVG_LAT: 406.215 NUM_TRACK_LATENCY: 4974435 NUM_CANT_TRACK_LATENCY: 2929
BERTI CROSS_PAGE 32239111 NO_CROSS_PAGE: 105129514
BERTI FOUND_BERTI: 25230273 NO_FOUND_BERTI: 5875194
BERTI AVERAGE_ISSUED: 4.06706
CPU 0 L1I Entangling prefetcher final stats
IP accesses: 3999 e6640 767 / 90657
IP misses: 3999 e6640 755 / 41785
IP hits: 0 0 0 / 0
IP late: ea88 3aa200 12 / 5933
IP wrong: 38b7 e2dc0 21 / 9678
miss rate: 0.460914
coverage: 0
coverage_late: 0.141989
accuracy: 0
accuracy_late: 0.380053
discarded: 0
evicts entangled j table: 0
evicts entangled k table: 1623
max bb size: 65
formats: 456 0 1395 711 312 721 0 
hist_lookups: 1111 1220 979 885 790 667 535 461 398 299 205 149 107 59 23 0 15 3860 
hist_lookups_evict: 0.127519 %
hist_lookups_shortlat: 32.8148 %
bb_found_hist: 0 14417 6309 2891 1089 686 226 71 57 13 15 6 60 0 3 0 17 0 6 0 0 0 0 0 0 2 0 0 0 0 0 0 0 0 0 0 0 0 0 0 0 0 0 0 0 0 0 0 0 0 0 0 0 0 0 0 0 0 0 0 0 0 0 0 
bb_found_summary: 47328 25868 1.8296
entangled_found_hist: 0 8149 5236 9579 1715 421 35 0 
entangled_found_summary: 56533 25135 2.24918
bb_ent_found_hist: 0 19481 10097 5078 2175 1411 798 217 126 12 29 0 29 0 0 0 0 0 27 0 0 0 0 0 0 5 0 0 0 0 0 0 0 0 0 0 0 0 0 0 0 0 0 0 0 0 0 0 0 0 0 0 0 0 0 0 0 0 0 0 0 0 0 0 
bb_ent_found_summary: 79336 39485 2.00927
