WARNING: physical memory size is smaller than virtual memory size.

*** ChampSim Multicore Out-of-Order Simulator ***
Warmup Instructions: 30000000
Simulation Instructions: 100000000
Number of CPUs: 1
Page size: 4096

BTB:
Basic BTB sets: 1024 ways: 8
Indirect:
history lengths: 0 0 10 16 27 44 60 96 109 219 449 487 714 1313 2146 3881 
ITTAGE tables: 64768 bytes;Region table: 240 bytes;IUM: 384 bytes;Total Storage= 65392 bytes;
RAS:
RAS size: 64
[LLC] INSTR Demand IPV: 1 2 2 1 4 Prefetch IPV: 1 2 1 1 4
[LLC] DATA  Demand IPV: 1 1 1 2 4 Prefetch IPV: 1 1 2 2 4
Berti Prefetcher
CPU 0 Entangling prefetcher
Off-chip DRAM Size: 8 GiB Channels: 2 Width: 64-bit Data Race: 6400 MT/s
[DUEL] Epoch ended. INSTR misses = 0, DATA misses = 0. Winner = INSTR
[DUEL] Epoch ended. INSTR misses = 16, DATA misses = 16. Winner = INSTR
[DUEL] Epoch ended. INSTR misses = 16, DATA misses = 16. Winner = INSTR
[DUEL] Epoch ended. INSTR misses = 0, DATA misses = 0. Winner = INSTR
[DUEL] Epoch ended. INSTR misses = 16, DATA misses = 16. Winner = INSTR
[DUEL] Epoch ended. INSTR misses = 0, DATA misses = 0. Winner = INSTR
[DUEL] Epoch ended. INSTR misses = 16, DATA misses = 16. Winner = INSTR
[DUEL] Epoch ended. INSTR misses = 0, DATA misses = 0. Winner = INSTR
[DUEL] Epoch ended. INSTR misses = 16, DATA misses = 16. Winner = INSTR
[DUEL] Epoch ended. INSTR misses = 16, DATA misses = 16. Winner = INSTR
[DUEL] Epoch ended. INSTR misses = 0, DATA misses = 0. Winner = INSTR
[DUEL] Epoch ended. INSTR misses = 16, DATA misses = 16. Winner = INSTR
[DUEL] Epoch ended. INSTR misses = 0, DATA misses = 0. Winner = INSTR
[DUEL] Epoch ended. INSTR misses = 16, DATA misses = 16. Winner = INSTR
[DUEL] Epoch ended. INSTR misses = 0, DATA misses = 0. Winner = INSTR
[DUEL] Epoch ended. INSTR misses = 16, DATA misses = 16. Winner = INSTR
[DUEL] Epoch ended. INSTR misses = 0, DATA misses = 0. Winner = INSTR
[DUEL] Epoch ended. INSTR misses = 16, DATA misses = 16. Winner = INSTR
[DUEL] Epoch ended. INSTR misses = 1, DATA misses = 0. Winner = DATA
[DUEL] Epoch ended. INSTR misses = 15, DATA misses = 16. Winner = INSTR
[DUEL] Epoch ended. INSTR misses = 16, DATA misses = 16. Winner = INSTR
[DUEL] Epoch ended. INSTR misses = 0, DATA misses = 0. Winner = INSTR
[DUEL] Epoch ended. INSTR misses = 18, DATA misses = 19. Winner = INSTR
[DUEL] Epoch ended. INSTR misses = 0, DATA misses = 0. Winner = INSTR
[DUEL] Epoch ended. INSTR misses = 19, DATA misses = 21. Winner = INSTR
[DUEL] Epoch ended. INSTR misses = 7, DATA misses = 0. Winner = DATA
[DUEL] Epoch ended. INSTR misses = 16, DATA misses = 25. Winner = INSTR
[DUEL] Epoch ended. INSTR misses = 29, DATA misses = 31. Winner = INSTR
[DUEL] Epoch ended. INSTR misses = 0, DATA misses = 0. Winner = INSTR
[DUEL] Epoch ended. INSTR misses = 31, DATA misses = 30. Winner = DATA
[DUEL] Epoch ended. INSTR misses = 0, DATA misses = 0. Winner = INSTR
[DUEL] Epoch ended. INSTR misses = 31, DATA misses = 32. Winner = INSTR
[DUEL] Epoch ended. INSTR misses = 19, DATA misses = 16. Winner = DATA
[DUEL] Epoch ended. INSTR misses = 17, DATA misses = 18. Winner = INSTR
[DUEL] Epoch ended. INSTR misses = 15, DATA misses = 14. Winner = DATA
[DUEL] Epoch ended. INSTR misses = 17, DATA misses = 18. Winner = INSTR
[DUEL] Epoch ended. INSTR misses = 15, DATA misses = 13. Winner = DATA
[DUEL] Epoch ended. INSTR misses = 17, DATA misses = 18. Winner = INSTR
[DUEL] Epoch ended. INSTR misses = 15, DATA misses = 12. Winner = DATA
Heartbeat CPU 0 instructions: 10000001 cycles: 1667368 heartbeat IPC: 5.997 cumulative IPC: 5.997 (Simulation time: 00 hr 00 min 24 sec)
[DUEL] Epoch ended. INSTR misses = 30, DATA misses = 33. Winner = INSTR
[DUEL] Epoch ended. INSTR misses = 16, DATA misses = 16. Winner = INSTR
[DUEL] Epoch ended. INSTR misses = 0, DATA misses = 0. Winner = INSTR
[DUEL] Epoch ended. INSTR misses = 31, DATA misses = 32. Winner = INSTR
[DUEL] Epoch ended. INSTR misses = 0, DATA misses = 0. Winner = INSTR
[DUEL] Epoch ended. INSTR misses = 32, DATA misses = 32. Winner = INSTR
[DUEL] Epoch ended. INSTR misses = 0, DATA misses = 0. Winner = INSTR
[DUEL] Epoch ended. INSTR misses = 32, DATA misses = 31. Winner = DATA
[DUEL] Epoch ended. INSTR misses = 2, DATA misses = 4. Winner = INSTR
[DUEL] Epoch ended. INSTR misses = 30, DATA misses = 28. Winner = DATA
[DUEL] Epoch ended. INSTR misses = 32, DATA misses = 32. Winner = INSTR
[DUEL] Epoch ended. INSTR misses = 0, DATA misses = 0. Winner = INSTR
[DUEL] Epoch ended. INSTR misses = 32, DATA misses = 32. Winner = INSTR
[DUEL] Epoch ended. INSTR misses = 0, DATA misses = 0. Winner = INSTR
[DUEL] Epoch ended. INSTR misses = 32, DATA misses = 31. Winner = DATA
[DUEL] Epoch ended. INSTR misses = 0, DATA misses = 0. Winner = INSTR
[DUEL] Epoch ended. INSTR misses = 32, DATA misses = 32. Winner = INSTR
[DUEL] Epoch ended. INSTR misses = 19, DATA misses = 19. Winner = INSTR
[DUEL] Epoch ended. INSTR misses = 13, DATA misses = 13. Winner = INSTR
[DUEL] Epoch ended. INSTR misses = 32, DATA misses = 31. Winner = DATA
[DUEL] Epoch ended. INSTR misses = 0, DATA misses = 0. Winner = INSTR
[DUEL] Epoch ended. INSTR misses = 32, DATA misses = 32. Winner = INSTR
[DUEL] Epoch ended. INSTR misses = 0, DATA misses = 0. Winner = INSTR
[DUEL] Epoch ended. INSTR misses = 32, DATA misses = 32. Winner = INSTR
[DUEL] Epoch ended. INSTR misses = 0, DATA misses = 0. Winner = INSTR
[DUEL] Epoch ended. INSTR misses = 32, DATA misses = 32. Winner = INSTR
[DUEL] Epoch ended. INSTR misses = 32, DATA misses = 32. Winner = INSTR
[DUEL] Epoch ended. INSTR misses = 0, DATA misses = 0. Winner = INSTR
[DUEL] Epoch ended. INSTR misses = 32, DATA misses = 32. Winner = INSTR
[DUEL] Epoch ended. INSTR misses = 0, DATA misses = 0. Winner = INSTR
[DUEL] Epoch ended. INSTR misses = 32, DATA misses = 32. Winner = INSTR
[DUEL] Epoch ended. INSTR misses = 0, DATA misses = 0. Winner = INSTR
[DUEL] Epoch ended. INSTR misses = 32, DATA misses = 32. Winner = INSTR
[DUEL] Epoch ended. INSTR misses = 32, DATA misses = 31. Winner = DATA
[DUEL] Epoch ended. INSTR misses = 0, DATA misses = 2. Winner = INSTR
[DUEL] Epoch ended. INSTR misses = 32, DATA misses = 32. Winner = INSTR
[DUEL] Epoch ended. INSTR misses = 0, DATA misses = 2. Winner = INSTR
[DUEL] Epoch ended. INSTR misses = 32, DATA misses = 30. Winner = DATA
[DUEL] Epoch ended. INSTR misses = 0, DATA misses = 2. Winner = INSTR
Heartbeat CPU 0 instructions: 20000007 cycles: 3334059 heartbeat IPC: 6 cumulative IPC: 5.999 (Simulation time: 00 hr 00 min 49 sec)
[DUEL] Epoch ended. INSTR misses = 32, DATA misses = 32. Winner = INSTR
[DUEL] Epoch ended. INSTR misses = 31, DATA misses = 30. Winner = DATA
[DUEL] Epoch ended. INSTR misses = 0, DATA misses = 0. Winner = INSTR
[DUEL] Epoch ended. INSTR misses = 22, DATA misses = 1. Winner = DATA
[DUEL] Epoch ended. INSTR misses = 8, DATA misses = 32. Winner = INSTR
[DUEL] Epoch ended. INSTR misses = 32, DATA misses = 32. Winner = INSTR
[DUEL] Epoch ended. INSTR misses = 0, DATA misses = 0. Winner = INSTR
[DUEL] Epoch ended. INSTR misses = 31, DATA misses = 32. Winner = INSTR
[DUEL] Epoch ended. INSTR misses = 0, DATA misses = 0. Winner = INSTR
[DUEL] Epoch ended. INSTR misses = 32, DATA misses = 32. Winner = INSTR
[DUEL] Epoch ended. INSTR misses = 32, DATA misses = 32. Winner = INSTR
[DUEL] Epoch ended. INSTR misses = 0, DATA misses = 0. Winner = INSTR
[DUEL] Epoch ended. INSTR misses = 32, DATA misses = 32. Winner = INSTR
[DUEL] Epoch ended. INSTR misses = 0, DATA misses = 0. Winner = INSTR
[DUEL] Epoch ended. INSTR misses = 32, DATA misses = 32. Winner = INSTR
[DUEL] Epoch ended. INSTR misses = 0, DATA misses = 0. Winner = INSTR
[DUEL] Epoch ended. INSTR misses = 32, DATA misses = 32. Winner = INSTR
[DUEL] Epoch ended. INSTR misses = 32, DATA misses = 32. Winner = INSTR
[DUEL] Epoch ended. INSTR misses = 0, DATA misses = 0. Winner = INSTR
[DUEL] Epoch ended. INSTR misses = 32, DATA misses = 31. Winner = DATA
[DUEL] Epoch ended. INSTR misses = 0, DATA misses = 0. Winner = INSTR
[DUEL] Epoch ended. INSTR misses = 32, DATA misses = 32. Winner = INSTR
[DUEL] Epoch ended. INSTR misses = 0, DATA misses = 0. Winner = INSTR
[DUEL] Epoch ended. INSTR misses = 32, DATA misses = 32. Winner = INSTR
[DUEL] Epoch ended. INSTR misses = 0, DATA misses = 0. Winner = INSTR
[DUEL] Epoch ended. INSTR misses = 32, DATA misses = 32. Winner = INSTR
[DUEL] Epoch ended. INSTR misses = 32, DATA misses = 32. Winner = INSTR
[DUEL] Epoch ended. INSTR misses = 0, DATA misses = 0. Winner = INSTR
[DUEL] Epoch ended. INSTR misses = 32, DATA misses = 31. Winner = DATA
[DUEL] Epoch ended. INSTR misses = 0, DATA misses = 0. Winner = INSTR
[DUEL] Epoch ended. INSTR misses = 32, DATA misses = 32. Winner = INSTR
[DUEL] Epoch ended. INSTR misses = 0, DATA misses = 0. Winner = INSTR
[DUEL] Epoch ended. INSTR misses = 32, DATA misses = 32. Winner = INSTR
[DUEL] Epoch ended. INSTR misses = 32, DATA misses = 32. Winner = INSTR
[DUEL] Epoch ended. INSTR misses = 0, DATA misses = 0. Winner = INSTR
[DUEL] Epoch ended. INSTR misses = 32, DATA misses = 34. Winner = INSTR
[DUEL] Epoch ended. INSTR misses = 0, DATA misses = 2. Winner = INSTR
[DUEL] Epoch ended. INSTR misses = 32, DATA misses = 30. Winner = DATA
[DUEL] Epoch ended. INSTR misses = 0, DATA misses = 2. Winner = INSTR
Heartbeat CPU 0 instructions: 30000003 cycles: 5000761 heartbeat IPC: 6 cumulative IPC: 5.999 (Simulation time: 00 hr 01 min 13 sec)
Warmup finished CPU 0 instructions: 30000003 cycles: 5000762 cumulative IPC: 5.999 (Simulation time: 00 hr 01 min 13 sec)
Warmup complete CPU 0 instructions: 30000003 cycles: 5000762 cumulative IPC: 5.999 (Simulation time: 00 hr 01 min 13 sec)
[DUEL] Epoch ended. INSTR misses = 32, DATA misses = 30. Winner = DATA
[DUEL] Epoch ended. INSTR misses = 0, DATA misses = 2. Winner = INSTR
[DUEL] Epoch ended. INSTR misses = 32, DATA misses = 30. Winner = DATA
[DUEL] Epoch ended. INSTR misses = 32, DATA misses = 32. Winner = INSTR
[DUEL] Epoch ended. INSTR misses = 0, DATA misses = 1. Winner = INSTR
[DUEL] Epoch ended. INSTR misses = 32, DATA misses = 32. Winner = INSTR
[DUEL] Epoch ended. INSTR misses = 0, DATA misses = 0. Winner = INSTR
[DUEL] Epoch ended. INSTR misses = 32, DATA misses = 32. Winner = INSTR
[DUEL] Epoch ended. INSTR misses = 0, DATA misses = 0. Winner = INSTR
[DUEL] Epoch ended. INSTR misses = 32, DATA misses = 32. Winner = INSTR
[DUEL] Epoch ended. INSTR misses = 0, DATA misses = 0. Winner = INSTR
[DUEL] Epoch ended. INSTR misses = 31, DATA misses = 32. Winner = INSTR
[DUEL] Epoch ended. INSTR misses = 32, DATA misses = 32. Winner = INSTR
[DUEL] Epoch ended. INSTR misses = 0, DATA misses = 0. Winner = INSTR
[DUEL] Epoch ended. INSTR misses = 32, DATA misses = 32. Winner = INSTR
[DUEL] Epoch ended. INSTR misses = 0, DATA misses = 0. Winner = INSTR
[DUEL] Epoch ended. INSTR misses = 32, DATA misses = 32. Winner = INSTR
[DUEL] Epoch ended. INSTR misses = 0, DATA misses = 0. Winner = INSTR
[DUEL] Epoch ended. INSTR misses = 32, DATA misses = 31. Winner = DATA
[DUEL] Epoch ended. INSTR misses = 0, DATA misses = 0. Winner = INSTR
[DUEL] Epoch ended. INSTR misses = 32, DATA misses = 32. Winner = INSTR
[DUEL] Epoch ended. INSTR misses = 32, DATA misses = 32. Winner = INSTR
[DUEL] Epoch ended. INSTR misses = 0, DATA misses = 0. Winner = INSTR
[DUEL] Epoch ended. INSTR misses = 32, DATA misses = 32. Winner = INSTR
[DUEL] Epoch ended. INSTR misses = 0, DATA misses = 0. Winner = INSTR
[DUEL] Epoch ended. INSTR misses = 32, DATA misses = 32. Winner = INSTR
[DUEL] Epoch ended. INSTR misses = 0, DATA misses = 0. Winner = INSTR
[DUEL] Epoch ended. INSTR misses = 32, DATA misses = 32. Winner = INSTR
[DUEL] Epoch ended. INSTR misses = 0, DATA misses = 0. Winner = INSTR
[DUEL] Epoch ended. INSTR misses = 32, DATA misses = 32. Winner = INSTR
[DUEL] Epoch ended. INSTR misses = 32, DATA misses = 32. Winner = INSTR
[DUEL] Epoch ended. INSTR misses = 0, DATA misses = 0. Winner = INSTR
[DUEL] Epoch ended. INSTR misses = 32, DATA misses = 32. Winner = INSTR
[DUEL] Epoch ended. INSTR misses = 0, DATA misses = 0. Winner = INSTR
[DUEL] Epoch ended. INSTR misses = 32, DATA misses = 32. Winner = INSTR
[DUEL] Epoch ended. INSTR misses = 0, DATA misses = 0. Winner = INSTR
[DUEL] Epoch ended. INSTR misses = 32, DATA misses = 32. Winner = INSTR
[DUEL] Epoch ended. INSTR misses = 32, DATA misses = 34. Winner = INSTR
[DUEL] Epoch ended. INSTR misses = 0, DATA misses = 2. Winner = INSTR
Heartbeat CPU 0 instructions: 40000000 cycles: 8199154 heartbeat IPC: 3.127 cumulative IPC: 3.127 (Simulation time: 00 hr 01 min 53 sec)
[DUEL] Epoch ended. INSTR misses = 32, DATA misses = 30. Winner = DATA
[DUEL] Epoch ended. INSTR misses = 0, DATA misses = 2. Winner = INSTR
[DUEL] Epoch ended. INSTR misses = 31, DATA misses = 30. Winner = DATA
[DUEL] Epoch ended. INSTR misses = 0, DATA misses = 2. Winner = INSTR
[DUEL] Epoch ended. INSTR misses = 32, DATA misses = 30. Winner = DATA
[DUEL] Epoch ended. INSTR misses = 0, DATA misses = 2. Winner = INSTR
[DUEL] Epoch ended. INSTR misses = 32, DATA misses = 31. Winner = DATA
[DUEL] Epoch ended. INSTR misses = 32, DATA misses = 32. Winner = INSTR
[DUEL] Epoch ended. INSTR misses = 0, DATA misses = 0. Winner = INSTR
[DUEL] Epoch ended. INSTR misses = 32, DATA misses = 32. Winner = INSTR
[DUEL] Epoch ended. INSTR misses = 0, DATA misses = 0. Winner = INSTR
[DUEL] Epoch ended. INSTR misses = 32, DATA misses = 32. Winner = INSTR
[DUEL] Epoch ended. INSTR misses = 0, DATA misses = 0. Winner = INSTR
[DUEL] Epoch ended. INSTR misses = 32, DATA misses = 32. Winner = INSTR
[DUEL] Epoch ended. INSTR misses = 0, DATA misses = 0. Winner = INSTR
[DUEL] Epoch ended. INSTR misses = 32, DATA misses = 32. Winner = INSTR
[DUEL] Epoch ended. INSTR misses = 32, DATA misses = 32. Winner = INSTR
[DUEL] Epoch ended. INSTR misses = 0, DATA misses = 0. Winner = INSTR
[DUEL] Epoch ended. INSTR misses = 32, DATA misses = 32. Winner = INSTR
[DUEL] Epoch ended. INSTR misses = 0, DATA misses = 0. Winner = INSTR
[DUEL] Epoch ended. INSTR misses = 32, DATA misses = 32. Winner = INSTR
[DUEL] Epoch ended. INSTR misses = 0, DATA misses = 0. Winner = INSTR
[DUEL] Epoch ended. INSTR misses = 32, DATA misses = 32. Winner = INSTR
[DUEL] Epoch ended. INSTR misses = 32, DATA misses = 26. Winner = DATA
[DUEL] Epoch ended. INSTR misses = 0, DATA misses = 6. Winner = INSTR
[DUEL] Epoch ended. INSTR misses = 32, DATA misses = 32. Winner = INSTR
[DUEL] Epoch ended. INSTR misses = 0, DATA misses = 0. Winner = INSTR
[DUEL] Epoch ended. INSTR misses = 32, DATA misses = 32. Winner = INSTR
[DUEL] Epoch ended. INSTR misses = 0, DATA misses = 0. Winner = INSTR
[DUEL] Epoch ended. INSTR misses = 32, DATA misses = 32. Winner = INSTR
[DUEL] Epoch ended. INSTR misses = 0, DATA misses = 0. Winner = INSTR
[DUEL] Epoch ended. INSTR misses = 32, DATA misses = 32. Winner = INSTR
[DUEL] Epoch ended. INSTR misses = 32, DATA misses = 32. Winner = INSTR
[DUEL] Epoch ended. INSTR misses = 0, DATA misses = 0. Winner = INSTR
[DUEL] Epoch ended. INSTR misses = 32, DATA misses = 32. Winner = INSTR
[DUEL] Epoch ended. INSTR misses = 0, DATA misses = 0. Winner = INSTR
[DUEL] Epoch ended. INSTR misses = 32, DATA misses = 32. Winner = INSTR
[DUEL] Epoch ended. INSTR misses = 0, DATA misses = 0. Winner = INSTR
[DUEL] Epoch ended. INSTR misses = 32, DATA misses = 34. Winner = INSTR
Heartbeat CPU 0 instructions: 50000007 cycles: 11506409 heartbeat IPC: 3.024 cumulative IPC: 3.074 (Simulation time: 00 hr 02 min 34 sec)
[DUEL] Epoch ended. INSTR misses = 0, DATA misses = 2. Winner = INSTR
[DUEL] Epoch ended. INSTR misses = 32, DATA misses = 32. Winner = INSTR
[DUEL] Epoch ended. INSTR misses = 32, DATA misses = 30. Winner = DATA
[DUEL] Epoch ended. INSTR misses = 0, DATA misses = 2. Winner = INSTR
[DUEL] Epoch ended. INSTR misses = 32, DATA misses = 30. Winner = DATA
[DUEL] Epoch ended. INSTR misses = 0, DATA misses = 2. Winner = INSTR
[DUEL] Epoch ended. INSTR misses = 32, DATA misses = 30. Winner = DATA
[DUEL] Epoch ended. INSTR misses = 0, DATA misses = 2. Winner = INSTR
[DUEL] Epoch ended. INSTR misses = 32, DATA misses = 31. Winner = DATA
[DUEL] Epoch ended. INSTR misses = 0, DATA misses = 0. Winner = INSTR
[DUEL] Epoch ended. INSTR misses = 32, DATA misses = 32. Winner = INSTR
[DUEL] Epoch ended. INSTR misses = 32, DATA misses = 32. Winner = INSTR
[DUEL] Epoch ended. INSTR misses = 0, DATA misses = 0. Winner = INSTR
[DUEL] Epoch ended. INSTR misses = 32, DATA misses = 32. Winner = INSTR
[DUEL] Epoch ended. INSTR misses = 0, DATA misses = 0. Winner = INSTR
[DUEL] Epoch ended. INSTR misses = 32, DATA misses = 32. Winner = INSTR
[DUEL] Epoch ended. INSTR misses = 0, DATA misses = 0. Winner = INSTR
[DUEL] Epoch ended. INSTR misses = 32, DATA misses = 32. Winner = INSTR
[DUEL] Epoch ended. INSTR misses = 32, DATA misses = 32. Winner = INSTR
[DUEL] Epoch ended. INSTR misses = 0, DATA misses = 0. Winner = INSTR
[DUEL] Epoch ended. INSTR misses = 32, DATA misses = 32. Winner = INSTR
[DUEL] Epoch ended. INSTR misses = 0, DATA misses = 0. Winner = INSTR
[DUEL] Epoch ended. INSTR misses = 32, DATA misses = 32. Winner = INSTR
[DUEL] Epoch ended. INSTR misses = 0, DATA misses = 0. Winner = INSTR
[DUEL] Epoch ended. INSTR misses = 32, DATA misses = 32. Winner = INSTR
[DUEL] Epoch ended. INSTR misses = 0, DATA misses = 0. Winner = INSTR
[DUEL] Epoch ended. INSTR misses = 32, DATA misses = 32. Winner = INSTR
[DUEL] Epoch ended. INSTR misses = 31, DATA misses = 32. Winner = INSTR
[DUEL] Epoch ended. INSTR misses = 0, DATA misses = 0. Winner = INSTR
[DUEL] Epoch ended. INSTR misses = 32, DATA misses = 32. Winner = INSTR
[DUEL] Epoch ended. INSTR misses = 0, DATA misses = 0. Winner = INSTR
[DUEL] Epoch ended. INSTR misses = 32, DATA misses = 31. Winner = DATA
[DUEL] Epoch ended. INSTR misses = 0, DATA misses = 0. Winner = INSTR
[DUEL] Epoch ended. INSTR misses = 32, DATA misses = 32. Winner = INSTR
[DUEL] Epoch ended. INSTR misses = 1, DATA misses = 0. Winner = DATA
[DUEL] Epoch ended. INSTR misses = 15, DATA misses = 16. Winner = INSTR
[DUEL] Epoch ended. INSTR misses = 1, DATA misses = 0. Winner = DATA
[DUEL] Epoch ended. INSTR misses = 15, DATA misses = 16. Winner = INSTR
[DUEL] Epoch ended. INSTR misses = 1, DATA misses = 0. Winner = DATA
Heartbeat CPU 0 instructions: 60000011 cycles: 14927210 heartbeat IPC: 2.923 cumulative IPC: 3.022 (Simulation time: 00 hr 03 min 15 sec)
[DUEL] Epoch ended. INSTR misses = 16, DATA misses = 16. Winner = INSTR
[DUEL] Epoch ended. INSTR misses = 15, DATA misses = 17. Winner = INSTR
[DUEL] Epoch ended. INSTR misses = 1, DATA misses = 0. Winner = DATA
[DUEL] Epoch ended. INSTR misses = 15, DATA misses = 15. Winner = INSTR
[DUEL] Epoch ended. INSTR misses = 0, DATA misses = 0. Winner = INSTR
[DUEL] Epoch ended. INSTR misses = 0, DATA misses = 0. Winner = INSTR
[DUEL] Epoch ended. INSTR misses = 0, DATA misses = 0. Winner = INSTR
[DUEL] Epoch ended. INSTR misses = 0, DATA misses = 0. Winner = INSTR
[DUEL] Epoch ended. INSTR misses = 2, DATA misses = 3. Winner = INSTR
[DUEL] Epoch ended. INSTR misses = 0, DATA misses = 1. Winner = INSTR
[DUEL] Epoch ended. INSTR misses = 3, DATA misses = 5. Winner = INSTR
[DUEL] Epoch ended. INSTR misses = 0, DATA misses = 0. Winner = INSTR
[DUEL] Epoch ended. INSTR misses = 7, DATA misses = 9. Winner = INSTR
[DUEL] Epoch ended. INSTR misses = 0, DATA misses = 0. Winner = INSTR
[DUEL] Epoch ended. INSTR misses = 13, DATA misses = 15. Winner = INSTR
[DUEL] Epoch ended. INSTR misses = 0, DATA misses = 0. Winner = INSTR
[DUEL] Epoch ended. INSTR misses = 15, DATA misses = 14. Winner = DATA
[DUEL] Epoch ended. INSTR misses = 17, DATA misses = 19. Winner = INSTR
[DUEL] Epoch ended. INSTR misses = 0, DATA misses = 0. Winner = INSTR
[DUEL] Epoch ended. INSTR misses = 19, DATA misses = 19. Winner = INSTR
[DUEL] Epoch ended. INSTR misses = 0, DATA misses = 0. Winner = INSTR
[DUEL] Epoch ended. INSTR misses = 23, DATA misses = 24. Winner = INSTR
[DUEL] Epoch ended. INSTR misses = 29, DATA misses = 30. Winner = INSTR
[DUEL] Epoch ended. INSTR misses = 0, DATA misses = 0. Winner = INSTR
[DUEL] Epoch ended. INSTR misses = 31, DATA misses = 28. Winner = DATA
[DUEL] Epoch ended. INSTR misses = 0, DATA misses = 0. Winner = INSTR
[DUEL] Epoch ended. INSTR misses = 30, DATA misses = 32. Winner = INSTR
[DUEL] Epoch ended. INSTR misses = 0, DATA misses = 0. Winner = INSTR
[DUEL] Epoch ended. INSTR misses = 16, DATA misses = 14. Winner = DATA
[DUEL] Epoch ended. INSTR misses = 31, DATA misses = 32. Winner = INSTR
[DUEL] Epoch ended. INSTR misses = 16, DATA misses = 16. Winner = INSTR
[DUEL] Epoch ended. INSTR misses = 16, DATA misses = 15. Winner = DATA
[DUEL] Epoch ended. INSTR misses = 16, DATA misses = 15. Winner = DATA
[DUEL] Epoch ended. INSTR misses = 16, DATA misses = 14. Winner = DATA
[DUEL] Epoch ended. INSTR misses = 16, DATA misses = 16. Winner = INSTR
[DUEL] Epoch ended. INSTR misses = 15, DATA misses = 16. Winner = INSTR
[DUEL] Epoch ended. INSTR misses = 16, DATA misses = 16. Winner = INSTR
[DUEL] Epoch ended. INSTR misses = 31, DATA misses = 32. Winner = INSTR
[DUEL] Epoch ended. INSTR misses = 0, DATA misses = 0. Winner = INSTR
Heartbeat CPU 0 instructions: 70000006 cycles: 18130919 heartbeat IPC: 3.121 cumulative IPC: 3.046 (Simulation time: 00 hr 03 min 55 sec)
[DUEL] Epoch ended. INSTR misses = 32, DATA misses = 31. Winner = DATA
[DUEL] Epoch ended. INSTR misses = 0, DATA misses = 0. Winner = INSTR
[DUEL] Epoch ended. INSTR misses = 32, DATA misses = 33. Winner = INSTR
[DUEL] Epoch ended. INSTR misses = 0, DATA misses = 2. Winner = INSTR
[DUEL] Epoch ended. INSTR misses = 2, DATA misses = 0. Winner = DATA
[DUEL] Epoch ended. INSTR misses = 61, DATA misses = 61. Winner = INSTR
[DUEL] Epoch ended. INSTR misses = 0, DATA misses = 2. Winner = INSTR
[DUEL] Epoch ended. INSTR misses = 32, DATA misses = 30. Winner = DATA
[DUEL] Epoch ended. INSTR misses = 0, DATA misses = 2. Winner = INSTR
[DUEL] Epoch ended. INSTR misses = 32, DATA misses = 29. Winner = DATA
[DUEL] Epoch ended. INSTR misses = 0, DATA misses = 2. Winner = INSTR
[DUEL] Epoch ended. INSTR misses = 32, DATA misses = 31. Winner = DATA
[DUEL] Epoch ended. INSTR misses = 0, DATA misses = 0. Winner = INSTR
[DUEL] Epoch ended. INSTR misses = 32, DATA misses = 32. Winner = INSTR
[DUEL] Epoch ended. INSTR misses = 32, DATA misses = 31. Winner = DATA
[DUEL] Epoch ended. INSTR misses = 0, DATA misses = 0. Winner = INSTR
[DUEL] Epoch ended. INSTR misses = 32, DATA misses = 32. Winner = INSTR
[DUEL] Epoch ended. INSTR misses = 0, DATA misses = 0. Winner = INSTR
[DUEL] Epoch ended. INSTR misses = 32, DATA misses = 32. Winner = INSTR
[DUEL] Epoch ended. INSTR misses = 0, DATA misses = 0. Winner = INSTR
[DUEL] Epoch ended. INSTR misses = 32, DATA misses = 31. Winner = DATA
[DUEL] Epoch ended. INSTR misses = 0, DATA misses = 0. Winner = INSTR
[DUEL] Epoch ended. INSTR misses = 32, DATA misses = 32. Winner = INSTR
[DUEL] Epoch ended. INSTR misses = 32, DATA misses = 32. Winner = INSTR
[DUEL] Epoch ended. INSTR misses = 0, DATA misses = 0. Winner = INSTR
[DUEL] Epoch ended. INSTR misses = 32, DATA misses = 32. Winner = INSTR
[DUEL] Epoch ended. INSTR misses = 0, DATA misses = 0. Winner = INSTR
[DUEL] Epoch ended. INSTR misses = 31, DATA misses = 32. Winner = INSTR
[DUEL] Epoch ended. INSTR misses = 0, DATA misses = 0. Winner = INSTR
[DUEL] Epoch ended. INSTR misses = 30, DATA misses = 31. Winner = INSTR
[DUEL] Epoch ended. INSTR misses = 0, DATA misses = 0. Winner = INSTR
[DUEL] Epoch ended. INSTR misses = 32, DATA misses = 32. Winner = INSTR
[DUEL] Epoch ended. INSTR misses = 31, DATA misses = 32. Winner = INSTR
[DUEL] Epoch ended. INSTR misses = 3, DATA misses = 0. Winner = DATA
[DUEL] Epoch ended. INSTR misses = 29, DATA misses = 32. Winner = INSTR
[DUEL] Epoch ended. INSTR misses = 3, DATA misses = 0. Winner = DATA
[DUEL] Epoch ended. INSTR misses = 28, DATA misses = 31. Winner = INSTR
[DUEL] Epoch ended. INSTR misses = 3, DATA misses = 0. Winner = DATA
[DUEL] Epoch ended. INSTR misses = 30, DATA misses = 32. Winner = INSTR
Heartbeat CPU 0 instructions: 80000010 cycles: 21346256 heartbeat IPC: 3.11 cumulative IPC: 3.059 (Simulation time: 00 hr 04 min 35 sec)
[DUEL] Epoch ended. INSTR misses = 29, DATA misses = 32. Winner = INSTR
[DUEL] Epoch ended. INSTR misses = 0, DATA misses = 0. Winner = INSTR
[DUEL] Epoch ended. INSTR misses = 31, DATA misses = 32. Winner = INSTR
[DUEL] Epoch ended. INSTR misses = 0, DATA misses = 0. Winner = INSTR
[DUEL] Epoch ended. INSTR misses = 32, DATA misses = 34. Winner = INSTR
[DUEL] Epoch ended. INSTR misses = 0, DATA misses = 2. Winner = INSTR
[DUEL] Epoch ended. INSTR misses = 32, DATA misses = 29. Winner = DATA
[DUEL] Epoch ended. INSTR misses = 0, DATA misses = 2. Winner = INSTR
[DUEL] Epoch ended. INSTR misses = 36, DATA misses = 32. Winner = DATA
[DUEL] Epoch ended. INSTR misses = 2, DATA misses = 0. Winner = DATA
[DUEL] Epoch ended. INSTR misses = 26, DATA misses = 32. Winner = INSTR
[DUEL] Epoch ended. INSTR misses = 32, DATA misses = 30. Winner = DATA
[DUEL] Epoch ended. INSTR misses = 0, DATA misses = 2. Winner = INSTR
[DUEL] Epoch ended. INSTR misses = 32, DATA misses = 31. Winner = DATA
[DUEL] Epoch ended. INSTR misses = 0, DATA misses = 0. Winner = INSTR
[DUEL] Epoch ended. INSTR misses = 32, DATA misses = 30. Winner = DATA
[DUEL] Epoch ended. INSTR misses = 32, DATA misses = 32. Winner = INSTR
[DUEL] Epoch ended. INSTR misses = 0, DATA misses = 0. Winner = INSTR
[DUEL] Epoch ended. INSTR misses = 32, DATA misses = 31. Winner = DATA
[DUEL] Epoch ended. INSTR misses = 0, DATA misses = 0. Winner = INSTR
[DUEL] Epoch ended. INSTR misses = 32, DATA misses = 32. Winner = INSTR
[DUEL] Epoch ended. INSTR misses = 0, DATA misses = 0. Winner = INSTR
[DUEL] Epoch ended. INSTR misses = 32, DATA misses = 32. Winner = INSTR
[DUEL] Epoch ended. INSTR misses = 32, DATA misses = 31. Winner = DATA
[DUEL] Epoch ended. INSTR misses = 0, DATA misses = 0. Winner = INSTR
[DUEL] Epoch ended. INSTR misses = 32, DATA misses = 32. Winner = INSTR
[DUEL] Epoch ended. INSTR misses = 0, DATA misses = 0. Winner = INSTR
[DUEL] Epoch ended. INSTR misses = 32, DATA misses = 32. Winner = INSTR
[DUEL] Epoch ended. INSTR misses = 0, DATA misses = 0. Winner = INSTR
[DUEL] Epoch ended. INSTR misses = 32, DATA misses = 32. Winner = INSTR
[DUEL] Epoch ended. INSTR misses = 0, DATA misses = 0. Winner = INSTR
[DUEL] Epoch ended. INSTR misses = 32, DATA misses = 32. Winner = INSTR
[DUEL] Epoch ended. INSTR misses = 2, DATA misses = 0. Winner = DATA
[DUEL] Epoch ended. INSTR misses = 30, DATA misses = 32. Winner = INSTR
[DUEL] Epoch ended. INSTR misses = 32, DATA misses = 32. Winner = INSTR
[DUEL] Epoch ended. INSTR misses = 0, DATA misses = 0. Winner = INSTR
[DUEL] Epoch ended. INSTR misses = 31, DATA misses = 32. Winner = INSTR
[DUEL] Epoch ended. INSTR misses = 0, DATA misses = 0. Winner = INSTR
[DUEL] Epoch ended. INSTR misses = 32, DATA misses = 32. Winner = INSTR
Heartbeat CPU 0 instructions: 90000005 cycles: 24400435 heartbeat IPC: 3.274 cumulative IPC: 3.093 (Simulation time: 00 hr 05 min 14 sec)
[DUEL] Epoch ended. INSTR misses = 0, DATA misses = 0. Winner = INSTR
[DUEL] Epoch ended. INSTR misses = 32, DATA misses = 32. Winner = INSTR
[DUEL] Epoch ended. INSTR misses = 32, DATA misses = 32. Winner = INSTR
[DUEL] Epoch ended. INSTR misses = 0, DATA misses = 0. Winner = INSTR
[DUEL] Epoch ended. INSTR misses = 32, DATA misses = 31. Winner = DATA
[DUEL] Epoch ended. INSTR misses = 0, DATA misses = 0. Winner = INSTR
[DUEL] Epoch ended. INSTR misses = 31, DATA misses = 34. Winner = INSTR
[DUEL] Epoch ended. INSTR misses = 0, DATA misses = 2. Winner = INSTR
[DUEL] Epoch ended. INSTR misses = 32, DATA misses = 30. Winner = DATA
[DUEL] Epoch ended. INSTR misses = 0, DATA misses = 2. Winner = INSTR
[DUEL] Epoch ended. INSTR misses = 32, DATA misses = 32. Winner = INSTR
[DUEL] Epoch ended. INSTR misses = 32, DATA misses = 30. Winner = DATA
[DUEL] Epoch ended. INSTR misses = 0, DATA misses = 2. Winner = INSTR
[DUEL] Epoch ended. INSTR misses = 32, DATA misses = 29. Winner = DATA
[DUEL] Epoch ended. INSTR misses = 0, DATA misses = 1. Winner = INSTR
[DUEL] Epoch ended. INSTR misses = 32, DATA misses = 32. Winner = INSTR
[DUEL] Epoch ended. INSTR misses = 0, DATA misses = 0. Winner = INSTR
[DUEL] Epoch ended. INSTR misses = 32, DATA misses = 32. Winner = INSTR
[DUEL] Epoch ended. INSTR misses = 0, DATA misses = 0. Winner = INSTR
[DUEL] Epoch ended. INSTR misses = 32, DATA misses = 32. Winner = INSTR
[DUEL] Epoch ended. INSTR misses = 32, DATA misses = 32. Winner = INSTR
[DUEL] Epoch ended. INSTR misses = 0, DATA misses = 0. Winner = INSTR
[DUEL] Epoch ended. INSTR misses = 32, DATA misses = 32. Winner = INSTR
[DUEL] Epoch ended. INSTR misses = 0, DATA misses = 0. Winner = INSTR
[DUEL] Epoch ended. INSTR misses = 32, DATA misses = 32. Winner = INSTR
[DUEL] Epoch ended. INSTR misses = 0, DATA misses = 0. Winner = INSTR
[DUEL] Epoch ended. INSTR misses = 32, DATA misses = 32. Winner = INSTR
[DUEL] Epoch ended. INSTR misses = 31, DATA misses = 32. Winner = INSTR
[DUEL] Epoch ended. INSTR misses = 0, DATA misses = 0. Winner = INSTR
[DUEL] Epoch ended. INSTR misses = 32, DATA misses = 32. Winner = INSTR
[DUEL] Epoch ended. INSTR misses = 0, DATA misses = 0. Winner = INSTR
[DUEL] Epoch ended. INSTR misses = 32, DATA misses = 32. Winner = INSTR
[DUEL] Epoch ended. INSTR misses = 0, DATA misses = 0. Winner = INSTR
[DUEL] Epoch ended. INSTR misses = 32, DATA misses = 32. Winner = INSTR
[DUEL] Epoch ended. INSTR misses = 0, DATA misses = 0. Winner = INSTR
[DUEL] Epoch ended. INSTR misses = 32, DATA misses = 32. Winner = INSTR
[DUEL] Epoch ended. INSTR misses = 31, DATA misses = 32. Winner = INSTR
[DUEL] Epoch ended. INSTR misses = 0, DATA misses = 0. Winner = INSTR
[DUEL] Epoch ended. INSTR misses = 32, DATA misses = 32. Winner = INSTR
Heartbeat CPU 0 instructions: 100000000 cycles: 27488783 heartbeat IPC: 3.238 cumulative IPC: 3.113 (Simulation time: 00 hr 05 min 53 sec)
*** Reached end of trace: (0, "../traces/secret_traces/compute_fp/compute_fp_60.champsimtrace.xz")
[DUEL] Epoch ended. INSTR misses = 0, DATA misses = 0. Winner = INSTR
[DUEL] Epoch ended. INSTR misses = 16, DATA misses = 16. Winner = INSTR
[DUEL] Epoch ended. INSTR misses = 16, DATA misses = 16. Winner = INSTR
[DUEL] Epoch ended. INSTR misses = 0, DATA misses = 0. Winner = INSTR
[DUEL] Epoch ended. INSTR misses = 16, DATA misses = 16. Winner = INSTR
[DUEL] Epoch ended. INSTR misses = 0, DATA misses = 0. Winner = INSTR
[DUEL] Epoch ended. INSTR misses = 16, DATA misses = 16. Winner = INSTR
[DUEL] Epoch ended. INSTR misses = 0, DATA misses = 0. Winner = INSTR
[DUEL] Epoch ended. INSTR misses = 16, DATA misses = 15. Winner = DATA
[DUEL] Epoch ended. INSTR misses = 0, DATA misses = 0. Winner = INSTR
[DUEL] Epoch ended. INSTR misses = 0, DATA misses = 0. Winner = INSTR
[DUEL] Epoch ended. INSTR misses = 0, DATA misses = 0. Winner = INSTR
[DUEL] Epoch ended. INSTR misses = 0, DATA misses = 0. Winner = INSTR
[DUEL] Epoch ended. INSTR misses = 2, DATA misses = 3. Winner = INSTR
[DUEL] Epoch ended. INSTR misses = 0, DATA misses = 0. Winner = INSTR
[DUEL] Epoch ended. INSTR misses = 3, DATA misses = 5. Winner = INSTR
[DUEL] Epoch ended. INSTR misses = 0, DATA misses = 0. Winner = INSTR
[DUEL] Epoch ended. INSTR misses = 7, DATA misses = 8. Winner = INSTR
[DUEL] Epoch ended. INSTR misses = 1, DATA misses = 0. Winner = DATA
[DUEL] Epoch ended. INSTR misses = 12, DATA misses = 15. Winner = INSTR
[DUEL] Epoch ended. INSTR misses = 15, DATA misses = 14. Winner = DATA
[DUEL] Epoch ended. INSTR misses = 0, DATA misses = 0. Winner = INSTR
[DUEL] Epoch ended. INSTR misses = 16, DATA misses = 18. Winner = INSTR
[DUEL] Epoch ended. INSTR misses = 0, DATA misses = 0. Winner = INSTR
[DUEL] Epoch ended. INSTR misses = 19, DATA misses = 19. Winner = INSTR
[DUEL] Epoch ended. INSTR misses = 0, DATA misses = 0. Winner = INSTR
[DUEL] Epoch ended. INSTR misses = 23, DATA misses = 24. Winner = INSTR
[DUEL] Epoch ended. INSTR misses = 28, DATA misses = 30. Winner = INSTR
[DUEL] Epoch ended. INSTR misses = 0, DATA misses = 0. Winner = INSTR
[DUEL] Epoch ended. INSTR misses = 31, DATA misses = 28. Winner = DATA
[DUEL] Epoch ended. INSTR misses = 0, DATA misses = 0. Winner = INSTR
[DUEL] Epoch ended. INSTR misses = 30, DATA misses = 32. Winner = INSTR
[DUEL] Epoch ended. INSTR misses = 16, DATA misses = 16. Winner = INSTR
[DUEL] Epoch ended. INSTR misses = 16, DATA misses = 18. Winner = INSTR
[DUEL] Epoch ended. INSTR misses = 15, DATA misses = 14. Winner = DATA
[DUEL] Epoch ended. INSTR misses = 17, DATA misses = 18. Winner = INSTR
[DUEL] Epoch ended. INSTR misses = 15, DATA misses = 13. Winner = DATA
[DUEL] Epoch ended. INSTR misses = 17, DATA misses = 17. Winner = INSTR
[DUEL] Epoch ended. INSTR misses = 15, DATA misses = 12. Winner = DATA
Heartbeat CPU 0 instructions: 110000009 cycles: 30704188 heartbeat IPC: 3.11 cumulative IPC: 3.112 (Simulation time: 00 hr 06 min 33 sec)
[DUEL] Epoch ended. INSTR misses = 30, DATA misses = 33. Winner = INSTR
[DUEL] Epoch ended. INSTR misses = 16, DATA misses = 16. Winner = INSTR
[DUEL] Epoch ended. INSTR misses = 0, DATA misses = 0. Winner = INSTR
[DUEL] Epoch ended. INSTR misses = 31, DATA misses = 32. Winner = INSTR
[DUEL] Epoch ended. INSTR misses = 0, DATA misses = 0. Winner = INSTR
[DUEL] Epoch ended. INSTR misses = 32, DATA misses = 31. Winner = DATA
[DUEL] Epoch ended. INSTR misses = 0, DATA misses = 0. Winner = INSTR
[DUEL] Epoch ended. INSTR misses = 32, DATA misses = 31. Winner = DATA
[DUEL] Epoch ended. INSTR misses = 2, DATA misses = 0. Winner = DATA
[DUEL] Epoch ended. INSTR misses = 29, DATA misses = 32. Winner = INSTR
[DUEL] Epoch ended. INSTR misses = 32, DATA misses = 31. Winner = DATA
[DUEL] Epoch ended. INSTR misses = 0, DATA misses = 0. Winner = INSTR
[DUEL] Epoch ended. INSTR misses = 32, DATA misses = 32. Winner = INSTR
[DUEL] Epoch ended. INSTR misses = 0, DATA misses = 0. Winner = INSTR
[DUEL] Epoch ended. INSTR misses = 32, DATA misses = 31. Winner = DATA
[DUEL] Epoch ended. INSTR misses = 0, DATA misses = 0. Winner = INSTR
[DUEL] Epoch ended. INSTR misses = 32, DATA misses = 32. Winner = INSTR
[DUEL] Epoch ended. INSTR misses = 21, DATA misses = 16. Winner = DATA
[DUEL] Epoch ended. INSTR misses = 11, DATA misses = 16. Winner = INSTR
[DUEL] Epoch ended. INSTR misses = 32, DATA misses = 31. Winner = DATA
[DUEL] Epoch ended. INSTR misses = 0, DATA misses = 0. Winner = INSTR
[DUEL] Epoch ended. INSTR misses = 32, DATA misses = 32. Winner = INSTR
[DUEL] Epoch ended. INSTR misses = 0, DATA misses = 0. Winner = INSTR
[DUEL] Epoch ended. INSTR misses = 32, DATA misses = 32. Winner = INSTR
[DUEL] Epoch ended. INSTR misses = 0, DATA misses = 0. Winner = INSTR
[DUEL] Epoch ended. INSTR misses = 32, DATA misses = 31. Winner = DATA
[DUEL] Epoch ended. INSTR misses = 32, DATA misses = 32. Winner = INSTR
[DUEL] Epoch ended. INSTR misses = 0, DATA misses = 0. Winner = INSTR
[DUEL] Epoch ended. INSTR misses = 32, DATA misses = 32. Winner = INSTR
[DUEL] Epoch ended. INSTR misses = 0, DATA misses = 0. Winner = INSTR
[DUEL] Epoch ended. INSTR misses = 32, DATA misses = 32. Winner = INSTR
[DUEL] Epoch ended. INSTR misses = 0, DATA misses = 0. Winner = INSTR
[DUEL] Epoch ended. INSTR misses = 31, DATA misses = 31. Winner = INSTR
[DUEL] Epoch ended. INSTR misses = 30, DATA misses = 31. Winner = INSTR
[DUEL] Epoch ended. INSTR misses = 0, DATA misses = 2. Winner = INSTR
[DUEL] Epoch ended. INSTR misses = 32, DATA misses = 32. Winner = INSTR
[DUEL] Epoch ended. INSTR misses = 0, DATA misses = 2. Winner = INSTR
[DUEL] Epoch ended. INSTR misses = 31, DATA misses = 30. Winner = DATA
[DUEL] Epoch ended. INSTR misses = 0, DATA misses = 2. Winner = INSTR
Heartbeat CPU 0 instructions: 120000004 cycles: 33729150 heartbeat IPC: 3.306 cumulative IPC: 3.133 (Simulation time: 00 hr 07 min 12 sec)
[DUEL] Epoch ended. INSTR misses = 32, DATA misses = 30. Winner = DATA
[DUEL] Epoch ended. INSTR misses = 31, DATA misses = 15. Winner = DATA
[DUEL] Epoch ended. INSTR misses = 0, DATA misses = 16. Winner = INSTR
[DUEL] Epoch ended. INSTR misses = 1, DATA misses = 1. Winner = INSTR
[DUEL] Epoch ended. INSTR misses = 29, DATA misses = 32. Winner = INSTR
[DUEL] Epoch ended. INSTR misses = 32, DATA misses = 32. Winner = INSTR
[DUEL] Epoch ended. INSTR misses = 0, DATA misses = 0. Winner = INSTR
[DUEL] Epoch ended. INSTR misses = 31, DATA misses = 32. Winner = INSTR
[DUEL] Epoch ended. INSTR misses = 0, DATA misses = 0. Winner = INSTR
[DUEL] Epoch ended. INSTR misses = 32, DATA misses = 32. Winner = INSTR
[DUEL] Epoch ended. INSTR misses = 32, DATA misses = 31. Winner = DATA
[DUEL] Epoch ended. INSTR misses = 0, DATA misses = 0. Winner = INSTR
[DUEL] Epoch ended. INSTR misses = 31, DATA misses = 32. Winner = INSTR
[DUEL] Epoch ended. INSTR misses = 0, DATA misses = 0. Winner = INSTR
[DUEL] Epoch ended. INSTR misses = 32, DATA misses = 31. Winner = DATA
[DUEL] Epoch ended. INSTR misses = 0, DATA misses = 0. Winner = INSTR
[DUEL] Epoch ended. INSTR misses = 32, DATA misses = 32. Winner = INSTR
[DUEL] Epoch ended. INSTR misses = 32, DATA misses = 32. Winner = INSTR
[DUEL] Epoch ended. INSTR misses = 0, DATA misses = 0. Winner = INSTR
[DUEL] Epoch ended. INSTR misses = 32, DATA misses = 30. Winner = DATA
[DUEL] Epoch ended. INSTR misses = 0, DATA misses = 0. Winner = INSTR
[DUEL] Epoch ended. INSTR misses = 32, DATA misses = 32. Winner = INSTR
[DUEL] Epoch ended. INSTR misses = 0, DATA misses = 0. Winner = INSTR
[DUEL] Epoch ended. INSTR misses = 32, DATA misses = 31. Winner = DATA
[DUEL] Epoch ended. INSTR misses = 0, DATA misses = 0. Winner = INSTR
[DUEL] Epoch ended. INSTR misses = 32, DATA misses = 32. Winner = INSTR
[DUEL] Epoch ended. INSTR misses = 32, DATA misses = 32. Winner = INSTR
[DUEL] Epoch ended. INSTR misses = 0, DATA misses = 0. Winner = INSTR
[DUEL] Epoch ended. INSTR misses = 32, DATA misses = 31. Winner = DATA
[DUEL] Epoch ended. INSTR misses = 0, DATA misses = 0. Winner = INSTR
[DUEL] Epoch ended. INSTR misses = 32, DATA misses = 32. Winner = INSTR
[DUEL] Epoch ended. INSTR misses = 0, DATA misses = 0. Winner = INSTR
[DUEL] Epoch ended. INSTR misses = 32, DATA misses = 32. Winner = INSTR
[DUEL] Epoch ended. INSTR misses = 32, DATA misses = 32. Winner = INSTR
[DUEL] Epoch ended. INSTR misses = 0, DATA misses = 0. Winner = INSTR
[DUEL] Epoch ended. INSTR misses = 32, DATA misses = 34. Winner = INSTR
[DUEL] Epoch ended. INSTR misses = 0, DATA misses = 2. Winner = INSTR
[DUEL] Epoch ended. INSTR misses = 2, DATA misses = 0. Winner = DATA
[DUEL] Epoch ended. INSTR misses = 30, DATA misses = 32. Winner = INSTR
Heartbeat CPU 0 instructions: 130000000 cycles: 36661717 heartbeat IPC: 3.41 cumulative IPC: 3.158 (Simulation time: 00 hr 07 min 50 sec)
Simulation finished CPU 0 instructions: 100000009 cycles: 31660957 cumulative IPC: 3.158 (Simulation time: 00 hr 07 min 50 sec)
Simulation complete CPU 0 instructions: 100000009 cycles: 31660957 cumulative IPC: 3.158 (Simulation time: 00 hr 07 min 50 sec)

ChampSim completed all CPUs

=== Simulation ===
CPU 0 runs ../traces/secret_traces/compute_fp/compute_fp_60.champsimtrace.xz
Region of Interest Statistics

CPU 0 cumulative IPC: 3.158 instructions: 100000009 cycles: 31660957
CPU 0 Branch Prediction Accuracy: 100% MPKI: 0.00014 Average ROB Occupancy at Mispredict: 307.6
Branch type MPKI
BRANCH_DIRECT_JUMP: 0
BRANCH_INDIRECT: 0
BRANCH_CONDITIONAL: 0.00014
BRANCH_DIRECT_CALL: 0
BRANCH_INDIRECT_CALL: 0
BRANCH_RETURN: 0

LLC TOTAL        ACCESS:    1789159 HIT:     160049 MISS:    1629110
LLC LOAD         ACCESS:       1146 HIT:        310 MISS:        836
LLC RFO          ACCESS:        171 HIT:         95 MISS:         76
LLC PREFETCH     ACCESS:     894833 HIT:      31881 MISS:     862952
LLC WRITE        ACCESS:     892414 HIT:     127753 MISS:     764661
LLC TRANSLATION  ACCESS:        595 HIT:         10 MISS:        585
LLC PREFETCH REQUESTED:          0 ISSUED:          0 USEFUL:          0 USELESS:          0
LLC AVERAGE MISS LATENCY: 288.8 cycles
cpu0_DTLB TOTAL        ACCESS:   17673599 HIT:   17620456 MISS:      53143
cpu0_DTLB LOAD         ACCESS:   17673599 HIT:   17620456 MISS:      53143
cpu0_DTLB RFO          ACCESS:          0 HIT:          0 MISS:          0
cpu0_DTLB PREFETCH     ACCESS:          0 HIT:          0 MISS:          0
cpu0_DTLB WRITE        ACCESS:          0 HIT:          0 MISS:          0
cpu0_DTLB TRANSLATION  ACCESS:          0 HIT:          0 MISS:          0
cpu0_DTLB PREFETCH REQUESTED:          0 ISSUED:          0 USEFUL:          0 USELESS:          0
cpu0_DTLB AVERAGE MISS LATENCY: 9.791 cycles
cpu0_ITLB TOTAL        ACCESS:       7553 HIT:       7553 MISS:          0
cpu0_ITLB LOAD         ACCESS:       7553 HIT:       7553 MISS:          0
cpu0_ITLB RFO          ACCESS:          0 HIT:          0 MISS:          0
cpu0_ITLB PREFETCH     ACCESS:          0 HIT:          0 MISS:          0
cpu0_ITLB WRITE        ACCESS:          0 HIT:          0 MISS:          0
cpu0_ITLB TRANSLATION  ACCESS:          0 HIT:          0 MISS:          0
cpu0_ITLB PREFETCH REQUESTED:          0 ISSUED:          0 USEFUL:          0 USELESS:          0
cpu0_ITLB AVERAGE MISS LATENCY: -nan cycles
cpu0_L1D TOTAL        ACCESS:   41404488 HIT:   35861292 MISS:    5543196
cpu0_L1D LOAD         ACCESS:   22573113 HIT:   20142168 MISS:    2430945
cpu0_L1D RFO          ACCESS:          0 HIT:          0 MISS:          0
cpu0_L1D PREFETCH     ACCESS:   11683228 HIT:    8574549 MISS:    3108679
cpu0_L1D WRITE        ACCESS:    7134114 HIT:    7133289 MISS:        825
cpu0_L1D TRANSLATION  ACCESS:      14033 HIT:      11286 MISS:       2747
cpu0_L1D PREFETCH REQUESTED:   61000236 ISSUED:   11683230 USEFUL:     980298 USELESS:        212
cpu0_L1D AVERAGE MISS LATENCY: 23.92 cycles
cpu0_L1I TOTAL        ACCESS:      11108 HIT:      10777 MISS:        331
cpu0_L1I LOAD         ACCESS:       5491 HIT:       5292 MISS:        199
cpu0_L1I RFO          ACCESS:          0 HIT:          0 MISS:          0
cpu0_L1I PREFETCH     ACCESS:       5617 HIT:       5485 MISS:        132
cpu0_L1I WRITE        ACCESS:          0 HIT:          0 MISS:          0
cpu0_L1I TRANSLATION  ACCESS:          0 HIT:          0 MISS:          0
cpu0_L1I PREFETCH REQUESTED:       6636 ISSUED:       5617 USEFUL:         79 USELESS:          0
cpu0_L1I AVERAGE MISS LATENCY: 293.1 cycles
cpu0_L2C TOTAL        ACCESS:    7474039 HIT:    3800409 MISS:    3673630
cpu0_L2C LOAD         ACCESS:     289914 HIT:     285813 MISS:       4101
cpu0_L2C RFO          ACCESS:        207 HIT:         36 MISS:        171
cpu0_L2C PREFETCH     ACCESS:    6285397 HIT:    2616634 MISS:    3668763
cpu0_L2C WRITE        ACCESS:     895779 HIT:     895779 MISS:          0
cpu0_L2C TRANSLATION  ACCESS:       2742 HIT:       2147 MISS:        595
cpu0_L2C PREFETCH REQUESTED:    3337791 ISSUED:    3286436 USEFUL:     473836 USELESS:       1277
cpu0_L2C AVERAGE MISS LATENCY: 132.8 cycles
cpu0_STLB TOTAL        ACCESS:      14358 HIT:        338 MISS:      14020
cpu0_STLB LOAD         ACCESS:      14358 HIT:        338 MISS:      14020
cpu0_STLB RFO          ACCESS:          0 HIT:          0 MISS:          0
cpu0_STLB PREFETCH     ACCESS:          0 HIT:          0 MISS:          0
cpu0_STLB WRITE        ACCESS:          0 HIT:          0 MISS:          0
cpu0_STLB TRANSLATION  ACCESS:          0 HIT:          0 MISS:          0
cpu0_STLB PREFETCH REQUESTED:          0 ISSUED:          0 USEFUL:          0 USELESS:          0
cpu0_STLB AVERAGE MISS LATENCY: 70.23 cycles

DRAM Statistics

Channel 0 RQ ROW_BUFFER_HIT:     144545
  ROW_BUFFER_MISS:     287712
 AVG DBUS CONGESTED CYCLE: 3.972
WQ ROW_BUFFER_HIT: Channel 0 
  ROW_BUFFER_MISS:      75347
  FULL:     354397

Channel 1 RQ ROW_BUFFER_HIT:     145037
  ROW_BUFFER_MISS:     287154
 AVG DBUS CONGESTED CYCLE: 3.97
WQ ROW_BUFFER_HIT: Channel 1 
  ROW_BUFFER_MISS:      77015
  FULL:     352551
BERTI TO_L1: 41781347 TO_L2: 46254157 TO_L2_BC_MSHR: 1294618
BERTI AVG_LAT: 149.823 NUM_TRACK_LATENCY: 1691088 NUM_CANT_TRACK_LATENCY: 23
BERTI CROSS_PAGE 15859040 NO_CROSS_PAGE: 72176464
BERTI FOUND_BERTI: 27004452 NO_FOUND_BERTI: 2760170
BERTI AVERAGE_ISSUED: 1.8736
CPU 0 L1I Entangling prefetcher final stats
IP accesses: 7ff8 1ffe00 98 / 5491
IP misses: 4374 10dd00 52 / 199
IP hits: 0 0 0 / 0
IP late: 2133 84cc0 9 / 83
IP wrong: 0 0 0 / 0
miss rate: 0.0362412
coverage: 0
coverage_late: 0.417086
accuracy: 0
accuracy_late: 1
discarded: 0
evicts entangled j table: 0
evicts entangled k table: 2
max bb size: 15
formats: 1 0 2 3 0 0 0 
hist_lookups: 0 0 0 0 0 3 3 0 1 0 3 1 0 0 0 0 0 221 
hist_lookups_evict: 0 %
hist_lookups_shortlat: 95.2587 %
bb_found_hist: 0 864 483 171 83 18 18 9 0 0 0 0 0 27 0 9 0 0 0 0 0 0 0 0 0 0 0 0 0 0 0 0 0 0 0 0 0 0 0 0 0 0 0 0 0 0 0 0 0 0 0 0 0 0 0 0 0 0 0 0 0 0 0 0 
bb_found_summary: 3422 1682 2.03449
entangled_found_hist: 0 215 174 185 54 0 0 0 
entangled_found_summary: 1334 628 2.12421
bb_ent_found_hist: 0 385 284 36 18 9 27 65 0 0 0 0 0 9 0 9 0 0 0 0 0 0 0 0 0 0 0 0 0 0 0 0 0 0 0 0 0 0 0 0 0 0 0 0 0 0 0 0 0 0 0 0 0 0 0 0 0 0 0 0 0 0 0 0 
bb_ent_found_summary: 2047 842 2.43112
