WARNING: physical memory size is smaller than virtual memory size.

*** ChampSim Multicore Out-of-Order Simulator ***
Warmup Instructions: 30000000
Simulation Instructions: 100000000
Number of CPUs: 1
Page size: 4096

BTB:
Basic BTB sets: 1024 ways: 8
Indirect:
history lengths: 0 0 10 16 27 44 60 96 109 219 449 487 714 1313 2146 3881 
ITTAGE tables: 64768 bytes;Region table: 240 bytes;IUM: 384 bytes;Total Storage= 65392 bytes;
RAS:
RAS size: 64
[LLC] INSTR Demand IPV: 1 2 2 1 4 Prefetch IPV: 1 2 1 1 4
[LLC] DATA  Demand IPV: 1 1 1 2 4 Prefetch IPV: 1 1 2 2 4
Berti Prefetcher
CPU 0 Entangling prefetcher
Off-chip DRAM Size: 8 GiB Channels: 2 Width: 64-bit Data Race: 6400 MT/s
[DUEL] Epoch ended. INSTR misses = 21, DATA misses = 25. Winner = INSTR
[DUEL] Epoch ended. INSTR misses = 102, DATA misses = 104. Winner = INSTR
[DUEL] Epoch ended. INSTR misses = 48, DATA misses = 48. Winner = INSTR
[DUEL] Epoch ended. INSTR misses = 26, DATA misses = 29. Winner = INSTR
[DUEL] Epoch ended. INSTR misses = 34, DATA misses = 35. Winner = INSTR
[DUEL] Epoch ended. INSTR misses = 16, DATA misses = 17. Winner = INSTR
[DUEL] Epoch ended. INSTR misses = 44, DATA misses = 46. Winner = INSTR
[DUEL] Epoch ended. INSTR misses = 16, DATA misses = 16. Winner = INSTR
[DUEL] Epoch ended. INSTR misses = 46, DATA misses = 46. Winner = INSTR
[DUEL] Epoch ended. INSTR misses = 16, DATA misses = 16. Winner = INSTR
[DUEL] Epoch ended. INSTR misses = 31, DATA misses = 28. Winner = DATA
[DUEL] Epoch ended. INSTR misses = 16, DATA misses = 16. Winner = INSTR
[DUEL] Epoch ended. INSTR misses = 49, DATA misses = 49. Winner = INSTR
[DUEL] Epoch ended. INSTR misses = 49, DATA misses = 49. Winner = INSTR
[DUEL] Epoch ended. INSTR misses = 73, DATA misses = 75. Winner = INSTR
[DUEL] Epoch ended. INSTR misses = 77, DATA misses = 74. Winner = DATA
[DUEL] Epoch ended. INSTR misses = 67, DATA misses = 54. Winner = DATA
[DUEL] Epoch ended. INSTR misses = 54, DATA misses = 60. Winner = INSTR
[DUEL] Epoch ended. INSTR misses = 81, DATA misses = 77. Winner = DATA
[DUEL] Epoch ended. INSTR misses = 42, DATA misses = 45. Winner = INSTR
[DUEL] Epoch ended. INSTR misses = 30, DATA misses = 31. Winner = INSTR
[DUEL] Epoch ended. INSTR misses = 32, DATA misses = 32. Winner = INSTR
[DUEL] Epoch ended. INSTR misses = 59, DATA misses = 48. Winner = DATA
[DUEL] Epoch ended. INSTR misses = 21, DATA misses = 31. Winner = INSTR
[DUEL] Epoch ended. INSTR misses = 16, DATA misses = 16. Winner = INSTR
[DUEL] Epoch ended. INSTR misses = 42, DATA misses = 46. Winner = INSTR
[DUEL] Epoch ended. INSTR misses = 16, DATA misses = 16. Winner = INSTR
[DUEL] Epoch ended. INSTR misses = 22, DATA misses = 16. Winner = DATA
[DUEL] Epoch ended. INSTR misses = 58, DATA misses = 64. Winner = INSTR
[DUEL] Epoch ended. INSTR misses = 17, DATA misses = 16. Winner = DATA
[DUEL] Epoch ended. INSTR misses = 46, DATA misses = 41. Winner = DATA
[DUEL] Epoch ended. INSTR misses = 16, DATA misses = 22. Winner = INSTR
[DUEL] Epoch ended. INSTR misses = 29, DATA misses = 28. Winner = DATA
[DUEL] Epoch ended. INSTR misses = 29, DATA misses = 16. Winner = DATA
[DUEL] Epoch ended. INSTR misses = 34, DATA misses = 46. Winner = INSTR
[DUEL] Epoch ended. INSTR misses = 5, DATA misses = 0. Winner = DATA
[DUEL] Epoch ended. INSTR misses = 18, DATA misses = 32. Winner = INSTR
[DUEL] Epoch ended. INSTR misses = 20, DATA misses = 16. Winner = DATA
Heartbeat CPU 0 instructions: 10000008 cycles: 1724273 heartbeat IPC: 5.8 cumulative IPC: 5.8 (Simulation time: 00 hr 00 min 28 sec)
[DUEL] Epoch ended. INSTR misses = 42, DATA misses = 43. Winner = INSTR
[DUEL] Epoch ended. INSTR misses = 33, DATA misses = 32. Winner = DATA
[DUEL] Epoch ended. INSTR misses = 33, DATA misses = 32. Winner = DATA
[DUEL] Epoch ended. INSTR misses = 31, DATA misses = 32. Winner = INSTR
[DUEL] Epoch ended. INSTR misses = 32, DATA misses = 32. Winner = INSTR
[DUEL] Epoch ended. INSTR misses = 16, DATA misses = 16. Winner = INSTR
[DUEL] Epoch ended. INSTR misses = 25, DATA misses = 21. Winner = DATA
[DUEL] Epoch ended. INSTR misses = 32, DATA misses = 32. Winner = INSTR
[DUEL] Epoch ended. INSTR misses = 16, DATA misses = 16. Winner = INSTR
[DUEL] Epoch ended. INSTR misses = 16, DATA misses = 16. Winner = INSTR
[DUEL] Epoch ended. INSTR misses = 11, DATA misses = 16. Winner = INSTR
[DUEL] Epoch ended. INSTR misses = 25, DATA misses = 16. Winner = DATA
[DUEL] Epoch ended. INSTR misses = 23, DATA misses = 32. Winner = INSTR
[DUEL] Epoch ended. INSTR misses = 32, DATA misses = 32. Winner = INSTR
[DUEL] Epoch ended. INSTR misses = 17, DATA misses = 28. Winner = INSTR
[DUEL] Epoch ended. INSTR misses = 16, DATA misses = 16. Winner = INSTR
[DUEL] Epoch ended. INSTR misses = 22, DATA misses = 21. Winner = DATA
[DUEL] Epoch ended. INSTR misses = 16, DATA misses = 16. Winner = INSTR
[DUEL] Epoch ended. INSTR misses = 33, DATA misses = 25. Winner = DATA
[DUEL] Epoch ended. INSTR misses = 21, DATA misses = 16. Winner = DATA
[DUEL] Epoch ended. INSTR misses = 44, DATA misses = 42. Winner = DATA
[DUEL] Epoch ended. INSTR misses = 58, DATA misses = 60. Winner = INSTR
[DUEL] Epoch ended. INSTR misses = 63, DATA misses = 51. Winner = DATA
[DUEL] Epoch ended. INSTR misses = 87, DATA misses = 96. Winner = INSTR
[DUEL] Epoch ended. INSTR misses = 44, DATA misses = 43. Winner = DATA
[DUEL] Epoch ended. INSTR misses = 47, DATA misses = 47. Winner = INSTR
[DUEL] Epoch ended. INSTR misses = 20, DATA misses = 17. Winner = DATA
[DUEL] Epoch ended. INSTR misses = 61, DATA misses = 56. Winner = DATA
[DUEL] Epoch ended. INSTR misses = 63, DATA misses = 62. Winner = DATA
[DUEL] Epoch ended. INSTR misses = 88, DATA misses = 91. Winner = INSTR
[DUEL] Epoch ended. INSTR misses = 44, DATA misses = 43. Winner = DATA
[DUEL] Epoch ended. INSTR misses = 114, DATA misses = 104. Winner = DATA
[DUEL] Epoch ended. INSTR misses = 78, DATA misses = 81. Winner = INSTR
[DUEL] Epoch ended. INSTR misses = 48, DATA misses = 45. Winner = DATA
[DUEL] Epoch ended. INSTR misses = 29, DATA misses = 24. Winner = DATA
[DUEL] Epoch ended. INSTR misses = 24, DATA misses = 30. Winner = INSTR
[DUEL] Epoch ended. INSTR misses = 40, DATA misses = 34. Winner = DATA
[DUEL] Epoch ended. INSTR misses = 16, DATA misses = 16. Winner = INSTR
[DUEL] Epoch ended. INSTR misses = 0, DATA misses = 0. Winner = INSTR
Heartbeat CPU 0 instructions: 20000001 cycles: 3441319 heartbeat IPC: 5.824 cumulative IPC: 5.812 (Simulation time: 00 hr 00 min 56 sec)
[DUEL] Epoch ended. INSTR misses = 19, DATA misses = 18. Winner = DATA
[DUEL] Epoch ended. INSTR misses = 17, DATA misses = 14. Winner = DATA
[DUEL] Epoch ended. INSTR misses = 16, DATA misses = 16. Winner = INSTR
[DUEL] Epoch ended. INSTR misses = 16, DATA misses = 16. Winner = INSTR
[DUEL] Epoch ended. INSTR misses = 16, DATA misses = 13. Winner = DATA
[DUEL] Epoch ended. INSTR misses = 16, DATA misses = 16. Winner = INSTR
[DUEL] Epoch ended. INSTR misses = 0, DATA misses = 0. Winner = INSTR
[DUEL] Epoch ended. INSTR misses = 32, DATA misses = 29. Winner = DATA
[DUEL] Epoch ended. INSTR misses = 16, DATA misses = 16. Winner = INSTR
[DUEL] Epoch ended. INSTR misses = 32, DATA misses = 32. Winner = INSTR
[DUEL] Epoch ended. INSTR misses = 16, DATA misses = 16. Winner = INSTR
[DUEL] Epoch ended. INSTR misses = 15, DATA misses = 14. Winner = DATA
[DUEL] Epoch ended. INSTR misses = 33, DATA misses = 16. Winner = DATA
[DUEL] Epoch ended. INSTR misses = 55, DATA misses = 76. Winner = INSTR
[DUEL] Epoch ended. INSTR misses = 18, DATA misses = 15. Winner = DATA
[DUEL] Epoch ended. INSTR misses = 31, DATA misses = 31. Winner = INSTR
[DUEL] Epoch ended. INSTR misses = 29, DATA misses = 31. Winner = INSTR
[DUEL] Epoch ended. INSTR misses = 20, DATA misses = 17. Winner = DATA
[DUEL] Epoch ended. INSTR misses = 1, DATA misses = 0. Winner = DATA
[DUEL] Epoch ended. INSTR misses = 14, DATA misses = 16. Winner = INSTR
[DUEL] Epoch ended. INSTR misses = 16, DATA misses = 15. Winner = DATA
[DUEL] Epoch ended. INSTR misses = 16, DATA misses = 16. Winner = INSTR
[DUEL] Epoch ended. INSTR misses = 1, DATA misses = 0. Winner = DATA
[DUEL] Epoch ended. INSTR misses = 16, DATA misses = 14. Winner = DATA
[DUEL] Epoch ended. INSTR misses = 17, DATA misses = 16. Winner = DATA
[DUEL] Epoch ended. INSTR misses = 16, DATA misses = 16. Winner = INSTR
[DUEL] Epoch ended. INSTR misses = 16, DATA misses = 13. Winner = DATA
[DUEL] Epoch ended. INSTR misses = 16, DATA misses = 16. Winner = INSTR
[DUEL] Epoch ended. INSTR misses = 2, DATA misses = 0. Winner = DATA
[DUEL] Epoch ended. INSTR misses = 17, DATA misses = 16. Winner = DATA
[DUEL] Epoch ended. INSTR misses = 31, DATA misses = 29. Winner = DATA
[DUEL] Epoch ended. INSTR misses = 33, DATA misses = 32. Winner = DATA
[DUEL] Epoch ended. INSTR misses = 0, DATA misses = 0. Winner = INSTR
[DUEL] Epoch ended. INSTR misses = 16, DATA misses = 14. Winner = DATA
[DUEL] Epoch ended. INSTR misses = 33, DATA misses = 32. Winner = DATA
[DUEL] Epoch ended. INSTR misses = 27, DATA misses = 26. Winner = DATA
[DUEL] Epoch ended. INSTR misses = 16, DATA misses = 19. Winner = INSTR
[DUEL] Epoch ended. INSTR misses = 62, DATA misses = 57. Winner = DATA
[DUEL] Epoch ended. INSTR misses = 37, DATA misses = 38. Winner = INSTR
Heartbeat CPU 0 instructions: 30000007 cycles: 5196157 heartbeat IPC: 5.699 cumulative IPC: 5.773 (Simulation time: 00 hr 01 min 25 sec)
Warmup finished CPU 0 instructions: 30000007 cycles: 5196158 cumulative IPC: 5.773 (Simulation time: 00 hr 01 min 25 sec)
Warmup complete CPU 0 instructions: 30000007 cycles: 5196158 cumulative IPC: 5.773 (Simulation time: 00 hr 01 min 25 sec)
[DUEL] Epoch ended. INSTR misses = 16, DATA misses = 16. Winner = INSTR
[DUEL] Epoch ended. INSTR misses = 18, DATA misses = 16. Winner = DATA
[DUEL] Epoch ended. INSTR misses = 19, DATA misses = 21. Winner = INSTR
[DUEL] Epoch ended. INSTR misses = 20, DATA misses = 22. Winner = INSTR
[DUEL] Epoch ended. INSTR misses = 7, DATA misses = 4. Winner = DATA
[DUEL] Epoch ended. INSTR misses = 17, DATA misses = 16. Winner = DATA
[DUEL] Epoch ended. INSTR misses = 29, DATA misses = 31. Winner = INSTR
[DUEL] Epoch ended. INSTR misses = 16, DATA misses = 16. Winner = INSTR
[DUEL] Epoch ended. INSTR misses = 16, DATA misses = 16. Winner = INSTR
[DUEL] Epoch ended. INSTR misses = 17, DATA misses = 16. Winner = DATA
[DUEL] Epoch ended. INSTR misses = 16, DATA misses = 16. Winner = INSTR
[DUEL] Epoch ended. INSTR misses = 17, DATA misses = 15. Winner = DATA
[DUEL] Epoch ended. INSTR misses = 16, DATA misses = 16. Winner = INSTR
[DUEL] Epoch ended. INSTR misses = 42, DATA misses = 32. Winner = DATA
[DUEL] Epoch ended. INSTR misses = 4, DATA misses = 15. Winner = INSTR
[DUEL] Epoch ended. INSTR misses = 30, DATA misses = 31. Winner = INSTR
[DUEL] Epoch ended. INSTR misses = 1, DATA misses = 0. Winner = DATA
[DUEL] Epoch ended. INSTR misses = 55, DATA misses = 58. Winner = INSTR
[DUEL] Epoch ended. INSTR misses = 74, DATA misses = 72. Winner = DATA
[DUEL] Epoch ended. INSTR misses = 22, DATA misses = 19. Winner = DATA
[DUEL] Epoch ended. INSTR misses = 24, DATA misses = 25. Winner = INSTR
[DUEL] Epoch ended. INSTR misses = 13, DATA misses = 13. Winner = INSTR
[DUEL] Epoch ended. INSTR misses = 38, DATA misses = 40. Winner = INSTR
[DUEL] Epoch ended. INSTR misses = 14, DATA misses = 12. Winner = DATA
[DUEL] Epoch ended. INSTR misses = 41, DATA misses = 44. Winner = INSTR
[DUEL] Epoch ended. INSTR misses = 16, DATA misses = 16. Winner = INSTR
[DUEL] Epoch ended. INSTR misses = 38, DATA misses = 37. Winner = DATA
[DUEL] Epoch ended. INSTR misses = 16, DATA misses = 15. Winner = DATA
[DUEL] Epoch ended. INSTR misses = 31, DATA misses = 31. Winner = INSTR
[DUEL] Epoch ended. INSTR misses = 14, DATA misses = 15. Winner = INSTR
[DUEL] Epoch ended. INSTR misses = 58, DATA misses = 64. Winner = INSTR
[DUEL] Epoch ended. INSTR misses = 40, DATA misses = 38. Winner = DATA
[DUEL] Epoch ended. INSTR misses = 71, DATA misses = 72. Winner = INSTR
[DUEL] Epoch ended. INSTR misses = 73, DATA misses = 67. Winner = DATA
[DUEL] Epoch ended. INSTR misses = 64, DATA misses = 61. Winner = DATA
[DUEL] Epoch ended. INSTR misses = 62, DATA misses = 61. Winner = DATA
[DUEL] Epoch ended. INSTR misses = 80, DATA misses = 77. Winner = DATA
[DUEL] Epoch ended. INSTR misses = 38, DATA misses = 31. Winner = DATA
[DUEL] Epoch ended. INSTR misses = 25, DATA misses = 30. Winner = INSTR
Heartbeat CPU 0 instructions: 40000007 cycles: 13546285 heartbeat IPC: 1.198 cumulative IPC: 1.198 (Simulation time: 00 hr 02 min 48 sec)
[DUEL] Epoch ended. INSTR misses = 32, DATA misses = 32. Winner = INSTR
[DUEL] Epoch ended. INSTR misses = 56, DATA misses = 61. Winner = INSTR
[DUEL] Epoch ended. INSTR misses = 21, DATA misses = 16. Winner = DATA
[DUEL] Epoch ended. INSTR misses = 16, DATA misses = 16. Winner = INSTR
[DUEL] Epoch ended. INSTR misses = 37, DATA misses = 43. Winner = INSTR
[DUEL] Epoch ended. INSTR misses = 16, DATA misses = 15. Winner = DATA
[DUEL] Epoch ended. INSTR misses = 32, DATA misses = 32. Winner = INSTR
[DUEL] Epoch ended. INSTR misses = 45, DATA misses = 48. Winner = INSTR
[DUEL] Epoch ended. INSTR misses = 17, DATA misses = 16. Winner = DATA
[DUEL] Epoch ended. INSTR misses = 47, DATA misses = 38. Winner = DATA
[DUEL] Epoch ended. INSTR misses = 15, DATA misses = 24. Winner = INSTR
[DUEL] Epoch ended. INSTR misses = 29, DATA misses = 28. Winner = DATA
[DUEL] Epoch ended. INSTR misses = 32, DATA misses = 25. Winner = DATA
[DUEL] Epoch ended. INSTR misses = 31, DATA misses = 37. Winner = INSTR
[DUEL] Epoch ended. INSTR misses = 17, DATA misses = 1. Winner = DATA
[DUEL] Epoch ended. INSTR misses = 17, DATA misses = 31. Winner = INSTR
[DUEL] Epoch ended. INSTR misses = 25, DATA misses = 16. Winner = DATA
[DUEL] Epoch ended. INSTR misses = 38, DATA misses = 43. Winner = INSTR
[DUEL] Epoch ended. INSTR misses = 32, DATA misses = 32. Winner = INSTR
[DUEL] Epoch ended. INSTR misses = 33, DATA misses = 32. Winner = DATA
[DUEL] Epoch ended. INSTR misses = 31, DATA misses = 32. Winner = INSTR
[DUEL] Epoch ended. INSTR misses = 32, DATA misses = 32. Winner = INSTR
[DUEL] Epoch ended. INSTR misses = 16, DATA misses = 16. Winner = INSTR
[DUEL] Epoch ended. INSTR misses = 25, DATA misses = 25. Winner = INSTR
[DUEL] Epoch ended. INSTR misses = 32, DATA misses = 32. Winner = INSTR
[DUEL] Epoch ended. INSTR misses = 16, DATA misses = 16. Winner = INSTR
[DUEL] Epoch ended. INSTR misses = 16, DATA misses = 16. Winner = INSTR
[DUEL] Epoch ended. INSTR misses = 11, DATA misses = 16. Winner = INSTR
[DUEL] Epoch ended. INSTR misses = 30, DATA misses = 16. Winner = DATA
[DUEL] Epoch ended. INSTR misses = 18, DATA misses = 32. Winner = INSTR
[DUEL] Epoch ended. INSTR misses = 32, DATA misses = 32. Winner = INSTR
[DUEL] Epoch ended. INSTR misses = 16, DATA misses = 27. Winner = INSTR
[DUEL] Epoch ended. INSTR misses = 16, DATA misses = 16. Winner = INSTR
[DUEL] Epoch ended. INSTR misses = 16, DATA misses = 16. Winner = INSTR
[DUEL] Epoch ended. INSTR misses = 29, DATA misses = 14. Winner = DATA
[DUEL] Epoch ended. INSTR misses = 16, DATA misses = 27. Winner = INSTR
[DUEL] Epoch ended. INSTR misses = 16, DATA misses = 16. Winner = INSTR
[DUEL] Epoch ended. INSTR misses = 49, DATA misses = 45. Winner = DATA
[DUEL] Epoch ended. INSTR misses = 88, DATA misses = 85. Winner = DATA
Heartbeat CPU 0 instructions: 50000011 cycles: 19793263 heartbeat IPC: 1.601 cumulative IPC: 1.37 (Simulation time: 00 hr 03 min 55 sec)
[DUEL] Epoch ended. INSTR misses = 56, DATA misses = 57. Winner = INSTR
[DUEL] Epoch ended. INSTR misses = 79, DATA misses = 85. Winner = INSTR
[DUEL] Epoch ended. INSTR misses = 48, DATA misses = 42. Winner = DATA
[DUEL] Epoch ended. INSTR misses = 48, DATA misses = 42. Winner = DATA
[DUEL] Epoch ended. INSTR misses = 55, DATA misses = 50. Winner = DATA
[DUEL] Epoch ended. INSTR misses = 49, DATA misses = 43. Winner = DATA
[DUEL] Epoch ended. INSTR misses = 58, DATA misses = 56. Winner = DATA
[DUEL] Epoch ended. INSTR misses = 63, DATA misses = 58. Winner = DATA
[DUEL] Epoch ended. INSTR misses = 76, DATA misses = 68. Winner = DATA
[DUEL] Epoch ended. INSTR misses = 92, DATA misses = 89. Winner = DATA
[DUEL] Epoch ended. INSTR misses = 63, DATA misses = 60. Winner = DATA
[DUEL] Epoch ended. INSTR misses = 41, DATA misses = 38. Winner = DATA
[DUEL] Epoch ended. INSTR misses = 29, DATA misses = 28. Winner = DATA
[DUEL] Epoch ended. INSTR misses = 37, DATA misses = 35. Winner = DATA
[DUEL] Epoch ended. INSTR misses = 14, DATA misses = 13. Winner = DATA
[DUEL] Epoch ended. INSTR misses = 16, DATA misses = 16. Winner = INSTR
[DUEL] Epoch ended. INSTR misses = 0, DATA misses = 0. Winner = INSTR
[DUEL] Epoch ended. INSTR misses = 29, DATA misses = 29. Winner = INSTR
[DUEL] Epoch ended. INSTR misses = 18, DATA misses = 16. Winner = DATA
[DUEL] Epoch ended. INSTR misses = 0, DATA misses = 0. Winner = INSTR
[DUEL] Epoch ended. INSTR misses = 16, DATA misses = 16. Winner = INSTR
[DUEL] Epoch ended. INSTR misses = 15, DATA misses = 11. Winner = DATA
[DUEL] Epoch ended. INSTR misses = 18, DATA misses = 16. Winner = DATA
[DUEL] Epoch ended. INSTR misses = 0, DATA misses = 0. Winner = INSTR
[DUEL] Epoch ended. INSTR misses = 30, DATA misses = 27. Winner = DATA
[DUEL] Epoch ended. INSTR misses = 32, DATA misses = 31. Winner = DATA
[DUEL] Epoch ended. INSTR misses = 16, DATA misses = 16. Winner = INSTR
[DUEL] Epoch ended. INSTR misses = 18, DATA misses = 16. Winner = DATA
[DUEL] Epoch ended. INSTR misses = 10, DATA misses = 11. Winner = INSTR
[DUEL] Epoch ended. INSTR misses = 57, DATA misses = 61. Winner = INSTR
[DUEL] Epoch ended. INSTR misses = 30, DATA misses = 29. Winner = DATA
[DUEL] Epoch ended. INSTR misses = 28, DATA misses = 26. Winner = DATA
[DUEL] Epoch ended. INSTR misses = 19, DATA misses = 16. Winner = DATA
[DUEL] Epoch ended. INSTR misses = 27, DATA misses = 31. Winner = INSTR
[DUEL] Epoch ended. INSTR misses = 18, DATA misses = 16. Winner = DATA
[DUEL] Epoch ended. INSTR misses = 12, DATA misses = 15. Winner = INSTR
[DUEL] Epoch ended. INSTR misses = 15, DATA misses = 13. Winner = DATA
[DUEL] Epoch ended. INSTR misses = 4, DATA misses = 0. Winner = DATA
[DUEL] Epoch ended. INSTR misses = 12, DATA misses = 16. Winner = INSTR
Heartbeat CPU 0 instructions: 60000005 cycles: 26980994 heartbeat IPC: 1.391 cumulative IPC: 1.377 (Simulation time: 00 hr 05 min 08 sec)
[DUEL] Epoch ended. INSTR misses = 1, DATA misses = 0. Winner = DATA
[DUEL] Epoch ended. INSTR misses = 13, DATA misses = 12. Winner = DATA
[DUEL] Epoch ended. INSTR misses = 32, DATA misses = 32. Winner = INSTR
[DUEL] Epoch ended. INSTR misses = 0, DATA misses = 0. Winner = INSTR
[DUEL] Epoch ended. INSTR misses = 15, DATA misses = 11. Winner = DATA
[DUEL] Epoch ended. INSTR misses = 17, DATA misses = 16. Winner = DATA
[DUEL] Epoch ended. INSTR misses = 1, DATA misses = 0. Winner = DATA
[DUEL] Epoch ended. INSTR misses = 17, DATA misses = 16. Winner = DATA
[DUEL] Epoch ended. INSTR misses = 27, DATA misses = 26. Winner = DATA
[DUEL] Epoch ended. INSTR misses = 33, DATA misses = 32. Winner = DATA
[DUEL] Epoch ended. INSTR misses = 1, DATA misses = 0. Winner = DATA
[DUEL] Epoch ended. INSTR misses = 11, DATA misses = 11. Winner = INSTR
[DUEL] Epoch ended. INSTR misses = 32, DATA misses = 31. Winner = DATA
[DUEL] Epoch ended. INSTR misses = 28, DATA misses = 29. Winner = INSTR
[DUEL] Epoch ended. INSTR misses = 42, DATA misses = 39. Winner = DATA
[DUEL] Epoch ended. INSTR misses = 47, DATA misses = 46. Winner = DATA
[DUEL] Epoch ended. INSTR misses = 37, DATA misses = 39. Winner = INSTR
[DUEL] Epoch ended. INSTR misses = 16, DATA misses = 16. Winner = INSTR
[DUEL] Epoch ended. INSTR misses = 35, DATA misses = 36. Winner = INSTR
[DUEL] Epoch ended. INSTR misses = 1, DATA misses = 4. Winner = INSTR
[DUEL] Epoch ended. INSTR misses = 24, DATA misses = 21. Winner = DATA
[DUEL] Epoch ended. INSTR misses = 1, DATA misses = 1. Winner = INSTR
[DUEL] Epoch ended. INSTR misses = 17, DATA misses = 16. Winner = DATA
[DUEL] Epoch ended. INSTR misses = 44, DATA misses = 46. Winner = INSTR
[DUEL] Epoch ended. INSTR misses = 0, DATA misses = 0. Winner = INSTR
[DUEL] Epoch ended. INSTR misses = 32, DATA misses = 32. Winner = INSTR
[DUEL] Epoch ended. INSTR misses = 1, DATA misses = 0. Winner = DATA
[DUEL] Epoch ended. INSTR misses = 16, DATA misses = 16. Winner = INSTR
[DUEL] Epoch ended. INSTR misses = 31, DATA misses = 30. Winner = DATA
[DUEL] Epoch ended. INSTR misses = 14, DATA misses = 17. Winner = INSTR
[DUEL] Epoch ended. INSTR misses = 29, DATA misses = 31. Winner = INSTR
[DUEL] Epoch ended. INSTR misses = 13, DATA misses = 15. Winner = INSTR
[DUEL] Epoch ended. INSTR misses = 17, DATA misses = 16. Winner = DATA
[DUEL] Epoch ended. INSTR misses = 14, DATA misses = 15. Winner = INSTR
[DUEL] Epoch ended. INSTR misses = 67, DATA misses = 62. Winner = DATA
[DUEL] Epoch ended. INSTR misses = 48, DATA misses = 50. Winner = INSTR
[DUEL] Epoch ended. INSTR misses = 10, DATA misses = 12. Winner = INSTR
[DUEL] Epoch ended. INSTR misses = 29, DATA misses = 26. Winner = DATA
[DUEL] Epoch ended. INSTR misses = 26, DATA misses = 28. Winner = INSTR
Heartbeat CPU 0 instructions: 70000010 cycles: 33614635 heartbeat IPC: 1.507 cumulative IPC: 1.408 (Simulation time: 00 hr 06 min 19 sec)
[DUEL] Epoch ended. INSTR misses = 25, DATA misses = 25. Winner = INSTR
[DUEL] Epoch ended. INSTR misses = 29, DATA misses = 25. Winner = DATA
[DUEL] Epoch ended. INSTR misses = 26, DATA misses = 27. Winner = INSTR
[DUEL] Epoch ended. INSTR misses = 31, DATA misses = 32. Winner = INSTR
[DUEL] Epoch ended. INSTR misses = 23, DATA misses = 19. Winner = DATA
[DUEL] Epoch ended. INSTR misses = 30, DATA misses = 31. Winner = INSTR
[DUEL] Epoch ended. INSTR misses = 13, DATA misses = 15. Winner = INSTR
[DUEL] Epoch ended. INSTR misses = 36, DATA misses = 40. Winner = INSTR
[DUEL] Epoch ended. INSTR misses = 47, DATA misses = 47. Winner = INSTR
[DUEL] Epoch ended. INSTR misses = 29, DATA misses = 26. Winner = DATA
[DUEL] Epoch ended. INSTR misses = 97, DATA misses = 103. Winner = INSTR
[DUEL] Epoch ended. INSTR misses = 50, DATA misses = 38. Winner = DATA
[DUEL] Epoch ended. INSTR misses = 75, DATA misses = 76. Winner = INSTR
[DUEL] Epoch ended. INSTR misses = 81, DATA misses = 79. Winner = DATA
[DUEL] Epoch ended. INSTR misses = 72, DATA misses = 71. Winner = DATA
[DUEL] Epoch ended. INSTR misses = 27, DATA misses = 27. Winner = INSTR
[DUEL] Epoch ended. INSTR misses = 50, DATA misses = 51. Winner = INSTR
[DUEL] Epoch ended. INSTR misses = 24, DATA misses = 22. Winner = DATA
[DUEL] Epoch ended. INSTR misses = 66, DATA misses = 55. Winner = DATA
[DUEL] Epoch ended. INSTR misses = 69, DATA misses = 69. Winner = INSTR
[DUEL] Epoch ended. INSTR misses = 62, DATA misses = 63. Winner = INSTR
[DUEL] Epoch ended. INSTR misses = 81, DATA misses = 78. Winner = DATA
[DUEL] Epoch ended. INSTR misses = 65, DATA misses = 67. Winner = INSTR
[DUEL] Epoch ended. INSTR misses = 45, DATA misses = 41. Winner = DATA
[DUEL] Epoch ended. INSTR misses = 33, DATA misses = 34. Winner = INSTR
[DUEL] Epoch ended. INSTR misses = 27, DATA misses = 29. Winner = INSTR
[DUEL] Epoch ended. INSTR misses = 55, DATA misses = 61. Winner = INSTR
[DUEL] Epoch ended. INSTR misses = 21, DATA misses = 16. Winner = DATA
[DUEL] Epoch ended. INSTR misses = 16, DATA misses = 16. Winner = INSTR
[DUEL] Epoch ended. INSTR misses = 36, DATA misses = 41. Winner = INSTR
[DUEL] Epoch ended. INSTR misses = 31, DATA misses = 31. Winner = INSTR
[DUEL] Epoch ended. INSTR misses = 16, DATA misses = 16. Winner = INSTR
[DUEL] Epoch ended. INSTR misses = 44, DATA misses = 47. Winner = INSTR
[DUEL] Epoch ended. INSTR misses = 31, DATA misses = 31. Winner = INSTR
[DUEL] Epoch ended. INSTR misses = 32, DATA misses = 18. Winner = DATA
[DUEL] Epoch ended. INSTR misses = 14, DATA misses = 29. Winner = INSTR
[DUEL] Epoch ended. INSTR misses = 46, DATA misses = 42. Winner = DATA
[DUEL] Epoch ended. INSTR misses = 16, DATA misses = 12. Winner = DATA
[DUEL] Epoch ended. INSTR misses = 30, DATA misses = 33. Winner = INSTR
Heartbeat CPU 0 instructions: 80000003 cycles: 42497014 heartbeat IPC: 1.126 cumulative IPC: 1.34 (Simulation time: 00 hr 07 min 46 sec)
[DUEL] Epoch ended. INSTR misses = 15, DATA misses = 16. Winner = INSTR
[DUEL] Epoch ended. INSTR misses = 17, DATA misses = 16. Winner = DATA
[DUEL] Epoch ended. INSTR misses = 43, DATA misses = 27. Winner = DATA
[DUEL] Epoch ended. INSTR misses = 36, DATA misses = 47. Winner = INSTR
[DUEL] Epoch ended. INSTR misses = 16, DATA misses = 16. Winner = INSTR
[DUEL] Epoch ended. INSTR misses = 47, DATA misses = 44. Winner = DATA
[DUEL] Epoch ended. INSTR misses = 16, DATA misses = 20. Winner = INSTR
[DUEL] Epoch ended. INSTR misses = 32, DATA misses = 32. Winner = INSTR
[DUEL] Epoch ended. INSTR misses = 32, DATA misses = 21. Winner = DATA
[DUEL] Epoch ended. INSTR misses = 23, DATA misses = 36. Winner = INSTR
[DUEL] Epoch ended. INSTR misses = 16, DATA misses = 16. Winner = INSTR
[DUEL] Epoch ended. INSTR misses = 16, DATA misses = 16. Winner = INSTR
[DUEL] Epoch ended. INSTR misses = 16, DATA misses = 16. Winner = INSTR
[DUEL] Epoch ended. INSTR misses = 14, DATA misses = 16. Winner = INSTR
[DUEL] Epoch ended. INSTR misses = 39, DATA misses = 32. Winner = DATA
[DUEL] Epoch ended. INSTR misses = 25, DATA misses = 32. Winner = INSTR
[DUEL] Epoch ended. INSTR misses = 16, DATA misses = 16. Winner = INSTR
[DUEL] Epoch ended. INSTR misses = 16, DATA misses = 27. Winner = INSTR
[DUEL] Epoch ended. INSTR misses = 32, DATA misses = 16. Winner = DATA
[DUEL] Epoch ended. INSTR misses = 13, DATA misses = 28. Winner = INSTR
[DUEL] Epoch ended. INSTR misses = 16, DATA misses = 11. Winner = DATA
[DUEL] Epoch ended. INSTR misses = 16, DATA misses = 16. Winner = INSTR
[DUEL] Epoch ended. INSTR misses = 32, DATA misses = 30. Winner = DATA
[DUEL] Epoch ended. INSTR misses = 67, DATA misses = 69. Winner = INSTR
[DUEL] Epoch ended. INSTR misses = 73, DATA misses = 84. Winner = INSTR
[DUEL] Epoch ended. INSTR misses = 61, DATA misses = 62. Winner = INSTR
[DUEL] Epoch ended. INSTR misses = 48, DATA misses = 49. Winner = INSTR
[DUEL] Epoch ended. INSTR misses = 29, DATA misses = 22. Winner = DATA
[DUEL] Epoch ended. INSTR misses = 45, DATA misses = 40. Winner = DATA
[DUEL] Epoch ended. INSTR misses = 50, DATA misses = 48. Winner = DATA
[DUEL] Epoch ended. INSTR misses = 59, DATA misses = 54. Winner = DATA
[DUEL] Epoch ended. INSTR misses = 72, DATA misses = 66. Winner = DATA
[DUEL] Epoch ended. INSTR misses = 42, DATA misses = 37. Winner = DATA
[DUEL] Epoch ended. INSTR misses = 70, DATA misses = 60. Winner = DATA
[DUEL] Epoch ended. INSTR misses = 142, DATA misses = 135. Winner = DATA
[DUEL] Epoch ended. INSTR misses = 42, DATA misses = 36. Winner = DATA
[DUEL] Epoch ended. INSTR misses = 47, DATA misses = 41. Winner = DATA
[DUEL] Epoch ended. INSTR misses = 74, DATA misses = 68. Winner = DATA
[DUEL] Epoch ended. INSTR misses = 32, DATA misses = 31. Winner = DATA
Heartbeat CPU 0 instructions: 90000006 cycles: 50973542 heartbeat IPC: 1.18 cumulative IPC: 1.311 (Simulation time: 00 hr 09 min 09 sec)
[DUEL] Epoch ended. INSTR misses = 1, DATA misses = 0. Winner = DATA
[DUEL] Epoch ended. INSTR misses = 59, DATA misses = 58. Winner = DATA
[DUEL] Epoch ended. INSTR misses = 31, DATA misses = 30. Winner = DATA
[DUEL] Epoch ended. INSTR misses = 102, DATA misses = 105. Winner = INSTR
[DUEL] Epoch ended. INSTR misses = 136, DATA misses = 135. Winner = DATA
[DUEL] Epoch ended. INSTR misses = 79, DATA misses = 79. Winner = INSTR
[DUEL] Epoch ended. INSTR misses = 82, DATA misses = 72. Winner = DATA
[DUEL] Epoch ended. INSTR misses = 44, DATA misses = 49. Winner = INSTR
[DUEL] Epoch ended. INSTR misses = 66, DATA misses = 68. Winner = INSTR
[DUEL] Epoch ended. INSTR misses = 65, DATA misses = 58. Winner = DATA
[DUEL] Epoch ended. INSTR misses = 66, DATA misses = 71. Winner = INSTR
[DUEL] Epoch ended. INSTR misses = 77, DATA misses = 78. Winner = INSTR
[DUEL] Epoch ended. INSTR misses = 16, DATA misses = 16. Winner = INSTR
[DUEL] Epoch ended. INSTR misses = 0, DATA misses = 0. Winner = INSTR
[DUEL] Epoch ended. INSTR misses = 15, DATA misses = 14. Winner = DATA
[DUEL] Epoch ended. INSTR misses = 2, DATA misses = 0. Winner = DATA
[DUEL] Epoch ended. INSTR misses = 14, DATA misses = 16. Winner = INSTR
[DUEL] Epoch ended. INSTR misses = 0, DATA misses = 0. Winner = INSTR
[DUEL] Epoch ended. INSTR misses = 2, DATA misses = 0. Winner = DATA
[DUEL] Epoch ended. INSTR misses = 30, DATA misses = 32. Winner = INSTR
[DUEL] Epoch ended. INSTR misses = 18, DATA misses = 15. Winner = DATA
[DUEL] Epoch ended. INSTR misses = 0, DATA misses = 0. Winner = INSTR
[DUEL] Epoch ended. INSTR misses = 14, DATA misses = 16. Winner = INSTR
[DUEL] Epoch ended. INSTR misses = 0, DATA misses = 0. Winner = INSTR
[DUEL] Epoch ended. INSTR misses = 0, DATA misses = 0. Winner = INSTR
[DUEL] Epoch ended. INSTR misses = 3, DATA misses = 11. Winner = INSTR
[DUEL] Epoch ended. INSTR misses = 16, DATA misses = 16. Winner = INSTR
[DUEL] Epoch ended. INSTR misses = 16, DATA misses = 17. Winner = INSTR
[DUEL] Epoch ended. INSTR misses = 0, DATA misses = 0. Winner = INSTR
[DUEL] Epoch ended. INSTR misses = 6, DATA misses = 7. Winner = INSTR
[DUEL] Epoch ended. INSTR misses = 0, DATA misses = 0. Winner = INSTR
[DUEL] Epoch ended. INSTR misses = 0, DATA misses = 0. Winner = INSTR
[DUEL] Epoch ended. INSTR misses = 2, DATA misses = 7. Winner = INSTR
[DUEL] Epoch ended. INSTR misses = 16, DATA misses = 16. Winner = INSTR
[DUEL] Epoch ended. INSTR misses = 15, DATA misses = 17. Winner = INSTR
[DUEL] Epoch ended. INSTR misses = 0, DATA misses = 0. Winner = INSTR
[DUEL] Epoch ended. INSTR misses = 31, DATA misses = 36. Winner = INSTR
[DUEL] Epoch ended. INSTR misses = 0, DATA misses = 0. Winner = INSTR
[DUEL] Epoch ended. INSTR misses = 0, DATA misses = 0. Winner = INSTR
Heartbeat CPU 0 instructions: 100000011 cycles: 57249648 heartbeat IPC: 1.593 cumulative IPC: 1.345 (Simulation time: 00 hr 10 min 14 sec)
*** Reached end of trace: (0, "../traces/secret_traces/compute_fp/compute_fp_12.champsimtrace.xz")
[DUEL] Epoch ended. INSTR misses = 17, DATA misses = 22. Winner = INSTR
[DUEL] Epoch ended. INSTR misses = 59, DATA misses = 80. Winner = INSTR
[DUEL] Epoch ended. INSTR misses = 71, DATA misses = 104. Winner = INSTR
[DUEL] Epoch ended. INSTR misses = 71, DATA misses = 78. Winner = INSTR
[DUEL] Epoch ended. INSTR misses = 19, DATA misses = 27. Winner = INSTR
[DUEL] Epoch ended. INSTR misses = 36, DATA misses = 30. Winner = DATA
[DUEL] Epoch ended. INSTR misses = 16, DATA misses = 15. Winner = DATA
[DUEL] Epoch ended. INSTR misses = 44, DATA misses = 42. Winner = DATA
[DUEL] Epoch ended. INSTR misses = 16, DATA misses = 16. Winner = INSTR
[DUEL] Epoch ended. INSTR misses = 44, DATA misses = 33. Winner = DATA
[DUEL] Epoch ended. INSTR misses = 16, DATA misses = 16. Winner = INSTR
[DUEL] Epoch ended. INSTR misses = 32, DATA misses = 31. Winner = DATA
[DUEL] Epoch ended. INSTR misses = 29, DATA misses = 24. Winner = DATA
[DUEL] Epoch ended. INSTR misses = 66, DATA misses = 56. Winner = DATA
[DUEL] Epoch ended. INSTR misses = 73, DATA misses = 67. Winner = DATA
[DUEL] Epoch ended. INSTR misses = 65, DATA misses = 50. Winner = DATA
[DUEL] Epoch ended. INSTR misses = 65, DATA misses = 53. Winner = DATA
[DUEL] Epoch ended. INSTR misses = 81, DATA misses = 72. Winner = DATA
[DUEL] Epoch ended. INSTR misses = 74, DATA misses = 76. Winner = INSTR
[DUEL] Epoch ended. INSTR misses = 47, DATA misses = 46. Winner = DATA
[DUEL] Epoch ended. INSTR misses = 45, DATA misses = 45. Winner = INSTR
[DUEL] Epoch ended. INSTR misses = 17, DATA misses = 16. Winner = DATA
[DUEL] Epoch ended. INSTR misses = 46, DATA misses = 46. Winner = INSTR
[DUEL] Epoch ended. INSTR misses = 32, DATA misses = 31. Winner = DATA
[DUEL] Epoch ended. INSTR misses = 32, DATA misses = 32. Winner = INSTR
[DUEL] Epoch ended. INSTR misses = 17, DATA misses = 14. Winner = DATA
[DUEL] Epoch ended. INSTR misses = 43, DATA misses = 41. Winner = DATA
[DUEL] Epoch ended. INSTR misses = 16, DATA misses = 16. Winner = INSTR
[DUEL] Epoch ended. INSTR misses = 25, DATA misses = 16. Winner = DATA
[DUEL] Epoch ended. INSTR misses = 56, DATA misses = 62. Winner = INSTR
[DUEL] Epoch ended. INSTR misses = 30, DATA misses = 31. Winner = INSTR
[DUEL] Epoch ended. INSTR misses = 32, DATA misses = 31. Winner = DATA
[DUEL] Epoch ended. INSTR misses = 16, DATA misses = 16. Winner = INSTR
[DUEL] Epoch ended. INSTR misses = 28, DATA misses = 24. Winner = DATA
[DUEL] Epoch ended. INSTR misses = 17, DATA misses = 14. Winner = DATA
[DUEL] Epoch ended. INSTR misses = 43, DATA misses = 30. Winner = DATA
[DUEL] Epoch ended. INSTR misses = 18, DATA misses = 32. Winner = INSTR
[DUEL] Epoch ended. INSTR misses = 24, DATA misses = 16. Winner = DATA
Heartbeat CPU 0 instructions: 110000000 cycles: 65894087 heartbeat IPC: 1.157 cumulative IPC: 1.318 (Simulation time: 00 hr 11 min 35 sec)
[DUEL] Epoch ended. INSTR misses = 40, DATA misses = 42. Winner = INSTR
[DUEL] Epoch ended. INSTR misses = 16, DATA misses = 16. Winner = INSTR
[DUEL] Epoch ended. INSTR misses = 33, DATA misses = 32. Winner = DATA
[DUEL] Epoch ended. INSTR misses = 47, DATA misses = 48. Winner = INSTR
[DUEL] Epoch ended. INSTR misses = 16, DATA misses = 16. Winner = INSTR
[DUEL] Epoch ended. INSTR misses = 32, DATA misses = 32. Winner = INSTR
[DUEL] Epoch ended. INSTR misses = 16, DATA misses = 16. Winner = INSTR
[DUEL] Epoch ended. INSTR misses = 25, DATA misses = 23. Winner = DATA
[DUEL] Epoch ended. INSTR misses = 32, DATA misses = 32. Winner = INSTR
[DUEL] Epoch ended. INSTR misses = 16, DATA misses = 16. Winner = INSTR
[DUEL] Epoch ended. INSTR misses = 8, DATA misses = 0. Winner = DATA
[DUEL] Epoch ended. INSTR misses = 20, DATA misses = 32. Winner = INSTR
[DUEL] Epoch ended. INSTR misses = 32, DATA misses = 32. Winner = INSTR
[DUEL] Epoch ended. INSTR misses = 16, DATA misses = 16. Winner = INSTR
[DUEL] Epoch ended. INSTR misses = 32, DATA misses = 44. Winner = INSTR
[DUEL] Epoch ended. INSTR misses = 17, DATA misses = 16. Winner = DATA
[DUEL] Epoch ended. INSTR misses = 30, DATA misses = 28. Winner = DATA
[DUEL] Epoch ended. INSTR misses = 16, DATA misses = 11. Winner = DATA
[DUEL] Epoch ended. INSTR misses = 16, DATA misses = 11. Winner = DATA
[DUEL] Epoch ended. INSTR misses = 41, DATA misses = 31. Winner = DATA
[DUEL] Epoch ended. INSTR misses = 40, DATA misses = 38. Winner = DATA
[DUEL] Epoch ended. INSTR misses = 80, DATA misses = 83. Winner = INSTR
[DUEL] Epoch ended. INSTR misses = 59, DATA misses = 51. Winner = DATA
[DUEL] Epoch ended. INSTR misses = 64, DATA misses = 55. Winner = DATA
[DUEL] Epoch ended. INSTR misses = 79, DATA misses = 68. Winner = DATA
[DUEL] Epoch ended. INSTR misses = 19, DATA misses = 16. Winner = DATA
[DUEL] Epoch ended. INSTR misses = 47, DATA misses = 42. Winner = DATA
[DUEL] Epoch ended. INSTR misses = 58, DATA misses = 48. Winner = DATA
[DUEL] Epoch ended. INSTR misses = 51, DATA misses = 40. Winner = DATA
[DUEL] Epoch ended. INSTR misses = 106, DATA misses = 90. Winner = DATA
[DUEL] Epoch ended. INSTR misses = 34, DATA misses = 25. Winner = DATA
[DUEL] Epoch ended. INSTR misses = 108, DATA misses = 88. Winner = DATA
[DUEL] Epoch ended. INSTR misses = 111, DATA misses = 100. Winner = DATA
[DUEL] Epoch ended. INSTR misses = 44, DATA misses = 34. Winner = DATA
[DUEL] Epoch ended. INSTR misses = 23, DATA misses = 21. Winner = DATA
[DUEL] Epoch ended. INSTR misses = 9, DATA misses = 7. Winner = DATA
[DUEL] Epoch ended. INSTR misses = 49, DATA misses = 48. Winner = DATA
[DUEL] Epoch ended. INSTR misses = 16, DATA misses = 16. Winner = INSTR
[DUEL] Epoch ended. INSTR misses = 0, DATA misses = 0. Winner = INSTR
Heartbeat CPU 0 instructions: 120000009 cycles: 74353104 heartbeat IPC: 1.182 cumulative IPC: 1.301 (Simulation time: 00 hr 12 min 58 sec)
[DUEL] Epoch ended. INSTR misses = 21, DATA misses = 16. Winner = DATA
[DUEL] Epoch ended. INSTR misses = 17, DATA misses = 13. Winner = DATA
[DUEL] Epoch ended. INSTR misses = 16, DATA misses = 16. Winner = INSTR
[DUEL] Epoch ended. INSTR misses = 16, DATA misses = 16. Winner = INSTR
[DUEL] Epoch ended. INSTR misses = 15, DATA misses = 12. Winner = DATA
[DUEL] Epoch ended. INSTR misses = 16, DATA misses = 16. Winner = INSTR
[DUEL] Epoch ended. INSTR misses = 0, DATA misses = 0. Winner = INSTR
[DUEL] Epoch ended. INSTR misses = 31, DATA misses = 18. Winner = DATA
[DUEL] Epoch ended. INSTR misses = 0, DATA misses = 9. Winner = INSTR
[DUEL] Epoch ended. INSTR misses = 47, DATA misses = 46. Winner = DATA
[DUEL] Epoch ended. INSTR misses = 16, DATA misses = 16. Winner = INSTR
[DUEL] Epoch ended. INSTR misses = 15, DATA misses = 11. Winner = DATA
[DUEL] Epoch ended. INSTR misses = 16, DATA misses = 16. Winner = INSTR
[DUEL] Epoch ended. INSTR misses = 55, DATA misses = 52. Winner = DATA
[DUEL] Epoch ended. INSTR misses = 31, DATA misses = 28. Winner = DATA
[DUEL] Epoch ended. INSTR misses = 33, DATA misses = 30. Winner = DATA
[DUEL] Epoch ended. INSTR misses = 29, DATA misses = 27. Winner = DATA
[DUEL] Epoch ended. INSTR misses = 14, DATA misses = 8. Winner = DATA
[DUEL] Epoch ended. INSTR misses = 17, DATA misses = 16. Winner = DATA
[DUEL] Epoch ended. INSTR misses = 16, DATA misses = 13. Winner = DATA
[DUEL] Epoch ended. INSTR misses = 15, DATA misses = 14. Winner = DATA
[DUEL] Epoch ended. INSTR misses = 16, DATA misses = 16. Winner = INSTR
[DUEL] Epoch ended. INSTR misses = 1, DATA misses = 0. Winner = DATA
[DUEL] Epoch ended. INSTR misses = 16, DATA misses = 13. Winner = DATA
[DUEL] Epoch ended. INSTR misses = 17, DATA misses = 16. Winner = DATA
[DUEL] Epoch ended. INSTR misses = 16, DATA misses = 15. Winner = DATA
[DUEL] Epoch ended. INSTR misses = 4, DATA misses = 0. Winner = DATA
[DUEL] Epoch ended. INSTR misses = 11, DATA misses = 12. Winner = INSTR
[DUEL] Epoch ended. INSTR misses = 18, DATA misses = 16. Winner = DATA
[DUEL] Epoch ended. INSTR misses = 17, DATA misses = 16. Winner = DATA
[DUEL] Epoch ended. INSTR misses = 29, DATA misses = 24. Winner = DATA
[DUEL] Epoch ended. INSTR misses = 32, DATA misses = 32. Winner = INSTR
[DUEL] Epoch ended. INSTR misses = 1, DATA misses = 0. Winner = DATA
[DUEL] Epoch ended. INSTR misses = 17, DATA misses = 11. Winner = DATA
[DUEL] Epoch ended. INSTR misses = 32, DATA misses = 29. Winner = DATA
[DUEL] Epoch ended. INSTR misses = 17, DATA misses = 16. Winner = DATA
[DUEL] Epoch ended. INSTR misses = 28, DATA misses = 26. Winner = DATA
[DUEL] Epoch ended. INSTR misses = 44, DATA misses = 38. Winner = DATA
[DUEL] Epoch ended. INSTR misses = 67, DATA misses = 70. Winner = INSTR
Heartbeat CPU 0 instructions: 130000005 cycles: 80423869 heartbeat IPC: 1.647 cumulative IPC: 1.329 (Simulation time: 00 hr 14 min 04 sec)
Simulation finished CPU 0 instructions: 100000010 cycles: 75227713 cumulative IPC: 1.329 (Simulation time: 00 hr 14 min 04 sec)
Simulation complete CPU 0 instructions: 100000010 cycles: 75227713 cumulative IPC: 1.329 (Simulation time: 00 hr 14 min 04 sec)

ChampSim completed all CPUs

=== Simulation ===
CPU 0 runs ../traces/secret_traces/compute_fp/compute_fp_12.champsimtrace.xz
Region of Interest Statistics

CPU 0 cumulative IPC: 1.329 instructions: 100000010 cycles: 75227713
CPU 0 Branch Prediction Accuracy: 99.72% MPKI: 0.1627 Average ROB Occupancy at Mispredict: 67.23
Branch type MPKI
BRANCH_DIRECT_JUMP: 0.0111
BRANCH_INDIRECT: 0.0711
BRANCH_CONDITIONAL: 0.0447
BRANCH_DIRECT_CALL: 0.0216
BRANCH_INDIRECT_CALL: 0.00235
BRANCH_RETURN: 0.0118

LLC TOTAL        ACCESS:    3622477 HIT:     562767 MISS:    3059710
LLC LOAD         ACCESS:     316265 HIT:      41675 MISS:     274590
LLC RFO          ACCESS:     165798 HIT:      25659 MISS:     140139
LLC PREFETCH     ACCESS:    2323253 HIT:     263170 MISS:    2060083
LLC WRITE        ACCESS:     810329 HIT:     232087 MISS:     578242
LLC TRANSLATION  ACCESS:       6832 HIT:        176 MISS:       6656
LLC PREFETCH REQUESTED:          0 ISSUED:          0 USEFUL:          0 USELESS:          0
LLC AVERAGE MISS LATENCY: 426.6 cycles
cpu0_DTLB TOTAL        ACCESS:   20655212 HIT:   20405335 MISS:     249877
cpu0_DTLB LOAD         ACCESS:   20655212 HIT:   20405335 MISS:     249877
cpu0_DTLB RFO          ACCESS:          0 HIT:          0 MISS:          0
cpu0_DTLB PREFETCH     ACCESS:          0 HIT:          0 MISS:          0
cpu0_DTLB WRITE        ACCESS:          0 HIT:          0 MISS:          0
cpu0_DTLB TRANSLATION  ACCESS:          0 HIT:          0 MISS:          0
cpu0_DTLB PREFETCH REQUESTED:          0 ISSUED:          0 USEFUL:          0 USELESS:          0
cpu0_DTLB AVERAGE MISS LATENCY: 24.52 cycles
cpu0_ITLB TOTAL        ACCESS:     676123 HIT:     674354 MISS:       1769
cpu0_ITLB LOAD         ACCESS:     676123 HIT:     674354 MISS:       1769
cpu0_ITLB RFO          ACCESS:          0 HIT:          0 MISS:          0
cpu0_ITLB PREFETCH     ACCESS:          0 HIT:          0 MISS:          0
cpu0_ITLB WRITE        ACCESS:          0 HIT:          0 MISS:          0
cpu0_ITLB TRANSLATION  ACCESS:          0 HIT:          0 MISS:          0
cpu0_ITLB PREFETCH REQUESTED:          0 ISSUED:          0 USEFUL:          0 USELESS:          0
cpu0_ITLB AVERAGE MISS LATENCY: 87.53 cycles
cpu0_L1D TOTAL        ACCESS:   39314006 HIT:   27240083 MISS:   12073923
cpu0_L1D LOAD         ACCESS:   23205479 HIT:   17730345 MISS:    5475134
cpu0_L1D RFO          ACCESS:          0 HIT:          0 MISS:          0
cpu0_L1D PREFETCH     ACCESS:    8312585 HIT:    3589270 MISS:    4723315
cpu0_L1D WRITE        ACCESS:    7759613 HIT:    5906495 MISS:    1853118
cpu0_L1D TRANSLATION  ACCESS:      36329 HIT:      13973 MISS:      22356
cpu0_L1D PREFETCH REQUESTED:  117685544 ISSUED:    8312556 USEFUL:    1310593 USELESS:      71613
cpu0_L1D AVERAGE MISS LATENCY: 53.36 cycles
cpu0_L1I TOTAL        ACCESS:    1019401 HIT:     975248 MISS:      44153
cpu0_L1I LOAD         ACCESS:     470871 HIT:     457258 MISS:      13613
cpu0_L1I RFO          ACCESS:          0 HIT:          0 MISS:          0
cpu0_L1I PREFETCH     ACCESS:     548530 HIT:     517990 MISS:      30540
cpu0_L1I WRITE        ACCESS:          0 HIT:          0 MISS:          0
cpu0_L1I TRANSLATION  ACCESS:          0 HIT:          0 MISS:          0
cpu0_L1I PREFETCH REQUESTED:     765255 ISSUED:     548530 USEFUL:      17651 USELESS:      10458
cpu0_L1I AVERAGE MISS LATENCY: 185.9 cycles
cpu0_L2C TOTAL        ACCESS:   13658882 HIT:    6597324 MISS:    7061558
cpu0_L2C LOAD         ACCESS:    2094446 HIT:    1028517 MISS:    1065929
cpu0_L2C RFO          ACCESS:     448195 HIT:     280371 MISS:     167824
cpu0_L2C PREFETCH     ACCESS:    9853941 HIT:    4033097 MISS:    5820844
cpu0_L2C WRITE        ACCESS:    1240382 HIT:    1240259 MISS:        123
cpu0_L2C TRANSLATION  ACCESS:      21918 HIT:      15080 MISS:       6838
cpu0_L2C PREFETCH REQUESTED:    6206864 ISSUED:    5952492 USEFUL:    1084272 USELESS:     221672
cpu0_L2C AVERAGE MISS LATENCY: 174.9 cycles
cpu0_STLB TOTAL        ACCESS:     174972 HIT:     139134 MISS:      35838
cpu0_STLB LOAD         ACCESS:     174972 HIT:     139134 MISS:      35838
cpu0_STLB RFO          ACCESS:          0 HIT:          0 MISS:          0
cpu0_STLB PREFETCH     ACCESS:          0 HIT:          0 MISS:          0
cpu0_STLB WRITE        ACCESS:          0 HIT:          0 MISS:          0
cpu0_STLB TRANSLATION  ACCESS:          0 HIT:          0 MISS:          0
cpu0_STLB PREFETCH REQUESTED:          0 ISSUED:          0 USEFUL:          0 USELESS:          0
cpu0_STLB AVERAGE MISS LATENCY: 176.5 cycles

DRAM Statistics

Channel 0 RQ ROW_BUFFER_HIT:     436641
  ROW_BUFFER_MISS:     809697
 AVG DBUS CONGESTED CYCLE: 3.954
WQ ROW_BUFFER_HIT: Channel 0 
  ROW_BUFFER_MISS:      31267
  FULL:     297284

Channel 1 RQ ROW_BUFFER_HIT:     430772
  ROW_BUFFER_MISS:     804048
 AVG DBUS CONGESTED CYCLE: 3.95
WQ ROW_BUFFER_HIT: Channel 1 
  ROW_BUFFER_MISS:      33690
  FULL:     293981
BERTI TO_L1: 43797841 TO_L2: 94780759 TO_L2_BC_MSHR: 45000574
BERTI AVG_LAT: 220.87 NUM_TRACK_LATENCY: 4521469 NUM_CANT_TRACK_LATENCY: 301
BERTI CROSS_PAGE 40828638 NO_CROSS_PAGE: 97749962
BERTI FOUND_BERTI: 26942002 NO_FOUND_BERTI: 15950000
BERTI AVERAGE_ISSUED: 3.41509
CPU 0 L1I Entangling prefetcher final stats
IP accesses: 14f9 53e40 7518 / 523534
IP misses: 44e3 1138c0 1321 / 66276
IP hits: 0 0 0 / 0
IP late: 5aed 16bb40 16 / 6784
IP wrong: 5aef 16bbc0 26 / 10398
miss rate: 0.126594
coverage: 0
coverage_late: 0.10236
accuracy: 0
accuracy_late: 0.394832
discarded: 0
evicts entangled j table: 0
evicts entangled k table: 1687
max bb size: 65
formats: 499 0 1419 803 381 837 0 
hist_lookups: 1265 1343 1095 925 894 753 540 433 379 300 213 137 104 53 32 0 21 4157 
hist_lookups_evict: 0.166087 %
hist_lookups_shortlat: 32.8773 %
bb_found_hist: 0 46600 16540 8690 6153 3686 4155 1790 844 1392 1583 280 184 8 829 807 81 868 45 240 251 0 0 2 237 0 237 480 0 0 0 0 0 0 0 0 3 474 0 6 0 6 4 0 0 0 0 0 0 0 2 0 0 0 0 0 0 0 0 0 0 0 0 0 
bb_found_summary: 320157 96477 3.31849
entangled_found_hist: 0 23676 13495 13644 4098 1727 118 0 
entangled_found_summary: 117333 56758 2.06726
bb_ent_found_hist: 0 33744 17425 7783 5911 4179 2317 1949 3090 2504 2377 354 166 93 779 878 0 640 0 532 33 0 0 4 236 0 475 1532 0 0 0 0 0 0 0 0 0 0 0 6 0 0 0 0 0 0 0 0 0 0 6 0 0 0 0 0 0 0 0 0 0 0 0 0 
bb_ent_found_summary: 347876 87013 3.99798
