WARNING: physical memory size is smaller than virtual memory size.

*** ChampSim Multicore Out-of-Order Simulator ***
Warmup Instructions: 30000000
Simulation Instructions: 100000000
Number of CPUs: 1
Page size: 4096

BTB:
Basic BTB sets: 1024 ways: 8
Indirect:
history lengths: 0 0 10 16 27 44 60 96 109 219 449 487 714 1313 2146 3881 
ITTAGE tables: 64768 bytes;Region table: 240 bytes;IUM: 384 bytes;Total Storage= 65392 bytes;
RAS:
RAS size: 64
[LLC] INSTR Demand IPV: 1 2 2 1 4 Prefetch IPV: 1 2 1 1 4
[LLC] DATA  Demand IPV: 1 1 1 2 4 Prefetch IPV: 1 1 2 2 4
Berti Prefetcher
CPU 0 Entangling prefetcher
Off-chip DRAM Size: 8 GiB Channels: 2 Width: 64-bit Data Race: 6400 MT/s
[DUEL] Epoch ended. INSTR misses = 6, DATA misses = 15. Winner = INSTR
[DUEL] Epoch ended. INSTR misses = 114, DATA misses = 114. Winner = INSTR
[DUEL] Epoch ended. INSTR misses = 47, DATA misses = 47. Winner = INSTR
[DUEL] Epoch ended. INSTR misses = 87, DATA misses = 72. Winner = DATA
[DUEL] Epoch ended. INSTR misses = 42, DATA misses = 52. Winner = INSTR
[DUEL] Epoch ended. INSTR misses = 41, DATA misses = 47. Winner = INSTR
[DUEL] Epoch ended. INSTR misses = 173, DATA misses = 166. Winner = DATA
[DUEL] Epoch ended. INSTR misses = 48, DATA misses = 45. Winner = DATA
[DUEL] Epoch ended. INSTR misses = 15, DATA misses = 2. Winner = DATA
[DUEL] Epoch ended. INSTR misses = 7, DATA misses = 5. Winner = DATA
[DUEL] Epoch ended. INSTR misses = 19, DATA misses = 12. Winner = DATA
[DUEL] Epoch ended. INSTR misses = 16, DATA misses = 14. Winner = DATA
[DUEL] Epoch ended. INSTR misses = 13, DATA misses = 25. Winner = INSTR
[DUEL] Epoch ended. INSTR misses = 45, DATA misses = 55. Winner = INSTR
[DUEL] Epoch ended. INSTR misses = 137, DATA misses = 105. Winner = DATA
[DUEL] Epoch ended. INSTR misses = 22, DATA misses = 23. Winner = INSTR
[DUEL] Epoch ended. INSTR misses = 85, DATA misses = 88. Winner = INSTR
[DUEL] Epoch ended. INSTR misses = 54, DATA misses = 53. Winner = DATA
[DUEL] Epoch ended. INSTR misses = 31, DATA misses = 18. Winner = DATA
[DUEL] Epoch ended. INSTR misses = 21, DATA misses = 9. Winner = DATA
[DUEL] Epoch ended. INSTR misses = 13, DATA misses = 20. Winner = INSTR
[DUEL] Epoch ended. INSTR misses = 17, DATA misses = 20. Winner = INSTR
[DUEL] Epoch ended. INSTR misses = 95, DATA misses = 72. Winner = DATA
[DUEL] Epoch ended. INSTR misses = 74, DATA misses = 85. Winner = INSTR
[DUEL] Epoch ended. INSTR misses = 33, DATA misses = 31. Winner = DATA
[DUEL] Epoch ended. INSTR misses = 55, DATA misses = 66. Winner = INSTR
[DUEL] Epoch ended. INSTR misses = 116, DATA misses = 97. Winner = DATA
[DUEL] Epoch ended. INSTR misses = 38, DATA misses = 40. Winner = INSTR
[DUEL] Epoch ended. INSTR misses = 12, DATA misses = 2. Winner = DATA
[DUEL] Epoch ended. INSTR misses = 7, DATA misses = 3. Winner = DATA
[DUEL] Epoch ended. INSTR misses = 17, DATA misses = 11. Winner = DATA
[DUEL] Epoch ended. INSTR misses = 13, DATA misses = 12. Winner = DATA
[DUEL] Epoch ended. INSTR misses = 11, DATA misses = 27. Winner = INSTR
[DUEL] Epoch ended. INSTR misses = 55, DATA misses = 54. Winner = DATA
[DUEL] Epoch ended. INSTR misses = 28, DATA misses = 32. Winner = INSTR
[DUEL] Epoch ended. INSTR misses = 53, DATA misses = 53. Winner = INSTR
[DUEL] Epoch ended. INSTR misses = 32, DATA misses = 24. Winner = DATA
[DUEL] Epoch ended. INSTR misses = 20, DATA misses = 11. Winner = DATA
[DUEL] Epoch ended. INSTR misses = 13, DATA misses = 16. Winner = INSTR
Heartbeat CPU 0 instructions: 10000005 cycles: 1908706 heartbeat IPC: 5.239 cumulative IPC: 5.239 (Simulation time: 00 hr 00 min 26 sec)
[DUEL] Epoch ended. INSTR misses = 3, DATA misses = 6. Winner = INSTR
[DUEL] Epoch ended. INSTR misses = 72, DATA misses = 64. Winner = DATA
[DUEL] Epoch ended. INSTR misses = 49, DATA misses = 60. Winner = INSTR
[DUEL] Epoch ended. INSTR misses = 50, DATA misses = 43. Winner = DATA
[DUEL] Epoch ended. INSTR misses = 3, DATA misses = 13. Winner = INSTR
[DUEL] Epoch ended. INSTR misses = 124, DATA misses = 120. Winner = DATA
[DUEL] Epoch ended. INSTR misses = 29, DATA misses = 40. Winner = INSTR
[DUEL] Epoch ended. INSTR misses = 2, DATA misses = 0. Winner = DATA
[DUEL] Epoch ended. INSTR misses = 14, DATA misses = 4. Winner = DATA
[DUEL] Epoch ended. INSTR misses = 14, DATA misses = 11. Winner = DATA
[DUEL] Epoch ended. INSTR misses = 10, DATA misses = 10. Winner = INSTR
[DUEL] Epoch ended. INSTR misses = 6, DATA misses = 22. Winner = INSTR
[DUEL] Epoch ended. INSTR misses = 17, DATA misses = 18. Winner = INSTR
[DUEL] Epoch ended. INSTR misses = 95, DATA misses = 102. Winner = INSTR
[DUEL] Epoch ended. INSTR misses = 40, DATA misses = 34. Winner = DATA
[DUEL] Epoch ended. INSTR misses = 63, DATA misses = 61. Winner = DATA
[DUEL] Epoch ended. INSTR misses = 11, DATA misses = 9. Winner = DATA
[DUEL] Epoch ended. INSTR misses = 42, DATA misses = 33. Winner = DATA
[DUEL] Epoch ended. INSTR misses = 70, DATA misses = 60. Winner = DATA
[DUEL] Epoch ended. INSTR misses = 20, DATA misses = 17. Winner = DATA
[DUEL] Epoch ended. INSTR misses = 90, DATA misses = 77. Winner = DATA
[DUEL] Epoch ended. INSTR misses = 13, DATA misses = 16. Winner = INSTR
[DUEL] Epoch ended. INSTR misses = 13, DATA misses = 4. Winner = DATA
[DUEL] Epoch ended. INSTR misses = 13, DATA misses = 13. Winner = INSTR
[DUEL] Epoch ended. INSTR misses = 6, DATA misses = 27. Winner = INSTR
[DUEL] Epoch ended. INSTR misses = 49, DATA misses = 64. Winner = INSTR
[DUEL] Epoch ended. INSTR misses = 50, DATA misses = 50. Winner = INSTR
[DUEL] Epoch ended. INSTR misses = 33, DATA misses = 27. Winner = DATA
[DUEL] Epoch ended. INSTR misses = 21, DATA misses = 30. Winner = INSTR
[DUEL] Epoch ended. INSTR misses = 54, DATA misses = 38. Winner = DATA
[DUEL] Epoch ended. INSTR misses = 48, DATA misses = 42. Winner = DATA
[DUEL] Epoch ended. INSTR misses = 81, DATA misses = 58. Winner = DATA
[DUEL] Epoch ended. INSTR misses = 35, DATA misses = 36. Winner = INSTR
[DUEL] Epoch ended. INSTR misses = 15, DATA misses = 10. Winner = DATA
[DUEL] Epoch ended. INSTR misses = 10, DATA misses = 3. Winner = DATA
[DUEL] Epoch ended. INSTR misses = 11, DATA misses = 27. Winner = INSTR
[DUEL] Epoch ended. INSTR misses = 19, DATA misses = 20. Winner = INSTR
[DUEL] Epoch ended. INSTR misses = 44, DATA misses = 51. Winner = INSTR
[DUEL] Epoch ended. INSTR misses = 21, DATA misses = 26. Winner = INSTR
Heartbeat CPU 0 instructions: 20000000 cycles: 3806256 heartbeat IPC: 5.27 cumulative IPC: 5.255 (Simulation time: 00 hr 00 min 52 sec)
[DUEL] Epoch ended. INSTR misses = 56, DATA misses = 56. Winner = INSTR
[DUEL] Epoch ended. INSTR misses = 29, DATA misses = 24. Winner = DATA
[DUEL] Epoch ended. INSTR misses = 16, DATA misses = 18. Winner = INSTR
[DUEL] Epoch ended. INSTR misses = 67, DATA misses = 51. Winner = DATA
[DUEL] Epoch ended. INSTR misses = 33, DATA misses = 28. Winner = DATA
[DUEL] Epoch ended. INSTR misses = 87, DATA misses = 58. Winner = DATA
[DUEL] Epoch ended. INSTR misses = 16, DATA misses = 28. Winner = INSTR
[DUEL] Epoch ended. INSTR misses = 11, DATA misses = 2. Winner = DATA
[DUEL] Epoch ended. INSTR misses = 8, DATA misses = 5. Winner = DATA
[DUEL] Epoch ended. INSTR misses = 8, DATA misses = 26. Winner = INSTR
[DUEL] Epoch ended. INSTR misses = 42, DATA misses = 60. Winner = INSTR
[DUEL] Epoch ended. INSTR misses = 49, DATA misses = 41. Winner = DATA
[DUEL] Epoch ended. INSTR misses = 38, DATA misses = 29. Winner = DATA
[DUEL] Epoch ended. INSTR misses = 8, DATA misses = 5. Winner = DATA
[DUEL] Epoch ended. INSTR misses = 16, DATA misses = 22. Winner = INSTR
[DUEL] Epoch ended. INSTR misses = 58, DATA misses = 49. Winner = DATA
[DUEL] Epoch ended. INSTR misses = 36, DATA misses = 32. Winner = DATA
[DUEL] Epoch ended. INSTR misses = 53, DATA misses = 51. Winner = DATA
[DUEL] Epoch ended. INSTR misses = 61, DATA misses = 59. Winner = DATA
[DUEL] Epoch ended. INSTR misses = 7, DATA misses = 3. Winner = DATA
[DUEL] Epoch ended. INSTR misses = 10, DATA misses = 4. Winner = DATA
[DUEL] Epoch ended. INSTR misses = 15, DATA misses = 12. Winner = DATA
[DUEL] Epoch ended. INSTR misses = 10, DATA misses = 26. Winner = INSTR
[DUEL] Epoch ended. INSTR misses = 51, DATA misses = 56. Winner = INSTR
[DUEL] Epoch ended. INSTR misses = 41, DATA misses = 40. Winner = DATA
[DUEL] Epoch ended. INSTR misses = 39, DATA misses = 31. Winner = DATA
[DUEL] Epoch ended. INSTR misses = 6, DATA misses = 5. Winner = DATA
[DUEL] Epoch ended. INSTR misses = 21, DATA misses = 28. Winner = INSTR
[DUEL] Epoch ended. INSTR misses = 66, DATA misses = 51. Winner = DATA
[DUEL] Epoch ended. INSTR misses = 33, DATA misses = 30. Winner = DATA
[DUEL] Epoch ended. INSTR misses = 72, DATA misses = 67. Winner = DATA
[DUEL] Epoch ended. INSTR misses = 36, DATA misses = 41. Winner = INSTR
[DUEL] Epoch ended. INSTR misses = 8, DATA misses = 0. Winner = DATA
[DUEL] Epoch ended. INSTR misses = 5, DATA misses = 5. Winner = INSTR
[DUEL] Epoch ended. INSTR misses = 19, DATA misses = 15. Winner = DATA
[DUEL] Epoch ended. INSTR misses = 6, DATA misses = 20. Winner = INSTR
[DUEL] Epoch ended. INSTR misses = 37, DATA misses = 38. Winner = INSTR
[DUEL] Epoch ended. INSTR misses = 35, DATA misses = 36. Winner = INSTR
[DUEL] Epoch ended. INSTR misses = 36, DATA misses = 29. Winner = DATA
Heartbeat CPU 0 instructions: 30000002 cycles: 5700886 heartbeat IPC: 5.278 cumulative IPC: 5.262 (Simulation time: 00 hr 01 min 19 sec)
Warmup finished CPU 0 instructions: 30000002 cycles: 5700887 cumulative IPC: 5.262 (Simulation time: 00 hr 01 min 19 sec)
Warmup complete CPU 0 instructions: 30000002 cycles: 5700887 cumulative IPC: 5.262 (Simulation time: 00 hr 01 min 19 sec)
[DUEL] Epoch ended. INSTR misses = 7, DATA misses = 7. Winner = INSTR
[DUEL] Epoch ended. INSTR misses = 15, DATA misses = 20. Winner = INSTR
[DUEL] Epoch ended. INSTR misses = 101, DATA misses = 80. Winner = DATA
[DUEL] Epoch ended. INSTR misses = 27, DATA misses = 27. Winner = INSTR
[DUEL] Epoch ended. INSTR misses = 95, DATA misses = 107. Winner = INSTR
[DUEL] Epoch ended. INSTR misses = 47, DATA misses = 44. Winner = DATA
[DUEL] Epoch ended. INSTR misses = 8, DATA misses = 2. Winner = DATA
[DUEL] Epoch ended. INSTR misses = 5, DATA misses = 3. Winner = DATA
[DUEL] Epoch ended. INSTR misses = 18, DATA misses = 15. Winner = DATA
[DUEL] Epoch ended. INSTR misses = 6, DATA misses = 20. Winner = INSTR
[DUEL] Epoch ended. INSTR misses = 49, DATA misses = 60. Winner = INSTR
[DUEL] Epoch ended. INSTR misses = 6, DATA misses = 4. Winner = DATA
[DUEL] Epoch ended. INSTR misses = 16, DATA misses = 17. Winner = INSTR
[DUEL] Epoch ended. INSTR misses = 133, DATA misses = 143. Winner = INSTR
[DUEL] Epoch ended. INSTR misses = 173, DATA misses = 151. Winner = DATA
[DUEL] Epoch ended. INSTR misses = 126, DATA misses = 105. Winner = DATA
[DUEL] Epoch ended. INSTR misses = 78, DATA misses = 56. Winner = DATA
[DUEL] Epoch ended. INSTR misses = 44, DATA misses = 38. Winner = DATA
[DUEL] Epoch ended. INSTR misses = 69, DATA misses = 78. Winner = INSTR
[DUEL] Epoch ended. INSTR misses = 69, DATA misses = 95. Winner = INSTR
[DUEL] Epoch ended. INSTR misses = 109, DATA misses = 133. Winner = INSTR
[DUEL] Epoch ended. INSTR misses = 82, DATA misses = 75. Winner = DATA
[DUEL] Epoch ended. INSTR misses = 104, DATA misses = 90. Winner = DATA
[DUEL] Epoch ended. INSTR misses = 83, DATA misses = 87. Winner = INSTR
[DUEL] Epoch ended. INSTR misses = 33, DATA misses = 31. Winner = DATA
[DUEL] Epoch ended. INSTR misses = 81, DATA misses = 56. Winner = DATA
[DUEL] Epoch ended. INSTR misses = 72, DATA misses = 74. Winner = INSTR
[DUEL] Epoch ended. INSTR misses = 64, DATA misses = 81. Winner = INSTR
[DUEL] Epoch ended. INSTR misses = 54, DATA misses = 87. Winner = INSTR
[DUEL] Epoch ended. INSTR misses = 57, DATA misses = 54. Winner = DATA
[DUEL] Epoch ended. INSTR misses = 90, DATA misses = 75. Winner = DATA
[DUEL] Epoch ended. INSTR misses = 18, DATA misses = 34. Winner = INSTR
[DUEL] Epoch ended. INSTR misses = 11, DATA misses = 15. Winner = INSTR
[DUEL] Epoch ended. INSTR misses = 2, DATA misses = 3. Winner = INSTR
[DUEL] Epoch ended. INSTR misses = 9, DATA misses = 12. Winner = INSTR
[DUEL] Epoch ended. INSTR misses = 3, DATA misses = 28. Winner = INSTR
[DUEL] Epoch ended. INSTR misses = 15, DATA misses = 9. Winner = DATA
[DUEL] Epoch ended. INSTR misses = 6, DATA misses = 7. Winner = INSTR
[DUEL] Epoch ended. INSTR misses = 1, DATA misses = 1. Winner = INSTR
Heartbeat CPU 0 instructions: 40000003 cycles: 22607045 heartbeat IPC: 0.5915 cumulative IPC: 0.5915 (Simulation time: 00 hr 02 min 57 sec)
[DUEL] Epoch ended. INSTR misses = 6, DATA misses = 12. Winner = INSTR
[DUEL] Epoch ended. INSTR misses = 1, DATA misses = 4. Winner = INSTR
[DUEL] Epoch ended. INSTR misses = 33, DATA misses = 20. Winner = DATA
[DUEL] Epoch ended. INSTR misses = 0, DATA misses = 2. Winner = INSTR
[DUEL] Epoch ended. INSTR misses = 31, DATA misses = 35. Winner = INSTR
[DUEL] Epoch ended. INSTR misses = 30, DATA misses = 43. Winner = INSTR
[DUEL] Epoch ended. INSTR misses = 28, DATA misses = 25. Winner = DATA
[DUEL] Epoch ended. INSTR misses = 7, DATA misses = 2. Winner = DATA
[DUEL] Epoch ended. INSTR misses = 110, DATA misses = 92. Winner = DATA
[DUEL] Epoch ended. INSTR misses = 44, DATA misses = 53. Winner = INSTR
[DUEL] Epoch ended. INSTR misses = 57, DATA misses = 74. Winner = INSTR
[DUEL] Epoch ended. INSTR misses = 25, DATA misses = 29. Winner = INSTR
[DUEL] Epoch ended. INSTR misses = 19, DATA misses = 34. Winner = INSTR
[DUEL] Epoch ended. INSTR misses = 8, DATA misses = 5. Winner = DATA
[DUEL] Epoch ended. INSTR misses = 8, DATA misses = 10. Winner = INSTR
[DUEL] Epoch ended. INSTR misses = 17, DATA misses = 25. Winner = INSTR
[DUEL] Epoch ended. INSTR misses = 129, DATA misses = 119. Winner = DATA
[DUEL] Epoch ended. INSTR misses = 54, DATA misses = 63. Winner = INSTR
[DUEL] Epoch ended. INSTR misses = 49, DATA misses = 35. Winner = DATA
[DUEL] Epoch ended. INSTR misses = 5, DATA misses = 11. Winner = INSTR
[DUEL] Epoch ended. INSTR misses = 75, DATA misses = 54. Winner = DATA
[DUEL] Epoch ended. INSTR misses = 107, DATA misses = 108. Winner = INSTR
[DUEL] Epoch ended. INSTR misses = 42, DATA misses = 27. Winner = DATA
[DUEL] Epoch ended. INSTR misses = 155, DATA misses = 152. Winner = DATA
[DUEL] Epoch ended. INSTR misses = 48, DATA misses = 42. Winner = DATA
[DUEL] Epoch ended. INSTR misses = 11, DATA misses = 2. Winner = DATA
[DUEL] Epoch ended. INSTR misses = 11, DATA misses = 3. Winner = DATA
[DUEL] Epoch ended. INSTR misses = 21, DATA misses = 13. Winner = DATA
[DUEL] Epoch ended. INSTR misses = 23, DATA misses = 29. Winner = INSTR
[DUEL] Epoch ended. INSTR misses = 71, DATA misses = 72. Winner = INSTR
[DUEL] Epoch ended. INSTR misses = 47, DATA misses = 60. Winner = INSTR
[DUEL] Epoch ended. INSTR misses = 39, DATA misses = 22. Winner = DATA
[DUEL] Epoch ended. INSTR misses = 3, DATA misses = 3. Winner = INSTR
[DUEL] Epoch ended. INSTR misses = 61, DATA misses = 46. Winner = DATA
[DUEL] Epoch ended. INSTR misses = 71, DATA misses = 89. Winner = INSTR
[DUEL] Epoch ended. INSTR misses = 21, DATA misses = 17. Winner = DATA
[DUEL] Epoch ended. INSTR misses = 147, DATA misses = 159. Winner = INSTR
[DUEL] Epoch ended. INSTR misses = 35, DATA misses = 37. Winner = INSTR
Heartbeat CPU 0 instructions: 50000000 cycles: 35335294 heartbeat IPC: 0.7857 cumulative IPC: 0.6749 (Simulation time: 00 hr 04 min 21 sec)
[DUEL] Epoch ended. INSTR misses = 12, DATA misses = 2. Winner = DATA
[DUEL] Epoch ended. INSTR misses = 9, DATA misses = 3. Winner = DATA
[DUEL] Epoch ended. INSTR misses = 22, DATA misses = 12. Winner = DATA
[DUEL] Epoch ended. INSTR misses = 21, DATA misses = 27. Winner = INSTR
[DUEL] Epoch ended. INSTR misses = 118, DATA misses = 143. Winner = INSTR
[DUEL] Epoch ended. INSTR misses = 48, DATA misses = 57. Winner = INSTR
[DUEL] Epoch ended. INSTR misses = 40, DATA misses = 29. Winner = DATA
[DUEL] Epoch ended. INSTR misses = 17, DATA misses = 15. Winner = DATA
[DUEL] Epoch ended. INSTR misses = 3, DATA misses = 3. Winner = INSTR
[DUEL] Epoch ended. INSTR misses = 79, DATA misses = 74. Winner = DATA
[DUEL] Epoch ended. INSTR misses = 55, DATA misses = 61. Winner = INSTR
[DUEL] Epoch ended. INSTR misses = 50, DATA misses = 80. Winner = INSTR
[DUEL] Epoch ended. INSTR misses = 118, DATA misses = 105. Winner = DATA
[DUEL] Epoch ended. INSTR misses = 3, DATA misses = 3. Winner = INSTR
[DUEL] Epoch ended. INSTR misses = 15, DATA misses = 4. Winner = DATA
[DUEL] Epoch ended. INSTR misses = 13, DATA misses = 5. Winner = DATA
[DUEL] Epoch ended. INSTR misses = 17, DATA misses = 23. Winner = INSTR
[DUEL] Epoch ended. INSTR misses = 52, DATA misses = 54. Winner = INSTR
[DUEL] Epoch ended. INSTR misses = 68, DATA misses = 90. Winner = INSTR
[DUEL] Epoch ended. INSTR misses = 22, DATA misses = 29. Winner = INSTR
[DUEL] Epoch ended. INSTR misses = 56, DATA misses = 69. Winner = INSTR
[DUEL] Epoch ended. INSTR misses = 40, DATA misses = 23. Winner = DATA
[DUEL] Epoch ended. INSTR misses = 1, DATA misses = 5. Winner = INSTR
[DUEL] Epoch ended. INSTR misses = 13, DATA misses = 15. Winner = INSTR
[DUEL] Epoch ended. INSTR misses = 81, DATA misses = 96. Winner = INSTR
[DUEL] Epoch ended. INSTR misses = 26, DATA misses = 34. Winner = INSTR
[DUEL] Epoch ended. INSTR misses = 108, DATA misses = 123. Winner = INSTR
[DUEL] Epoch ended. INSTR misses = 41, DATA misses = 50. Winner = INSTR
[DUEL] Epoch ended. INSTR misses = 10, DATA misses = 2. Winner = DATA
[DUEL] Epoch ended. INSTR misses = 9, DATA misses = 3. Winner = DATA
[DUEL] Epoch ended. INSTR misses = 19, DATA misses = 11. Winner = DATA
[DUEL] Epoch ended. INSTR misses = 10, DATA misses = 18. Winner = INSTR
[DUEL] Epoch ended. INSTR misses = 91, DATA misses = 105. Winner = INSTR
[DUEL] Epoch ended. INSTR misses = 42, DATA misses = 71. Winner = INSTR
[DUEL] Epoch ended. INSTR misses = 45, DATA misses = 39. Winner = DATA
[DUEL] Epoch ended. INSTR misses = 25, DATA misses = 18. Winner = DATA
[DUEL] Epoch ended. INSTR misses = 2, DATA misses = 3. Winner = INSTR
[DUEL] Epoch ended. INSTR misses = 55, DATA misses = 47. Winner = DATA
[DUEL] Epoch ended. INSTR misses = 56, DATA misses = 80. Winner = INSTR
Heartbeat CPU 0 instructions: 60000000 cycles: 48377048 heartbeat IPC: 0.7668 cumulative IPC: 0.703 (Simulation time: 00 hr 05 min 46 sec)
[DUEL] Epoch ended. INSTR misses = 11, DATA misses = 21. Winner = INSTR
[DUEL] Epoch ended. INSTR misses = 116, DATA misses = 127. Winner = INSTR
[DUEL] Epoch ended. INSTR misses = 21, DATA misses = 33. Winner = INSTR
[DUEL] Epoch ended. INSTR misses = 13, DATA misses = 4. Winner = DATA
[DUEL] Epoch ended. INSTR misses = 10, DATA misses = 1. Winner = DATA
[DUEL] Epoch ended. INSTR misses = 20, DATA misses = 19. Winner = DATA
[DUEL] Epoch ended. INSTR misses = 19, DATA misses = 20. Winner = INSTR
[DUEL] Epoch ended. INSTR misses = 84, DATA misses = 137. Winner = INSTR
[DUEL] Epoch ended. INSTR misses = 43, DATA misses = 46. Winner = INSTR
[DUEL] Epoch ended. INSTR misses = 47, DATA misses = 34. Winner = DATA
[DUEL] Epoch ended. INSTR misses = 3, DATA misses = 6. Winner = INSTR
[DUEL] Epoch ended. INSTR misses = 4, DATA misses = 10. Winner = INSTR
[DUEL] Epoch ended. INSTR misses = 86, DATA misses = 92. Winner = INSTR
[DUEL] Epoch ended. INSTR misses = 23, DATA misses = 32. Winner = INSTR
[DUEL] Epoch ended. INSTR misses = 91, DATA misses = 119. Winner = INSTR
[DUEL] Epoch ended. INSTR misses = 52, DATA misses = 56. Winner = INSTR
[DUEL] Epoch ended. INSTR misses = 9, DATA misses = 2. Winner = DATA
[DUEL] Epoch ended. INSTR misses = 7, DATA misses = 3. Winner = DATA
[DUEL] Epoch ended. INSTR misses = 20, DATA misses = 9. Winner = DATA
[DUEL] Epoch ended. INSTR misses = 10, DATA misses = 20. Winner = INSTR
[DUEL] Epoch ended. INSTR misses = 58, DATA misses = 63. Winner = INSTR
[DUEL] Epoch ended. INSTR misses = 31, DATA misses = 49. Winner = INSTR
[DUEL] Epoch ended. INSTR misses = 45, DATA misses = 34. Winner = DATA
[DUEL] Epoch ended. INSTR misses = 5, DATA misses = 9. Winner = INSTR
[DUEL] Epoch ended. INSTR misses = 8, DATA misses = 20. Winner = INSTR
[DUEL] Epoch ended. INSTR misses = 99, DATA misses = 93. Winner = DATA
[DUEL] Epoch ended. INSTR misses = 25, DATA misses = 32. Winner = INSTR
[DUEL] Epoch ended. INSTR misses = 95, DATA misses = 125. Winner = INSTR
[DUEL] Epoch ended. INSTR misses = 51, DATA misses = 62. Winner = INSTR
[DUEL] Epoch ended. INSTR misses = 10, DATA misses = 2. Winner = DATA
[DUEL] Epoch ended. INSTR misses = 6, DATA misses = 3. Winner = DATA
[DUEL] Epoch ended. INSTR misses = 19, DATA misses = 9. Winner = DATA
[DUEL] Epoch ended. INSTR misses = 11, DATA misses = 20. Winner = INSTR
[DUEL] Epoch ended. INSTR misses = 68, DATA misses = 87. Winner = INSTR
[DUEL] Epoch ended. INSTR misses = 24, DATA misses = 63. Winner = INSTR
[DUEL] Epoch ended. INSTR misses = 51, DATA misses = 56. Winner = INSTR
[DUEL] Epoch ended. INSTR misses = 28, DATA misses = 18. Winner = DATA
[DUEL] Epoch ended. INSTR misses = 2, DATA misses = 5. Winner = INSTR
[DUEL] Epoch ended. INSTR misses = 50, DATA misses = 34. Winner = DATA
Heartbeat CPU 0 instructions: 70000004 cycles: 60219145 heartbeat IPC: 0.8444 cumulative IPC: 0.7337 (Simulation time: 00 hr 07 min 02 sec)
[DUEL] Epoch ended. INSTR misses = 53, DATA misses = 90. Winner = INSTR
[DUEL] Epoch ended. INSTR misses = 13, DATA misses = 14. Winner = INSTR
[DUEL] Epoch ended. INSTR misses = 127, DATA misses = 129. Winner = INSTR
[DUEL] Epoch ended. INSTR misses = 23, DATA misses = 35. Winner = INSTR
[DUEL] Epoch ended. INSTR misses = 12, DATA misses = 2. Winner = DATA
[DUEL] Epoch ended. INSTR misses = 7, DATA misses = 3. Winner = DATA
[DUEL] Epoch ended. INSTR misses = 19, DATA misses = 11. Winner = DATA
[DUEL] Epoch ended. INSTR misses = 22, DATA misses = 28. Winner = INSTR
[DUEL] Epoch ended. INSTR misses = 75, DATA misses = 122. Winner = INSTR
[DUEL] Epoch ended. INSTR misses = 26, DATA misses = 40. Winner = INSTR
[DUEL] Epoch ended. INSTR misses = 53, DATA misses = 40. Winner = DATA
[DUEL] Epoch ended. INSTR misses = 22, DATA misses = 19. Winner = DATA
[DUEL] Epoch ended. INSTR misses = 1, DATA misses = 1. Winner = INSTR
[DUEL] Epoch ended. INSTR misses = 61, DATA misses = 55. Winner = DATA
[DUEL] Epoch ended. INSTR misses = 46, DATA misses = 74. Winner = INSTR
[DUEL] Epoch ended. INSTR misses = 47, DATA misses = 37. Winner = DATA
[DUEL] Epoch ended. INSTR misses = 100, DATA misses = 123. Winner = INSTR
[DUEL] Epoch ended. INSTR misses = 13, DATA misses = 16. Winner = INSTR
[DUEL] Epoch ended. INSTR misses = 12, DATA misses = 4. Winner = DATA
[DUEL] Epoch ended. INSTR misses = 13, DATA misses = 1. Winner = DATA
[DUEL] Epoch ended. INSTR misses = 19, DATA misses = 21. Winner = INSTR
[DUEL] Epoch ended. INSTR misses = 24, DATA misses = 40. Winner = INSTR
[DUEL] Epoch ended. INSTR misses = 49, DATA misses = 61. Winner = INSTR
[DUEL] Epoch ended. INSTR misses = 44, DATA misses = 38. Winner = DATA
[DUEL] Epoch ended. INSTR misses = 22, DATA misses = 18. Winner = DATA
[DUEL] Epoch ended. INSTR misses = 3, DATA misses = 10. Winner = INSTR
[DUEL] Epoch ended. INSTR misses = 50, DATA misses = 49. Winner = DATA
[DUEL] Epoch ended. INSTR misses = 49, DATA misses = 76. Winner = INSTR
[DUEL] Epoch ended. INSTR misses = 8, DATA misses = 12. Winner = INSTR
[DUEL] Epoch ended. INSTR misses = 145, DATA misses = 139. Winner = DATA
[DUEL] Epoch ended. INSTR misses = 21, DATA misses = 32. Winner = INSTR
[DUEL] Epoch ended. INSTR misses = 14, DATA misses = 2. Winner = DATA
[DUEL] Epoch ended. INSTR misses = 8, DATA misses = 3. Winner = DATA
[DUEL] Epoch ended. INSTR misses = 17, DATA misses = 13. Winner = DATA
[DUEL] Epoch ended. INSTR misses = 21, DATA misses = 26. Winner = INSTR
[DUEL] Epoch ended. INSTR misses = 34, DATA misses = 43. Winner = INSTR
[DUEL] Epoch ended. INSTR misses = 0, DATA misses = 2. Winner = INSTR
[DUEL] Epoch ended. INSTR misses = 22, DATA misses = 20. Winner = DATA
[DUEL] Epoch ended. INSTR misses = 197, DATA misses = 216. Winner = INSTR
Heartbeat CPU 0 instructions: 80000001 cycles: 72998157 heartbeat IPC: 0.7825 cumulative IPC: 0.743 (Simulation time: 00 hr 08 min 20 sec)
[DUEL] Epoch ended. INSTR misses = 162, DATA misses = 123. Winner = DATA
[DUEL] Epoch ended. INSTR misses = 94, DATA misses = 100. Winner = INSTR
[DUEL] Epoch ended. INSTR misses = 43, DATA misses = 33. Winner = DATA
[DUEL] Epoch ended. INSTR misses = 41, DATA misses = 39. Winner = DATA
[DUEL] Epoch ended. INSTR misses = 70, DATA misses = 80. Winner = INSTR
[DUEL] Epoch ended. INSTR misses = 104, DATA misses = 142. Winner = INSTR
[DUEL] Epoch ended. INSTR misses = 54, DATA misses = 54. Winner = INSTR
[DUEL] Epoch ended. INSTR misses = 123, DATA misses = 93. Winner = DATA
[DUEL] Epoch ended. INSTR misses = 92, DATA misses = 81. Winner = DATA
[DUEL] Epoch ended. INSTR misses = 65, DATA misses = 60. Winner = DATA
[DUEL] Epoch ended. INSTR misses = 51, DATA misses = 45. Winner = DATA
[DUEL] Epoch ended. INSTR misses = 64, DATA misses = 65. Winner = INSTR
[DUEL] Epoch ended. INSTR misses = 63, DATA misses = 54. Winner = DATA
[DUEL] Epoch ended. INSTR misses = 56, DATA misses = 60. Winner = INSTR
[DUEL] Epoch ended. INSTR misses = 50, DATA misses = 54. Winner = INSTR
[DUEL] Epoch ended. INSTR misses = 79, DATA misses = 79. Winner = INSTR
[DUEL] Epoch ended. INSTR misses = 51, DATA misses = 42. Winner = DATA
[DUEL] Epoch ended. INSTR misses = 15, DATA misses = 11. Winner = DATA
[DUEL] Epoch ended. INSTR misses = 16, DATA misses = 8. Winner = DATA
[DUEL] Epoch ended. INSTR misses = 2, DATA misses = 0. Winner = DATA
[DUEL] Epoch ended. INSTR misses = 8, DATA misses = 12. Winner = INSTR
[DUEL] Epoch ended. INSTR misses = 14, DATA misses = 16. Winner = INSTR
[DUEL] Epoch ended. INSTR misses = 8, DATA misses = 4. Winner = DATA
[DUEL] Epoch ended. INSTR misses = 8, DATA misses = 4. Winner = DATA
[DUEL] Epoch ended. INSTR misses = 6, DATA misses = 4. Winner = DATA
[DUEL] Epoch ended. INSTR misses = 7, DATA misses = 6. Winner = DATA
[DUEL] Epoch ended. INSTR misses = 2, DATA misses = 0. Winner = DATA
[DUEL] Epoch ended. INSTR misses = 38, DATA misses = 15. Winner = DATA
[DUEL] Epoch ended. INSTR misses = 4, DATA misses = 2. Winner = DATA
[DUEL] Epoch ended. INSTR misses = 11, DATA misses = 14. Winner = INSTR
[DUEL] Epoch ended. INSTR misses = 43, DATA misses = 43. Winner = INSTR
[DUEL] Epoch ended. INSTR misses = 20, DATA misses = 15. Winner = DATA
[DUEL] Epoch ended. INSTR misses = 12, DATA misses = 11. Winner = DATA
[DUEL] Epoch ended. INSTR misses = 86, DATA misses = 74. Winner = DATA
[DUEL] Epoch ended. INSTR misses = 65, DATA misses = 61. Winner = DATA
[DUEL] Epoch ended. INSTR misses = 52, DATA misses = 45. Winner = DATA
[DUEL] Epoch ended. INSTR misses = 45, DATA misses = 43. Winner = DATA
[DUEL] Epoch ended. INSTR misses = 24, DATA misses = 26. Winner = INSTR
[DUEL] Epoch ended. INSTR misses = 15, DATA misses = 18. Winner = INSTR
Heartbeat CPU 0 instructions: 90000003 cycles: 87752399 heartbeat IPC: 0.6778 cumulative IPC: 0.7312 (Simulation time: 00 hr 09 min 54 sec)
[DUEL] Epoch ended. INSTR misses = 0, DATA misses = 1. Winner = INSTR
[DUEL] Epoch ended. INSTR misses = 28, DATA misses = 32. Winner = INSTR
[DUEL] Epoch ended. INSTR misses = 131, DATA misses = 122. Winner = DATA
[DUEL] Epoch ended. INSTR misses = 49, DATA misses = 55. Winner = INSTR
[DUEL] Epoch ended. INSTR misses = 51, DATA misses = 23. Winner = DATA
[DUEL] Epoch ended. INSTR misses = 5, DATA misses = 7. Winner = INSTR
[DUEL] Epoch ended. INSTR misses = 39, DATA misses = 47. Winner = INSTR
[DUEL] Epoch ended. INSTR misses = 123, DATA misses = 121. Winner = DATA
[DUEL] Epoch ended. INSTR misses = 44, DATA misses = 44. Winner = INSTR
[DUEL] Epoch ended. INSTR misses = 145, DATA misses = 136. Winner = DATA
[DUEL] Epoch ended. INSTR misses = 78, DATA misses = 63. Winner = DATA
[DUEL] Epoch ended. INSTR misses = 8, DATA misses = 2. Winner = DATA
[DUEL] Epoch ended. INSTR misses = 11, DATA misses = 2. Winner = DATA
[DUEL] Epoch ended. INSTR misses = 22, DATA misses = 16. Winner = DATA
[DUEL] Epoch ended. INSTR misses = 10, DATA misses = 27. Winner = INSTR
[DUEL] Epoch ended. INSTR misses = 71, DATA misses = 53. Winner = DATA
[DUEL] Epoch ended. INSTR misses = 52, DATA misses = 58. Winner = INSTR
[DUEL] Epoch ended. INSTR misses = 37, DATA misses = 22. Winner = DATA
[DUEL] Epoch ended. INSTR misses = 7, DATA misses = 5. Winner = DATA
[DUEL] Epoch ended. INSTR misses = 17, DATA misses = 27. Winner = INSTR
[DUEL] Epoch ended. INSTR misses = 92, DATA misses = 80. Winner = DATA
[DUEL] Epoch ended. INSTR misses = 52, DATA misses = 57. Winner = INSTR
[DUEL] Epoch ended. INSTR misses = 90, DATA misses = 81. Winner = DATA
[DUEL] Epoch ended. INSTR misses = 94, DATA misses = 95. Winner = INSTR
[DUEL] Epoch ended. INSTR misses = 7, DATA misses = 1. Winner = DATA
[DUEL] Epoch ended. INSTR misses = 10, DATA misses = 3. Winner = DATA
[DUEL] Epoch ended. INSTR misses = 15, DATA misses = 12. Winner = DATA
[DUEL] Epoch ended. INSTR misses = 13, DATA misses = 28. Winner = INSTR
[DUEL] Epoch ended. INSTR misses = 53, DATA misses = 42. Winner = DATA
[DUEL] Epoch ended. INSTR misses = 39, DATA misses = 60. Winner = INSTR
[DUEL] Epoch ended. INSTR misses = 33, DATA misses = 19. Winner = DATA
[DUEL] Epoch ended. INSTR misses = 5, DATA misses = 5. Winner = INSTR
[DUEL] Epoch ended. INSTR misses = 15, DATA misses = 26. Winner = INSTR
[DUEL] Epoch ended. INSTR misses = 70, DATA misses = 69. Winner = DATA
[DUEL] Epoch ended. INSTR misses = 54, DATA misses = 57. Winner = INSTR
[DUEL] Epoch ended. INSTR misses = 83, DATA misses = 84. Winner = INSTR
[DUEL] Epoch ended. INSTR misses = 87, DATA misses = 99. Winner = INSTR
[DUEL] Epoch ended. INSTR misses = 5, DATA misses = 2. Winner = DATA
[DUEL] Epoch ended. INSTR misses = 12, DATA misses = 3. Winner = DATA
Heartbeat CPU 0 instructions: 100000002 cycles: 101114017 heartbeat IPC: 0.7484 cumulative IPC: 0.7337 (Simulation time: 00 hr 11 min 16 sec)
[DUEL] Epoch ended. INSTR misses = 14, DATA misses = 10. Winner = DATA
[DUEL] Epoch ended. INSTR misses = 13, DATA misses = 31. Winner = INSTR
[DUEL] Epoch ended. INSTR misses = 51, DATA misses = 45. Winner = DATA
[DUEL] Epoch ended. INSTR misses = 76, DATA misses = 106. Winner = INSTR
*** Reached end of trace: (0, "../traces/secret_traces/compute_fp/compute_fp_97.champsimtrace.xz")
[DUEL] Epoch ended. INSTR misses = 25, DATA misses = 33. Winner = INSTR
[DUEL] Epoch ended. INSTR misses = 96, DATA misses = 102. Winner = INSTR
[DUEL] Epoch ended. INSTR misses = 128, DATA misses = 98. Winner = DATA
[DUEL] Epoch ended. INSTR misses = 60, DATA misses = 81. Winner = INSTR
[DUEL] Epoch ended. INSTR misses = 83, DATA misses = 97. Winner = INSTR
[DUEL] Epoch ended. INSTR misses = 4, DATA misses = 15. Winner = INSTR
[DUEL] Epoch ended. INSTR misses = 128, DATA misses = 159. Winner = INSTR
[DUEL] Epoch ended. INSTR misses = 53, DATA misses = 54. Winner = INSTR
[DUEL] Epoch ended. INSTR misses = 0, DATA misses = 0. Winner = INSTR
[DUEL] Epoch ended. INSTR misses = 12, DATA misses = 6. Winner = DATA
[DUEL] Epoch ended. INSTR misses = 14, DATA misses = 4. Winner = DATA
[DUEL] Epoch ended. INSTR misses = 10, DATA misses = 11. Winner = INSTR
[DUEL] Epoch ended. INSTR misses = 5, DATA misses = 16. Winner = INSTR
[DUEL] Epoch ended. INSTR misses = 16, DATA misses = 18. Winner = INSTR
[DUEL] Epoch ended. INSTR misses = 103, DATA misses = 119. Winner = INSTR
[DUEL] Epoch ended. INSTR misses = 38, DATA misses = 46. Winner = INSTR
[DUEL] Epoch ended. INSTR misses = 21, DATA misses = 17. Winner = DATA
[DUEL] Epoch ended. INSTR misses = 49, DATA misses = 50. Winner = INSTR
[DUEL] Epoch ended. INSTR misses = 25, DATA misses = 11. Winner = DATA
[DUEL] Epoch ended. INSTR misses = 11, DATA misses = 3. Winner = DATA
[DUEL] Epoch ended. INSTR misses = 10, DATA misses = 19. Winner = INSTR
[DUEL] Epoch ended. INSTR misses = 2, DATA misses = 2. Winner = INSTR
[DUEL] Epoch ended. INSTR misses = 80, DATA misses = 59. Winner = DATA
[DUEL] Epoch ended. INSTR misses = 38, DATA misses = 60. Winner = INSTR
[DUEL] Epoch ended. INSTR misses = 54, DATA misses = 53. Winner = DATA
[DUEL] Epoch ended. INSTR misses = 3, DATA misses = 12. Winner = INSTR
[DUEL] Epoch ended. INSTR misses = 140, DATA misses = 165. Winner = INSTR
[DUEL] Epoch ended. INSTR misses = 50, DATA misses = 42. Winner = DATA
[DUEL] Epoch ended. INSTR misses = 0, DATA misses = 0. Winner = INSTR
[DUEL] Epoch ended. INSTR misses = 14, DATA misses = 4. Winner = DATA
[DUEL] Epoch ended. INSTR misses = 17, DATA misses = 7. Winner = DATA
[DUEL] Epoch ended. INSTR misses = 11, DATA misses = 10. Winner = DATA
[DUEL] Epoch ended. INSTR misses = 6, DATA misses = 19. Winner = INSTR
[DUEL] Epoch ended. INSTR misses = 17, DATA misses = 16. Winner = DATA
[DUEL] Epoch ended. INSTR misses = 43, DATA misses = 48. Winner = INSTR
Heartbeat CPU 0 instructions: 110000001 cycles: 115742767 heartbeat IPC: 0.6836 cumulative IPC: 0.727 (Simulation time: 00 hr 12 min 48 sec)
[DUEL] Epoch ended. INSTR misses = 34, DATA misses = 39. Winner = INSTR
[DUEL] Epoch ended. INSTR misses = 27, DATA misses = 19. Winner = DATA
[DUEL] Epoch ended. INSTR misses = 14, DATA misses = 2. Winner = DATA
[DUEL] Epoch ended. INSTR misses = 11, DATA misses = 7. Winner = DATA
[DUEL] Epoch ended. INSTR misses = 8, DATA misses = 17. Winner = INSTR
[DUEL] Epoch ended. INSTR misses = 40, DATA misses = 41. Winner = INSTR
[DUEL] Epoch ended. INSTR misses = 61, DATA misses = 60. Winner = DATA
[DUEL] Epoch ended. INSTR misses = 43, DATA misses = 58. Winner = INSTR
[DUEL] Epoch ended. INSTR misses = 4, DATA misses = 14. Winner = INSTR
[DUEL] Epoch ended. INSTR misses = 126, DATA misses = 133. Winner = INSTR
[DUEL] Epoch ended. INSTR misses = 51, DATA misses = 77. Winner = INSTR
[DUEL] Epoch ended. INSTR misses = 4, DATA misses = 0. Winner = DATA
[DUEL] Epoch ended. INSTR misses = 13, DATA misses = 2. Winner = DATA
[DUEL] Epoch ended. INSTR misses = 8, DATA misses = 3. Winner = DATA
[DUEL] Epoch ended. INSTR misses = 15, DATA misses = 10. Winner = DATA
[DUEL] Epoch ended. INSTR misses = 4, DATA misses = 10. Winner = INSTR
[DUEL] Epoch ended. INSTR misses = 21, DATA misses = 30. Winner = INSTR
[DUEL] Epoch ended. INSTR misses = 63, DATA misses = 68. Winner = INSTR
[DUEL] Epoch ended. INSTR misses = 66, DATA misses = 87. Winner = INSTR
[DUEL] Epoch ended. INSTR misses = 41, DATA misses = 42. Winner = INSTR
[DUEL] Epoch ended. INSTR misses = 32, DATA misses = 17. Winner = DATA
[DUEL] Epoch ended. INSTR misses = 12, DATA misses = 17. Winner = INSTR
[DUEL] Epoch ended. INSTR misses = 92, DATA misses = 79. Winner = DATA
[DUEL] Epoch ended. INSTR misses = 24, DATA misses = 27. Winner = INSTR
[DUEL] Epoch ended. INSTR misses = 109, DATA misses = 100. Winner = DATA
[DUEL] Epoch ended. INSTR misses = 30, DATA misses = 36. Winner = INSTR
[DUEL] Epoch ended. INSTR misses = 13, DATA misses = 2. Winner = DATA
[DUEL] Epoch ended. INSTR misses = 9, DATA misses = 4. Winner = DATA
[DUEL] Epoch ended. INSTR misses = 17, DATA misses = 22. Winner = INSTR
[DUEL] Epoch ended. INSTR misses = 51, DATA misses = 49. Winner = DATA
[DUEL] Epoch ended. INSTR misses = 28, DATA misses = 41. Winner = INSTR
[DUEL] Epoch ended. INSTR misses = 36, DATA misses = 23. Winner = DATA
[DUEL] Epoch ended. INSTR misses = 6, DATA misses = 4. Winner = DATA
[DUEL] Epoch ended. INSTR misses = 58, DATA misses = 46. Winner = DATA
[DUEL] Epoch ended. INSTR misses = 56, DATA misses = 61. Winner = INSTR
[DUEL] Epoch ended. INSTR misses = 30, DATA misses = 48. Winner = INSTR
[DUEL] Epoch ended. INSTR misses = 112, DATA misses = 103. Winner = DATA
[DUEL] Epoch ended. INSTR misses = 15, DATA misses = 11. Winner = DATA
[DUEL] Epoch ended. INSTR misses = 14, DATA misses = 4. Winner = DATA
Heartbeat CPU 0 instructions: 120000007 cycles: 128058949 heartbeat IPC: 0.8119 cumulative IPC: 0.7355 (Simulation time: 00 hr 14 min 05 sec)
[DUEL] Epoch ended. INSTR misses = 15, DATA misses = 11. Winner = DATA
[DUEL] Epoch ended. INSTR misses = 18, DATA misses = 29. Winner = INSTR
[DUEL] Epoch ended. INSTR misses = 42, DATA misses = 38. Winner = DATA
[DUEL] Epoch ended. INSTR misses = 13, DATA misses = 10. Winner = DATA
[DUEL] Epoch ended. INSTR misses = 61, DATA misses = 55. Winner = DATA
[DUEL] Epoch ended. INSTR misses = 26, DATA misses = 22. Winner = DATA
[DUEL] Epoch ended. INSTR misses = 5, DATA misses = 10. Winner = INSTR
[DUEL] Epoch ended. INSTR misses = 63, DATA misses = 43. Winner = DATA
[DUEL] Epoch ended. INSTR misses = 53, DATA misses = 64. Winner = INSTR
[DUEL] Epoch ended. INSTR misses = 77, DATA misses = 72. Winner = DATA
[DUEL] Epoch ended. INSTR misses = 57, DATA misses = 71. Winner = INSTR
[DUEL] Epoch ended. INSTR misses = 14, DATA misses = 2. Winner = DATA
[DUEL] Epoch ended. INSTR misses = 7, DATA misses = 3. Winner = DATA
[DUEL] Epoch ended. INSTR misses = 19, DATA misses = 10. Winner = DATA
[DUEL] Epoch ended. INSTR misses = 20, DATA misses = 29. Winner = INSTR
[DUEL] Epoch ended. INSTR misses = 58, DATA misses = 62. Winner = INSTR
[DUEL] Epoch ended. INSTR misses = 38, DATA misses = 35. Winner = DATA
[DUEL] Epoch ended. INSTR misses = 17, DATA misses = 5. Winner = DATA
[DUEL] Epoch ended. INSTR misses = 10, DATA misses = 13. Winner = INSTR
[DUEL] Epoch ended. INSTR misses = 63, DATA misses = 45. Winner = DATA
[DUEL] Epoch ended. INSTR misses = 65, DATA misses = 60. Winner = DATA
[DUEL] Epoch ended. INSTR misses = 9, DATA misses = 15. Winner = INSTR
[DUEL] Epoch ended. INSTR misses = 114, DATA misses = 135. Winner = INSTR
[DUEL] Epoch ended. INSTR misses = 27, DATA misses = 28. Winner = INSTR
[DUEL] Epoch ended. INSTR misses = 13, DATA misses = 4. Winner = DATA
[DUEL] Epoch ended. INSTR misses = 9, DATA misses = 4. Winner = DATA
[DUEL] Epoch ended. INSTR misses = 21, DATA misses = 24. Winner = INSTR
[DUEL] Epoch ended. INSTR misses = 22, DATA misses = 29. Winner = INSTR
[DUEL] Epoch ended. INSTR misses = 51, DATA misses = 52. Winner = INSTR
[DUEL] Epoch ended. INSTR misses = 41, DATA misses = 37. Winner = DATA
[DUEL] Epoch ended. INSTR misses = 13, DATA misses = 4. Winner = DATA
[DUEL] Epoch ended. INSTR misses = 18, DATA misses = 24. Winner = INSTR
[DUEL] Epoch ended. INSTR misses = 75, DATA misses = 48. Winner = DATA
[DUEL] Epoch ended. INSTR misses = 47, DATA misses = 61. Winner = INSTR
[DUEL] Epoch ended. INSTR misses = 37, DATA misses = 46. Winner = INSTR
[DUEL] Epoch ended. INSTR misses = 99, DATA misses = 98. Winner = DATA
[DUEL] Epoch ended. INSTR misses = 18, DATA misses = 11. Winner = DATA
[DUEL] Epoch ended. INSTR misses = 12, DATA misses = 4. Winner = DATA
[DUEL] Epoch ended. INSTR misses = 10, DATA misses = 2. Winner = DATA
Heartbeat CPU 0 instructions: 130000010 cycles: 138982920 heartbeat IPC: 0.9154 cumulative IPC: 0.7503 (Simulation time: 00 hr 15 min 14 sec)
Simulation finished CPU 0 instructions: 100000008 cycles: 133282034 cumulative IPC: 0.7503 (Simulation time: 00 hr 15 min 14 sec)
Simulation complete CPU 0 instructions: 100000008 cycles: 133282034 cumulative IPC: 0.7503 (Simulation time: 00 hr 15 min 14 sec)

ChampSim completed all CPUs

=== Simulation ===
CPU 0 runs ../traces/secret_traces/compute_fp/compute_fp_97.champsimtrace.xz
Region of Interest Statistics

CPU 0 cumulative IPC: 0.7503 instructions: 100000008 cycles: 133282034
CPU 0 Branch Prediction Accuracy: 93.25% MPKI: 11.98 Average ROB Occupancy at Mispredict: 36.64
Branch type MPKI
BRANCH_DIRECT_JUMP: 0.00894
BRANCH_INDIRECT: 0.199
BRANCH_CONDITIONAL: 11.7
BRANCH_DIRECT_CALL: 0.0222
BRANCH_INDIRECT_CALL: 0.00308
BRANCH_RETURN: 0.0124

LLC TOTAL        ACCESS:    6599529 HIT:    2707721 MISS:    3891808
LLC LOAD         ACCESS:    1551470 HIT:     668323 MISS:     883147
LLC RFO          ACCESS:     882776 HIT:     353192 MISS:     529584
LLC PREFETCH     ACCESS:    2567068 HIT:     749246 MISS:    1817822
LLC WRITE        ACCESS:    1545441 HIT:     933417 MISS:     612024
LLC TRANSLATION  ACCESS:      52774 HIT:       3543 MISS:      49231
LLC PREFETCH REQUESTED:          0 ISSUED:          0 USEFUL:          0 USELESS:          0
LLC AVERAGE MISS LATENCY: 357.9 cycles
cpu0_DTLB TOTAL        ACCESS:   26295970 HIT:   24890911 MISS:    1405059
cpu0_DTLB LOAD         ACCESS:   26295970 HIT:   24890911 MISS:    1405059
cpu0_DTLB RFO          ACCESS:          0 HIT:          0 MISS:          0
cpu0_DTLB PREFETCH     ACCESS:          0 HIT:          0 MISS:          0
cpu0_DTLB WRITE        ACCESS:          0 HIT:          0 MISS:          0
cpu0_DTLB TRANSLATION  ACCESS:          0 HIT:          0 MISS:          0
cpu0_DTLB PREFETCH REQUESTED:          0 ISSUED:          0 USEFUL:          0 USELESS:          0
cpu0_DTLB AVERAGE MISS LATENCY: 22.45 cycles
cpu0_ITLB TOTAL        ACCESS:     154551 HIT:     152867 MISS:       1684
cpu0_ITLB LOAD         ACCESS:     154551 HIT:     152867 MISS:       1684
cpu0_ITLB RFO          ACCESS:          0 HIT:          0 MISS:          0
cpu0_ITLB PREFETCH     ACCESS:          0 HIT:          0 MISS:          0
cpu0_ITLB WRITE        ACCESS:          0 HIT:          0 MISS:          0
cpu0_ITLB TRANSLATION  ACCESS:          0 HIT:          0 MISS:          0
cpu0_ITLB PREFETCH REQUESTED:          0 ISSUED:          0 USEFUL:          0 USELESS:          0
cpu0_ITLB AVERAGE MISS LATENCY: 78.71 cycles
cpu0_L1D TOTAL        ACCESS:   43404957 HIT:   31219004 MISS:   12185953
cpu0_L1D LOAD         ACCESS:   15759933 HIT:   11098925 MISS:    4661008
cpu0_L1D RFO          ACCESS:          0 HIT:          0 MISS:          0
cpu0_L1D PREFETCH     ACCESS:   18071230 HIT:   13688600 MISS:    4382630
cpu0_L1D WRITE        ACCESS:    9441171 HIT:    6399388 MISS:    3041783
cpu0_L1D TRANSLATION  ACCESS:     132623 HIT:      32091 MISS:     100532
cpu0_L1D PREFETCH REQUESTED:   57861326 ISSUED:   18071236 USEFUL:     500667 USELESS:     120346
cpu0_L1D AVERAGE MISS LATENCY: 63.82 cycles
cpu0_L1I TOTAL        ACCESS:     226372 HIT:     184595 MISS:      41777
cpu0_L1I LOAD         ACCESS:      74708 HIT:      63690 MISS:      11018
cpu0_L1I RFO          ACCESS:          0 HIT:          0 MISS:          0
cpu0_L1I PREFETCH     ACCESS:     151664 HIT:     120905 MISS:      30759
cpu0_L1I WRITE        ACCESS:          0 HIT:          0 MISS:          0
cpu0_L1I TRANSLATION  ACCESS:          0 HIT:          0 MISS:          0
cpu0_L1I PREFETCH REQUESTED:     210975 ISSUED:     151664 USEFUL:      17725 USELESS:      10704
cpu0_L1I AVERAGE MISS LATENCY: 144 cycles
cpu0_L2C TOTAL        ACCESS:   18379673 HIT:   11004182 MISS:    7375491
cpu0_L2C LOAD         ACCESS:    3562967 HIT:    1854959 MISS:    1708008
cpu0_L2C RFO          ACCESS:    1221557 HIT:     338686 MISS:     882871
cpu0_L2C PREFETCH     ACCESS:   11152046 HIT:    6420369 MISS:    4731677
cpu0_L2C WRITE        ACCESS:    2343927 HIT:    2343766 MISS:        161
cpu0_L2C TRANSLATION  ACCESS:      99176 HIT:      46402 MISS:      52774
cpu0_L2C PREFETCH REQUESTED:    7887991 ISSUED:    7208058 USEFUL:     756697 USELESS:    1012124
cpu0_L2C AVERAGE MISS LATENCY: 200 cycles
cpu0_STLB TOTAL        ACCESS:     954781 HIT:     823455 MISS:     131326
cpu0_STLB LOAD         ACCESS:     954781 HIT:     823455 MISS:     131326
cpu0_STLB RFO          ACCESS:          0 HIT:          0 MISS:          0
cpu0_STLB PREFETCH     ACCESS:          0 HIT:          0 MISS:          0
cpu0_STLB WRITE        ACCESS:          0 HIT:          0 MISS:          0
cpu0_STLB TRANSLATION  ACCESS:          0 HIT:          0 MISS:          0
cpu0_STLB PREFETCH REQUESTED:          0 ISSUED:          0 USEFUL:          0 USELESS:          0
cpu0_STLB AVERAGE MISS LATENCY: 209.7 cycles

DRAM Statistics

Channel 0 RQ ROW_BUFFER_HIT:     504462
  ROW_BUFFER_MISS:    1139816
 AVG DBUS CONGESTED CYCLE: 3.934
WQ ROW_BUFFER_HIT: Channel 0 
  ROW_BUFFER_MISS:      33354
  FULL:     362326

Channel 1 RQ ROW_BUFFER_HIT:     502083
  ROW_BUFFER_MISS:    1131160
 AVG DBUS CONGESTED CYCLE: 3.931
WQ ROW_BUFFER_HIT: Channel 1 
  ROW_BUFFER_MISS:      33605
  FULL:     363676
BERTI TO_L1: 31916617 TO_L2: 37345252 TO_L2_BC_MSHR: 14336191
BERTI AVG_LAT: 130.017 NUM_TRACK_LATENCY: 5375357 NUM_CANT_TRACK_LATENCY: 700
BERTI CROSS_PAGE 9299001 NO_CROSS_PAGE: 59962868
BERTI FOUND_BERTI: 30102761 NO_FOUND_BERTI: 4405043
BERTI AVERAGE_ISSUED: 4.04968
CPU 0 L1I Entangling prefetcher final stats
IP accesses: 38ae e2b80 666 / 89350
IP misses: 38ae e2b80 661 / 25660
IP hits: 0 0 0 / 0
IP late: 5aed 16bb40 17 / 5289
IP wrong: e8e9 3a3a40 25 / 10650
miss rate: 0.287186
coverage: 0
coverage_late: 0.206119
accuracy: 0
accuracy_late: 0.331828
discarded: 0
evicts entangled j table: 0
evicts entangled k table: 1497
max bb size: 65
formats: 379 0 1369 743 329 728 0 
hist_lookups: 1304 1352 1006 848 744 609 455 353 305 251 199 131 90 51 15 0 3 3383 
hist_lookups_evict: 0.0270295 %
hist_lookups_shortlat: 30.4803 %
bb_found_hist: 0 16602 7919 4108 1637 804 331 262 123 62 91 38 12 30 7 0 17 0 0 0 0 0 1 0 0 0 0 0 0 0 0 0 0 0 0 0 0 0 0 0 0 0 0 0 0 0 0 0 0 2 0 0 0 0 0 0 0 0 0 0 0 0 0 0 
bb_found_summary: 63046 32046 1.96736
entangled_found_hist: 0 9623 6281 10024 3193 410 61 0 
entangled_found_summary: 67445 29592 2.27917
bb_ent_found_hist: 0 21416 12142 6601 2784 1441 728 390 374 189 45 201 0 11 1 0 0 0 0 0 0 0 0 0 0 0 0 0 0 0 0 0 0 0 0 0 0 0 0 0 0 0 0 0 0 0 0 0 0 4 0 0 0 0 0 0 0 0 0 0 0 0 0 0 
bb_ent_found_summary: 98649 46327 2.12941
