WARNING: physical memory size is smaller than virtual memory size.

*** ChampSim Multicore Out-of-Order Simulator ***
Warmup Instructions: 30000000
Simulation Instructions: 100000000
Number of CPUs: 1
Page size: 4096

BTB:
Basic BTB sets: 1024 ways: 8
Indirect:
history lengths: 0 0 10 16 27 44 60 96 109 219 449 487 714 1313 2146 3881 
ITTAGE tables: 64768 bytes;Region table: 240 bytes;IUM: 384 bytes;Total Storage= 65392 bytes;
RAS:
RAS size: 64
[LLC] INSTR Demand IPV: 1 2 2 1 4 Prefetch IPV: 1 2 1 1 4
[LLC] DATA  Demand IPV: 1 1 1 2 4 Prefetch IPV: 1 1 2 2 4
Berti Prefetcher
CPU 0 Entangling prefetcher
Off-chip DRAM Size: 8 GiB Channels: 2 Width: 64-bit Data Race: 6400 MT/s
[DUEL] Epoch ended. INSTR misses = 17, DATA misses = 10. Winner = DATA
[DUEL] Epoch ended. INSTR misses = 140, DATA misses = 136. Winner = DATA
[DUEL] Epoch ended. INSTR misses = 53, DATA misses = 46. Winner = DATA
[DUEL] Epoch ended. INSTR misses = 45, DATA misses = 47. Winner = INSTR
[DUEL] Epoch ended. INSTR misses = 38, DATA misses = 47. Winner = INSTR
[DUEL] Epoch ended. INSTR misses = 30, DATA misses = 30. Winner = INSTR
[DUEL] Epoch ended. INSTR misses = 37, DATA misses = 41. Winner = INSTR
[DUEL] Epoch ended. INSTR misses = 39, DATA misses = 41. Winner = INSTR
[DUEL] Epoch ended. INSTR misses = 62, DATA misses = 53. Winner = DATA
[DUEL] Epoch ended. INSTR misses = 77, DATA misses = 33. Winner = DATA
[DUEL] Epoch ended. INSTR misses = 39, DATA misses = 52. Winner = INSTR
[DUEL] Epoch ended. INSTR misses = 56, DATA misses = 62. Winner = INSTR
[DUEL] Epoch ended. INSTR misses = 40, DATA misses = 31. Winner = DATA
[DUEL] Epoch ended. INSTR misses = 65, DATA misses = 84. Winner = INSTR
[DUEL] Epoch ended. INSTR misses = 31, DATA misses = 38. Winner = INSTR
[DUEL] Epoch ended. INSTR misses = 73, DATA misses = 82. Winner = INSTR
[DUEL] Epoch ended. INSTR misses = 37, DATA misses = 27. Winner = DATA
[DUEL] Epoch ended. INSTR misses = 56, DATA misses = 34. Winner = DATA
[DUEL] Epoch ended. INSTR misses = 48, DATA misses = 52. Winner = INSTR
[DUEL] Epoch ended. INSTR misses = 33, DATA misses = 30. Winner = DATA
[DUEL] Epoch ended. INSTR misses = 54, DATA misses = 46. Winner = DATA
[DUEL] Epoch ended. INSTR misses = 31, DATA misses = 28. Winner = DATA
[DUEL] Epoch ended. INSTR misses = 57, DATA misses = 44. Winner = DATA
[DUEL] Epoch ended. INSTR misses = 26, DATA misses = 36. Winner = INSTR
[DUEL] Epoch ended. INSTR misses = 30, DATA misses = 51. Winner = INSTR
[DUEL] Epoch ended. INSTR misses = 33, DATA misses = 37. Winner = INSTR
[DUEL] Epoch ended. INSTR misses = 49, DATA misses = 51. Winner = INSTR
[DUEL] Epoch ended. INSTR misses = 31, DATA misses = 24. Winner = DATA
[DUEL] Epoch ended. INSTR misses = 68, DATA misses = 65. Winner = DATA
[DUEL] Epoch ended. INSTR misses = 45, DATA misses = 49. Winner = INSTR
[DUEL] Epoch ended. INSTR misses = 32, DATA misses = 40. Winner = INSTR
[DUEL] Epoch ended. INSTR misses = 34, DATA misses = 31. Winner = DATA
[DUEL] Epoch ended. INSTR misses = 79, DATA misses = 81. Winner = INSTR
[DUEL] Epoch ended. INSTR misses = 47, DATA misses = 65. Winner = INSTR
[DUEL] Epoch ended. INSTR misses = 50, DATA misses = 46. Winner = DATA
[DUEL] Epoch ended. INSTR misses = 81, DATA misses = 67. Winner = DATA
[DUEL] Epoch ended. INSTR misses = 23, DATA misses = 44. Winner = INSTR
[DUEL] Epoch ended. INSTR misses = 68, DATA misses = 57. Winner = DATA
[DUEL] Epoch ended. INSTR misses = 27, DATA misses = 33. Winner = INSTR
Heartbeat CPU 0 instructions: 10000006 cycles: 1717138 heartbeat IPC: 5.824 cumulative IPC: 5.824 (Simulation time: 00 hr 00 min 26 sec)
[DUEL] Epoch ended. INSTR misses = 62, DATA misses = 52. Winner = DATA
[DUEL] Epoch ended. INSTR misses = 49, DATA misses = 40. Winner = DATA
[DUEL] Epoch ended. INSTR misses = 51, DATA misses = 53. Winner = INSTR
[DUEL] Epoch ended. INSTR misses = 36, DATA misses = 30. Winner = DATA
[DUEL] Epoch ended. INSTR misses = 44, DATA misses = 22. Winner = DATA
[DUEL] Epoch ended. INSTR misses = 48, DATA misses = 50. Winner = INSTR
[DUEL] Epoch ended. INSTR misses = 32, DATA misses = 36. Winner = INSTR
[DUEL] Epoch ended. INSTR misses = 41, DATA misses = 36. Winner = DATA
[DUEL] Epoch ended. INSTR misses = 31, DATA misses = 37. Winner = INSTR
[DUEL] Epoch ended. INSTR misses = 33, DATA misses = 39. Winner = INSTR
[DUEL] Epoch ended. INSTR misses = 20, DATA misses = 49. Winner = INSTR
[DUEL] Epoch ended. INSTR misses = 52, DATA misses = 38. Winner = DATA
[DUEL] Epoch ended. INSTR misses = 30, DATA misses = 41. Winner = INSTR
[DUEL] Epoch ended. INSTR misses = 60, DATA misses = 60. Winner = INSTR
[DUEL] Epoch ended. INSTR misses = 52, DATA misses = 48. Winner = DATA
[DUEL] Epoch ended. INSTR misses = 49, DATA misses = 29. Winner = DATA
[DUEL] Epoch ended. INSTR misses = 26, DATA misses = 51. Winner = INSTR
[DUEL] Epoch ended. INSTR misses = 34, DATA misses = 35. Winner = INSTR
[DUEL] Epoch ended. INSTR misses = 44, DATA misses = 35. Winner = DATA
[DUEL] Epoch ended. INSTR misses = 22, DATA misses = 39. Winner = INSTR
[DUEL] Epoch ended. INSTR misses = 62, DATA misses = 50. Winner = DATA
[DUEL] Epoch ended. INSTR misses = 42, DATA misses = 29. Winner = DATA
[DUEL] Epoch ended. INSTR misses = 41, DATA misses = 48. Winner = INSTR
[DUEL] Epoch ended. INSTR misses = 45, DATA misses = 40. Winner = DATA
[DUEL] Epoch ended. INSTR misses = 34, DATA misses = 37. Winner = INSTR
[DUEL] Epoch ended. INSTR misses = 37, DATA misses = 28. Winner = DATA
[DUEL] Epoch ended. INSTR misses = 46, DATA misses = 45. Winner = DATA
[DUEL] Epoch ended. INSTR misses = 27, DATA misses = 33. Winner = INSTR
[DUEL] Epoch ended. INSTR misses = 58, DATA misses = 41. Winner = DATA
[DUEL] Epoch ended. INSTR misses = 44, DATA misses = 28. Winner = DATA
[DUEL] Epoch ended. INSTR misses = 57, DATA misses = 61. Winner = INSTR
[DUEL] Epoch ended. INSTR misses = 36, DATA misses = 35. Winner = DATA
[DUEL] Epoch ended. INSTR misses = 40, DATA misses = 56. Winner = INSTR
[DUEL] Epoch ended. INSTR misses = 48, DATA misses = 50. Winner = INSTR
[DUEL] Epoch ended. INSTR misses = 19, DATA misses = 41. Winner = INSTR
[DUEL] Epoch ended. INSTR misses = 51, DATA misses = 58. Winner = INSTR
[DUEL] Epoch ended. INSTR misses = 56, DATA misses = 62. Winner = INSTR
[DUEL] Epoch ended. INSTR misses = 58, DATA misses = 63. Winner = INSTR
[DUEL] Epoch ended. INSTR misses = 36, DATA misses = 53. Winner = INSTR
Heartbeat CPU 0 instructions: 20000009 cycles: 3385558 heartbeat IPC: 5.994 cumulative IPC: 5.907 (Simulation time: 00 hr 00 min 52 sec)
[DUEL] Epoch ended. INSTR misses = 75, DATA misses = 64. Winner = DATA
[DUEL] Epoch ended. INSTR misses = 38, DATA misses = 37. Winner = DATA
[DUEL] Epoch ended. INSTR misses = 67, DATA misses = 56. Winner = DATA
[DUEL] Epoch ended. INSTR misses = 59, DATA misses = 57. Winner = DATA
[DUEL] Epoch ended. INSTR misses = 45, DATA misses = 37. Winner = DATA
[DUEL] Epoch ended. INSTR misses = 33, DATA misses = 37. Winner = INSTR
[DUEL] Epoch ended. INSTR misses = 41, DATA misses = 37. Winner = DATA
[DUEL] Epoch ended. INSTR misses = 58, DATA misses = 52. Winner = DATA
[DUEL] Epoch ended. INSTR misses = 64, DATA misses = 62. Winner = DATA
[DUEL] Epoch ended. INSTR misses = 54, DATA misses = 31. Winner = DATA
[DUEL] Epoch ended. INSTR misses = 40, DATA misses = 43. Winner = INSTR
[DUEL] Epoch ended. INSTR misses = 67, DATA misses = 60. Winner = DATA
[DUEL] Epoch ended. INSTR misses = 58, DATA misses = 49. Winner = DATA
[DUEL] Epoch ended. INSTR misses = 55, DATA misses = 57. Winner = INSTR
[DUEL] Epoch ended. INSTR misses = 61, DATA misses = 55. Winner = DATA
[DUEL] Epoch ended. INSTR misses = 40, DATA misses = 58. Winner = INSTR
[DUEL] Epoch ended. INSTR misses = 71, DATA misses = 60. Winner = DATA
[DUEL] Epoch ended. INSTR misses = 28, DATA misses = 51. Winner = INSTR
[DUEL] Epoch ended. INSTR misses = 42, DATA misses = 34. Winner = DATA
[DUEL] Epoch ended. INSTR misses = 40, DATA misses = 45. Winner = INSTR
[DUEL] Epoch ended. INSTR misses = 35, DATA misses = 33. Winner = DATA
[DUEL] Epoch ended. INSTR misses = 45, DATA misses = 40. Winner = DATA
[DUEL] Epoch ended. INSTR misses = 35, DATA misses = 44. Winner = INSTR
[DUEL] Epoch ended. INSTR misses = 198, DATA misses = 221. Winner = INSTR
[DUEL] Epoch ended. INSTR misses = 244, DATA misses = 239. Winner = DATA
[DUEL] Epoch ended. INSTR misses = 241, DATA misses = 280. Winner = INSTR
[DUEL] Epoch ended. INSTR misses = 278, DATA misses = 233. Winner = DATA
[DUEL] Epoch ended. INSTR misses = 268, DATA misses = 251. Winner = DATA
[DUEL] Epoch ended. INSTR misses = 211, DATA misses = 206. Winner = DATA
[DUEL] Epoch ended. INSTR misses = 221, DATA misses = 229. Winner = INSTR
[DUEL] Epoch ended. INSTR misses = 243, DATA misses = 247. Winner = INSTR
[DUEL] Epoch ended. INSTR misses = 286, DATA misses = 274. Winner = DATA
[DUEL] Epoch ended. INSTR misses = 241, DATA misses = 262. Winner = INSTR
[DUEL] Epoch ended. INSTR misses = 218, DATA misses = 210. Winner = DATA
[DUEL] Epoch ended. INSTR misses = 193, DATA misses = 221. Winner = INSTR
[DUEL] Epoch ended. INSTR misses = 177, DATA misses = 168. Winner = DATA
[DUEL] Epoch ended. INSTR misses = 248, DATA misses = 221. Winner = DATA
[DUEL] Epoch ended. INSTR misses = 68, DATA misses = 68. Winner = INSTR
[DUEL] Epoch ended. INSTR misses = 27, DATA misses = 40. Winner = INSTR
Heartbeat CPU 0 instructions: 30000008 cycles: 5491903 heartbeat IPC: 4.748 cumulative IPC: 5.463 (Simulation time: 00 hr 01 min 29 sec)
Warmup finished CPU 0 instructions: 30000008 cycles: 5491904 cumulative IPC: 5.463 (Simulation time: 00 hr 01 min 29 sec)
Warmup complete CPU 0 instructions: 30000008 cycles: 5491904 cumulative IPC: 5.463 (Simulation time: 00 hr 01 min 29 sec)
[DUEL] Epoch ended. INSTR misses = 56, DATA misses = 55. Winner = DATA
[DUEL] Epoch ended. INSTR misses = 60, DATA misses = 37. Winner = DATA
[DUEL] Epoch ended. INSTR misses = 42, DATA misses = 45. Winner = INSTR
[DUEL] Epoch ended. INSTR misses = 39, DATA misses = 43. Winner = INSTR
[DUEL] Epoch ended. INSTR misses = 49, DATA misses = 32. Winner = DATA
[DUEL] Epoch ended. INSTR misses = 37, DATA misses = 43. Winner = INSTR
[DUEL] Epoch ended. INSTR misses = 39, DATA misses = 43. Winner = INSTR
[DUEL] Epoch ended. INSTR misses = 44, DATA misses = 57. Winner = INSTR
[DUEL] Epoch ended. INSTR misses = 43, DATA misses = 42. Winner = DATA
[DUEL] Epoch ended. INSTR misses = 43, DATA misses = 55. Winner = INSTR
[DUEL] Epoch ended. INSTR misses = 52, DATA misses = 58. Winner = INSTR
[DUEL] Epoch ended. INSTR misses = 61, DATA misses = 57. Winner = DATA
[DUEL] Epoch ended. INSTR misses = 55, DATA misses = 76. Winner = INSTR
[DUEL] Epoch ended. INSTR misses = 37, DATA misses = 53. Winner = INSTR
[DUEL] Epoch ended. INSTR misses = 36, DATA misses = 73. Winner = INSTR
[DUEL] Epoch ended. INSTR misses = 77, DATA misses = 53. Winner = DATA
[DUEL] Epoch ended. INSTR misses = 38, DATA misses = 41. Winner = INSTR
[DUEL] Epoch ended. INSTR misses = 56, DATA misses = 35. Winner = DATA
[DUEL] Epoch ended. INSTR misses = 57, DATA misses = 61. Winner = INSTR
[DUEL] Epoch ended. INSTR misses = 72, DATA misses = 99. Winner = INSTR
[DUEL] Epoch ended. INSTR misses = 62, DATA misses = 54. Winner = DATA
[DUEL] Epoch ended. INSTR misses = 33, DATA misses = 50. Winner = INSTR
[DUEL] Epoch ended. INSTR misses = 51, DATA misses = 57. Winner = INSTR
[DUEL] Epoch ended. INSTR misses = 66, DATA misses = 53. Winner = DATA
[DUEL] Epoch ended. INSTR misses = 55, DATA misses = 40. Winner = DATA
[DUEL] Epoch ended. INSTR misses = 57, DATA misses = 39. Winner = DATA
[DUEL] Epoch ended. INSTR misses = 52, DATA misses = 77. Winner = INSTR
[DUEL] Epoch ended. INSTR misses = 50, DATA misses = 35. Winner = DATA
[DUEL] Epoch ended. INSTR misses = 69, DATA misses = 62. Winner = DATA
[DUEL] Epoch ended. INSTR misses = 31, DATA misses = 37. Winner = INSTR
[DUEL] Epoch ended. INSTR misses = 41, DATA misses = 46. Winner = INSTR
[DUEL] Epoch ended. INSTR misses = 56, DATA misses = 67. Winner = INSTR
[DUEL] Epoch ended. INSTR misses = 58, DATA misses = 37. Winner = DATA
[DUEL] Epoch ended. INSTR misses = 66, DATA misses = 70. Winner = INSTR
[DUEL] Epoch ended. INSTR misses = 47, DATA misses = 52. Winner = INSTR
[DUEL] Epoch ended. INSTR misses = 36, DATA misses = 38. Winner = INSTR
[DUEL] Epoch ended. INSTR misses = 80, DATA misses = 68. Winner = DATA
[DUEL] Epoch ended. INSTR misses = 41, DATA misses = 49. Winner = INSTR
[DUEL] Epoch ended. INSTR misses = 41, DATA misses = 41. Winner = INSTR
Heartbeat CPU 0 instructions: 40000008 cycles: 26686629 heartbeat IPC: 0.4718 cumulative IPC: 0.4718 (Simulation time: 00 hr 04 min 12 sec)
[DUEL] Epoch ended. INSTR misses = 46, DATA misses = 47. Winner = INSTR
[DUEL] Epoch ended. INSTR misses = 50, DATA misses = 56. Winner = INSTR
[DUEL] Epoch ended. INSTR misses = 36, DATA misses = 34. Winner = DATA
[DUEL] Epoch ended. INSTR misses = 46, DATA misses = 44. Winner = DATA
[DUEL] Epoch ended. INSTR misses = 61, DATA misses = 61. Winner = INSTR
[DUEL] Epoch ended. INSTR misses = 36, DATA misses = 44. Winner = INSTR
[DUEL] Epoch ended. INSTR misses = 57, DATA misses = 64. Winner = INSTR
[DUEL] Epoch ended. INSTR misses = 38, DATA misses = 42. Winner = INSTR
[DUEL] Epoch ended. INSTR misses = 47, DATA misses = 44. Winner = DATA
[DUEL] Epoch ended. INSTR misses = 56, DATA misses = 61. Winner = INSTR
[DUEL] Epoch ended. INSTR misses = 48, DATA misses = 45. Winner = DATA
[DUEL] Epoch ended. INSTR misses = 48, DATA misses = 44. Winner = DATA
[DUEL] Epoch ended. INSTR misses = 61, DATA misses = 58. Winner = DATA
[DUEL] Epoch ended. INSTR misses = 38, DATA misses = 50. Winner = INSTR
[DUEL] Epoch ended. INSTR misses = 46, DATA misses = 39. Winner = DATA
[DUEL] Epoch ended. INSTR misses = 32, DATA misses = 48. Winner = INSTR
[DUEL] Epoch ended. INSTR misses = 58, DATA misses = 64. Winner = INSTR
[DUEL] Epoch ended. INSTR misses = 43, DATA misses = 40. Winner = DATA
[DUEL] Epoch ended. INSTR misses = 65, DATA misses = 61. Winner = DATA
[DUEL] Epoch ended. INSTR misses = 51, DATA misses = 38. Winner = DATA
[DUEL] Epoch ended. INSTR misses = 77, DATA misses = 63. Winner = DATA
[DUEL] Epoch ended. INSTR misses = 47, DATA misses = 42. Winner = DATA
[DUEL] Epoch ended. INSTR misses = 60, DATA misses = 68. Winner = INSTR
[DUEL] Epoch ended. INSTR misses = 42, DATA misses = 40. Winner = DATA
[DUEL] Epoch ended. INSTR misses = 42, DATA misses = 52. Winner = INSTR
[DUEL] Epoch ended. INSTR misses = 35, DATA misses = 59. Winner = INSTR
[DUEL] Epoch ended. INSTR misses = 54, DATA misses = 53. Winner = DATA
[DUEL] Epoch ended. INSTR misses = 40, DATA misses = 27. Winner = DATA
[DUEL] Epoch ended. INSTR misses = 58, DATA misses = 46. Winner = DATA
[DUEL] Epoch ended. INSTR misses = 59, DATA misses = 60. Winner = INSTR
[DUEL] Epoch ended. INSTR misses = 39, DATA misses = 35. Winner = DATA
[DUEL] Epoch ended. INSTR misses = 65, DATA misses = 61. Winner = DATA
[DUEL] Epoch ended. INSTR misses = 55, DATA misses = 49. Winner = DATA
[DUEL] Epoch ended. INSTR misses = 61, DATA misses = 74. Winner = INSTR
[DUEL] Epoch ended. INSTR misses = 54, DATA misses = 34. Winner = DATA
[DUEL] Epoch ended. INSTR misses = 63, DATA misses = 73. Winner = INSTR
[DUEL] Epoch ended. INSTR misses = 37, DATA misses = 42. Winner = INSTR
[DUEL] Epoch ended. INSTR misses = 39, DATA misses = 52. Winner = INSTR
[DUEL] Epoch ended. INSTR misses = 63, DATA misses = 62. Winner = DATA
Heartbeat CPU 0 instructions: 50000004 cycles: 46040673 heartbeat IPC: 0.5167 cumulative IPC: 0.4932 (Simulation time: 00 hr 06 min 43 sec)
[DUEL] Epoch ended. INSTR misses = 34, DATA misses = 46. Winner = INSTR
[DUEL] Epoch ended. INSTR misses = 66, DATA misses = 71. Winner = INSTR
[DUEL] Epoch ended. INSTR misses = 37, DATA misses = 52. Winner = INSTR
[DUEL] Epoch ended. INSTR misses = 76, DATA misses = 67. Winner = DATA
[DUEL] Epoch ended. INSTR misses = 37, DATA misses = 53. Winner = INSTR
[DUEL] Epoch ended. INSTR misses = 66, DATA misses = 55. Winner = DATA
[DUEL] Epoch ended. INSTR misses = 51, DATA misses = 41. Winner = DATA
[DUEL] Epoch ended. INSTR misses = 57, DATA misses = 49. Winner = DATA
[DUEL] Epoch ended. INSTR misses = 46, DATA misses = 62. Winner = INSTR
[DUEL] Epoch ended. INSTR misses = 39, DATA misses = 34. Winner = DATA
[DUEL] Epoch ended. INSTR misses = 59, DATA misses = 66. Winner = INSTR
[DUEL] Epoch ended. INSTR misses = 53, DATA misses = 37. Winner = DATA
[DUEL] Epoch ended. INSTR misses = 71, DATA misses = 77. Winner = INSTR
[DUEL] Epoch ended. INSTR misses = 50, DATA misses = 35. Winner = DATA
[DUEL] Epoch ended. INSTR misses = 70, DATA misses = 55. Winner = DATA
[DUEL] Epoch ended. INSTR misses = 49, DATA misses = 40. Winner = DATA
[DUEL] Epoch ended. INSTR misses = 51, DATA misses = 73. Winner = INSTR
[DUEL] Epoch ended. INSTR misses = 52, DATA misses = 41. Winner = DATA
[DUEL] Epoch ended. INSTR misses = 40, DATA misses = 46. Winner = INSTR
[DUEL] Epoch ended. INSTR misses = 60, DATA misses = 64. Winner = INSTR
[DUEL] Epoch ended. INSTR misses = 28, DATA misses = 55. Winner = INSTR
[DUEL] Epoch ended. INSTR misses = 66, DATA misses = 58. Winner = DATA
[DUEL] Epoch ended. INSTR misses = 41, DATA misses = 47. Winner = INSTR
[DUEL] Epoch ended. INSTR misses = 79, DATA misses = 61. Winner = DATA
[DUEL] Epoch ended. INSTR misses = 46, DATA misses = 50. Winner = INSTR
[DUEL] Epoch ended. INSTR misses = 69, DATA misses = 52. Winner = DATA
[DUEL] Epoch ended. INSTR misses = 31, DATA misses = 52. Winner = INSTR
[DUEL] Epoch ended. INSTR misses = 43, DATA misses = 47. Winner = INSTR
[DUEL] Epoch ended. INSTR misses = 68, DATA misses = 63. Winner = DATA
[DUEL] Epoch ended. INSTR misses = 41, DATA misses = 57. Winner = INSTR
[DUEL] Epoch ended. INSTR misses = 72, DATA misses = 55. Winner = DATA
[DUEL] Epoch ended. INSTR misses = 42, DATA misses = 49. Winner = INSTR
[DUEL] Epoch ended. INSTR misses = 67, DATA misses = 76. Winner = INSTR
[DUEL] Epoch ended. INSTR misses = 48, DATA misses = 38. Winner = DATA
[DUEL] Epoch ended. INSTR misses = 67, DATA misses = 77. Winner = INSTR
[DUEL] Epoch ended. INSTR misses = 54, DATA misses = 41. Winner = DATA
[DUEL] Epoch ended. INSTR misses = 59, DATA misses = 64. Winner = INSTR
[DUEL] Epoch ended. INSTR misses = 40, DATA misses = 49. Winner = INSTR
[DUEL] Epoch ended. INSTR misses = 58, DATA misses = 19. Winner = DATA
Heartbeat CPU 0 instructions: 60000006 cycles: 64469494 heartbeat IPC: 0.5426 cumulative IPC: 0.5087 (Simulation time: 00 hr 09 min 09 sec)
[DUEL] Epoch ended. INSTR misses = 68, DATA misses = 65. Winner = DATA
[DUEL] Epoch ended. INSTR misses = 40, DATA misses = 34. Winner = DATA
[DUEL] Epoch ended. INSTR misses = 60, DATA misses = 70. Winner = INSTR
[DUEL] Epoch ended. INSTR misses = 42, DATA misses = 44. Winner = INSTR
[DUEL] Epoch ended. INSTR misses = 60, DATA misses = 68. Winner = INSTR
[DUEL] Epoch ended. INSTR misses = 35, DATA misses = 37. Winner = INSTR
[DUEL] Epoch ended. INSTR misses = 60, DATA misses = 66. Winner = INSTR
[DUEL] Epoch ended. INSTR misses = 37, DATA misses = 49. Winner = INSTR
[DUEL] Epoch ended. INSTR misses = 29, DATA misses = 57. Winner = INSTR
[DUEL] Epoch ended. INSTR misses = 67, DATA misses = 65. Winner = DATA
[DUEL] Epoch ended. INSTR misses = 57, DATA misses = 26. Winner = DATA
[DUEL] Epoch ended. INSTR misses = 63, DATA misses = 64. Winner = INSTR
[DUEL] Epoch ended. INSTR misses = 36, DATA misses = 37. Winner = INSTR
[DUEL] Epoch ended. INSTR misses = 77, DATA misses = 61. Winner = DATA
[DUEL] Epoch ended. INSTR misses = 34, DATA misses = 44. Winner = INSTR
[DUEL] Epoch ended. INSTR misses = 70, DATA misses = 71. Winner = INSTR
[DUEL] Epoch ended. INSTR misses = 41, DATA misses = 43. Winner = INSTR
[DUEL] Epoch ended. INSTR misses = 59, DATA misses = 80. Winner = INSTR
[DUEL] Epoch ended. INSTR misses = 35, DATA misses = 50. Winner = INSTR
[DUEL] Epoch ended. INSTR misses = 57, DATA misses = 46. Winner = DATA
[DUEL] Epoch ended. INSTR misses = 54, DATA misses = 59. Winner = INSTR
[DUEL] Epoch ended. INSTR misses = 47, DATA misses = 38. Winner = DATA
[DUEL] Epoch ended. INSTR misses = 63, DATA misses = 55. Winner = DATA
[DUEL] Epoch ended. INSTR misses = 39, DATA misses = 35. Winner = DATA
[DUEL] Epoch ended. INSTR misses = 85, DATA misses = 67. Winner = DATA
[DUEL] Epoch ended. INSTR misses = 40, DATA misses = 48. Winner = INSTR
[DUEL] Epoch ended. INSTR misses = 63, DATA misses = 61. Winner = DATA
[DUEL] Epoch ended. INSTR misses = 38, DATA misses = 40. Winner = INSTR
[DUEL] Epoch ended. INSTR misses = 35, DATA misses = 58. Winner = INSTR
[DUEL] Epoch ended. INSTR misses = 66, DATA misses = 60. Winner = DATA
[DUEL] Epoch ended. INSTR misses = 40, DATA misses = 37. Winner = DATA
[DUEL] Epoch ended. INSTR misses = 55, DATA misses = 81. Winner = INSTR
[DUEL] Epoch ended. INSTR misses = 76, DATA misses = 61. Winner = DATA
[DUEL] Epoch ended. INSTR misses = 45, DATA misses = 42. Winner = DATA
[DUEL] Epoch ended. INSTR misses = 100, DATA misses = 96. Winner = DATA
[DUEL] Epoch ended. INSTR misses = 33, DATA misses = 18. Winner = DATA
[DUEL] Epoch ended. INSTR misses = 49, DATA misses = 33. Winner = DATA
[DUEL] Epoch ended. INSTR misses = 52, DATA misses = 77. Winner = INSTR
[DUEL] Epoch ended. INSTR misses = 19, DATA misses = 51. Winner = INSTR
Heartbeat CPU 0 instructions: 70000011 cycles: 82619208 heartbeat IPC: 0.551 cumulative IPC: 0.5186 (Simulation time: 00 hr 11 min 33 sec)
[DUEL] Epoch ended. INSTR misses = 89, DATA misses = 84. Winner = DATA
[DUEL] Epoch ended. INSTR misses = 18, DATA misses = 24. Winner = INSTR
[DUEL] Epoch ended. INSTR misses = 71, DATA misses = 61. Winner = DATA
[DUEL] Epoch ended. INSTR misses = 56, DATA misses = 57. Winner = INSTR
[DUEL] Epoch ended. INSTR misses = 62, DATA misses = 64. Winner = INSTR
[DUEL] Epoch ended. INSTR misses = 109, DATA misses = 98. Winner = DATA
[DUEL] Epoch ended. INSTR misses = 58, DATA misses = 60. Winner = INSTR
[DUEL] Epoch ended. INSTR misses = 94, DATA misses = 92. Winner = DATA
[DUEL] Epoch ended. INSTR misses = 50, DATA misses = 48. Winner = DATA
[DUEL] Epoch ended. INSTR misses = 62, DATA misses = 64. Winner = INSTR
[DUEL] Epoch ended. INSTR misses = 84, DATA misses = 96. Winner = INSTR
[DUEL] Epoch ended. INSTR misses = 72, DATA misses = 50. Winner = DATA
[DUEL] Epoch ended. INSTR misses = 34, DATA misses = 46. Winner = INSTR
[DUEL] Epoch ended. INSTR misses = 129, DATA misses = 124. Winner = DATA
[DUEL] Epoch ended. INSTR misses = 54, DATA misses = 61. Winner = INSTR
[DUEL] Epoch ended. INSTR misses = 121, DATA misses = 109. Winner = DATA
[DUEL] Epoch ended. INSTR misses = 42, DATA misses = 48. Winner = INSTR
[DUEL] Epoch ended. INSTR misses = 65, DATA misses = 61. Winner = DATA
[DUEL] Epoch ended. INSTR misses = 59, DATA misses = 72. Winner = INSTR
[DUEL] Epoch ended. INSTR misses = 60, DATA misses = 59. Winner = DATA
[DUEL] Epoch ended. INSTR misses = 108, DATA misses = 82. Winner = DATA
[DUEL] Epoch ended. INSTR misses = 69, DATA misses = 84. Winner = INSTR
[DUEL] Epoch ended. INSTR misses = 23, DATA misses = 33. Winner = INSTR
[DUEL] Epoch ended. INSTR misses = 79, DATA misses = 90. Winner = INSTR
[DUEL] Epoch ended. INSTR misses = 49, DATA misses = 31. Winner = DATA
[DUEL] Epoch ended. INSTR misses = 33, DATA misses = 32. Winner = DATA
[DUEL] Epoch ended. INSTR misses = 55, DATA misses = 48. Winner = DATA
[DUEL] Epoch ended. INSTR misses = 95, DATA misses = 83. Winner = DATA
[DUEL] Epoch ended. INSTR misses = 33, DATA misses = 45. Winner = INSTR
[DUEL] Epoch ended. INSTR misses = 50, DATA misses = 49. Winner = DATA
[DUEL] Epoch ended. INSTR misses = 44, DATA misses = 48. Winner = INSTR
[DUEL] Epoch ended. INSTR misses = 81, DATA misses = 87. Winner = INSTR
[DUEL] Epoch ended. INSTR misses = 95, DATA misses = 80. Winner = DATA
[DUEL] Epoch ended. INSTR misses = 65, DATA misses = 76. Winner = INSTR
[DUEL] Epoch ended. INSTR misses = 62, DATA misses = 63. Winner = INSTR
[DUEL] Epoch ended. INSTR misses = 94, DATA misses = 94. Winner = INSTR
[DUEL] Epoch ended. INSTR misses = 64, DATA misses = 64. Winner = INSTR
[DUEL] Epoch ended. INSTR misses = 73, DATA misses = 68. Winner = DATA
[DUEL] Epoch ended. INSTR misses = 49, DATA misses = 37. Winner = DATA
Heartbeat CPU 0 instructions: 80000004 cycles: 99747292 heartbeat IPC: 0.5838 cumulative IPC: 0.5305 (Simulation time: 00 hr 13 min 55 sec)
[DUEL] Epoch ended. INSTR misses = 66, DATA misses = 89. Winner = INSTR
[DUEL] Epoch ended. INSTR misses = 43, DATA misses = 68. Winner = INSTR
[DUEL] Epoch ended. INSTR misses = 62, DATA misses = 38. Winner = DATA
[DUEL] Epoch ended. INSTR misses = 78, DATA misses = 88. Winner = INSTR
[DUEL] Epoch ended. INSTR misses = 38, DATA misses = 43. Winner = INSTR
[DUEL] Epoch ended. INSTR misses = 82, DATA misses = 70. Winner = DATA
[DUEL] Epoch ended. INSTR misses = 64, DATA misses = 58. Winner = DATA
[DUEL] Epoch ended. INSTR misses = 80, DATA misses = 71. Winner = DATA
[DUEL] Epoch ended. INSTR misses = 65, DATA misses = 61. Winner = DATA
[DUEL] Epoch ended. INSTR misses = 95, DATA misses = 94. Winner = DATA
[DUEL] Epoch ended. INSTR misses = 76, DATA misses = 78. Winner = INSTR
[DUEL] Epoch ended. INSTR misses = 63, DATA misses = 64. Winner = INSTR
[DUEL] Epoch ended. INSTR misses = 37, DATA misses = 48. Winner = INSTR
[DUEL] Epoch ended. INSTR misses = 37, DATA misses = 34. Winner = DATA
[DUEL] Epoch ended. INSTR misses = 38, DATA misses = 52. Winner = INSTR
[DUEL] Epoch ended. INSTR misses = 35, DATA misses = 34. Winner = DATA
[DUEL] Epoch ended. INSTR misses = 67, DATA misses = 62. Winner = DATA
[DUEL] Epoch ended. INSTR misses = 107, DATA misses = 104. Winner = DATA
[DUEL] Epoch ended. INSTR misses = 87, DATA misses = 94. Winner = INSTR
[DUEL] Epoch ended. INSTR misses = 81, DATA misses = 80. Winner = DATA
[DUEL] Epoch ended. INSTR misses = 49, DATA misses = 48. Winner = DATA
[DUEL] Epoch ended. INSTR misses = 126, DATA misses = 94. Winner = DATA
[DUEL] Epoch ended. INSTR misses = 83, DATA misses = 91. Winner = INSTR
[DUEL] Epoch ended. INSTR misses = 95, DATA misses = 99. Winner = INSTR
[DUEL] Epoch ended. INSTR misses = 79, DATA misses = 114. Winner = INSTR
[DUEL] Epoch ended. INSTR misses = 90, DATA misses = 76. Winner = DATA
[DUEL] Epoch ended. INSTR misses = 63, DATA misses = 81. Winner = INSTR
[DUEL] Epoch ended. INSTR misses = 76, DATA misses = 67. Winner = DATA
[DUEL] Epoch ended. INSTR misses = 24, DATA misses = 33. Winner = INSTR
[DUEL] Epoch ended. INSTR misses = 25, DATA misses = 27. Winner = INSTR
[DUEL] Epoch ended. INSTR misses = 48, DATA misses = 38. Winner = DATA
[DUEL] Epoch ended. INSTR misses = 77, DATA misses = 76. Winner = DATA
[DUEL] Epoch ended. INSTR misses = 48, DATA misses = 45. Winner = DATA
[DUEL] Epoch ended. INSTR misses = 62, DATA misses = 64. Winner = INSTR
[DUEL] Epoch ended. INSTR misses = 27, DATA misses = 16. Winner = DATA
[DUEL] Epoch ended. INSTR misses = 143, DATA misses = 156. Winner = INSTR
[DUEL] Epoch ended. INSTR misses = 18, DATA misses = 16. Winner = DATA
[DUEL] Epoch ended. INSTR misses = 91, DATA misses = 81. Winner = DATA
[DUEL] Epoch ended. INSTR misses = 64, DATA misses = 76. Winner = INSTR
Heartbeat CPU 0 instructions: 90000011 cycles: 116922168 heartbeat IPC: 0.5822 cumulative IPC: 0.5385 (Simulation time: 00 hr 16 min 18 sec)
[DUEL] Epoch ended. INSTR misses = 49, DATA misses = 33. Winner = DATA
[DUEL] Epoch ended. INSTR misses = 64, DATA misses = 72. Winner = INSTR
[DUEL] Epoch ended. INSTR misses = 80, DATA misses = 81. Winner = INSTR
[DUEL] Epoch ended. INSTR misses = 62, DATA misses = 64. Winner = INSTR
[DUEL] Epoch ended. INSTR misses = 46, DATA misses = 44. Winner = DATA
[DUEL] Epoch ended. INSTR misses = 80, DATA misses = 65. Winner = DATA
[DUEL] Epoch ended. INSTR misses = 37, DATA misses = 46. Winner = INSTR
[DUEL] Epoch ended. INSTR misses = 92, DATA misses = 90. Winner = DATA
[DUEL] Epoch ended. INSTR misses = 54, DATA misses = 65. Winner = INSTR
[DUEL] Epoch ended. INSTR misses = 92, DATA misses = 101. Winner = INSTR
[DUEL] Epoch ended. INSTR misses = 88, DATA misses = 90. Winner = INSTR
[DUEL] Epoch ended. INSTR misses = 31, DATA misses = 7. Winner = DATA
[DUEL] Epoch ended. INSTR misses = 65, DATA misses = 58. Winner = DATA
[DUEL] Epoch ended. INSTR misses = 89, DATA misses = 74. Winner = DATA
[DUEL] Epoch ended. INSTR misses = 31, DATA misses = 27. Winner = DATA
[DUEL] Epoch ended. INSTR misses = 66, DATA misses = 62. Winner = DATA
[DUEL] Epoch ended. INSTR misses = 82, DATA misses = 94. Winner = INSTR
[DUEL] Epoch ended. INSTR misses = 48, DATA misses = 38. Winner = DATA
[DUEL] Epoch ended. INSTR misses = 63, DATA misses = 59. Winner = DATA
[DUEL] Epoch ended. INSTR misses = 80, DATA misses = 79. Winner = DATA
[DUEL] Epoch ended. INSTR misses = 65, DATA misses = 58. Winner = DATA
[DUEL] Epoch ended. INSTR misses = 92, DATA misses = 57. Winner = DATA
[DUEL] Epoch ended. INSTR misses = 79, DATA misses = 50. Winner = DATA
[DUEL] Epoch ended. INSTR misses = 69, DATA misses = 87. Winner = INSTR
[DUEL] Epoch ended. INSTR misses = 47, DATA misses = 48. Winner = INSTR
[DUEL] Epoch ended. INSTR misses = 60, DATA misses = 59. Winner = DATA
[DUEL] Epoch ended. INSTR misses = 70, DATA misses = 73. Winner = INSTR
[DUEL] Epoch ended. INSTR misses = 33, DATA misses = 37. Winner = INSTR
[DUEL] Epoch ended. INSTR misses = 63, DATA misses = 45. Winner = DATA
[DUEL] Epoch ended. INSTR misses = 99, DATA misses = 96. Winner = DATA
[DUEL] Epoch ended. INSTR misses = 91, DATA misses = 77. Winner = DATA
[DUEL] Epoch ended. INSTR misses = 48, DATA misses = 60. Winner = INSTR
[DUEL] Epoch ended. INSTR misses = 53, DATA misses = 31. Winner = DATA
[DUEL] Epoch ended. INSTR misses = 66, DATA misses = 79. Winner = INSTR
[DUEL] Epoch ended. INSTR misses = 54, DATA misses = 50. Winner = DATA
[DUEL] Epoch ended. INSTR misses = 56, DATA misses = 80. Winner = INSTR
[DUEL] Epoch ended. INSTR misses = 75, DATA misses = 63. Winner = DATA
[DUEL] Epoch ended. INSTR misses = 92, DATA misses = 106. Winner = INSTR
[DUEL] Epoch ended. INSTR misses = 47, DATA misses = 33. Winner = DATA
Heartbeat CPU 0 instructions: 100000008 cycles: 134286639 heartbeat IPC: 0.5759 cumulative IPC: 0.5435 (Simulation time: 00 hr 18 min 40 sec)
*** Reached end of trace: (0, "../traces/secret_traces/compute_fp/compute_fp_14.champsimtrace.xz")
[DUEL] Epoch ended. INSTR misses = 64, DATA misses = 46. Winner = DATA
[DUEL] Epoch ended. INSTR misses = 25, DATA misses = 40. Winner = INSTR
[DUEL] Epoch ended. INSTR misses = 34, DATA misses = 29. Winner = DATA
[DUEL] Epoch ended. INSTR misses = 37, DATA misses = 40. Winner = INSTR
[DUEL] Epoch ended. INSTR misses = 45, DATA misses = 71. Winner = INSTR
[DUEL] Epoch ended. INSTR misses = 53, DATA misses = 36. Winner = DATA
[DUEL] Epoch ended. INSTR misses = 30, DATA misses = 45. Winner = INSTR
[DUEL] Epoch ended. INSTR misses = 43, DATA misses = 37. Winner = DATA
[DUEL] Epoch ended. INSTR misses = 59, DATA misses = 59. Winner = INSTR
[DUEL] Epoch ended. INSTR misses = 40, DATA misses = 33. Winner = DATA
[DUEL] Epoch ended. INSTR misses = 65, DATA misses = 60. Winner = DATA
[DUEL] Epoch ended. INSTR misses = 60, DATA misses = 34. Winner = DATA
[DUEL] Epoch ended. INSTR misses = 53, DATA misses = 48. Winner = DATA
[DUEL] Epoch ended. INSTR misses = 33, DATA misses = 40. Winner = INSTR
[DUEL] Epoch ended. INSTR misses = 79, DATA misses = 81. Winner = INSTR
[DUEL] Epoch ended. INSTR misses = 51, DATA misses = 58. Winner = INSTR
[DUEL] Epoch ended. INSTR misses = 51, DATA misses = 66. Winner = INSTR
[DUEL] Epoch ended. INSTR misses = 52, DATA misses = 33. Winner = DATA
[DUEL] Epoch ended. INSTR misses = 53, DATA misses = 51. Winner = DATA
[DUEL] Epoch ended. INSTR misses = 35, DATA misses = 38. Winner = INSTR
[DUEL] Epoch ended. INSTR misses = 49, DATA misses = 43. Winner = DATA
[DUEL] Epoch ended. INSTR misses = 40, DATA misses = 26. Winner = DATA
[DUEL] Epoch ended. INSTR misses = 45, DATA misses = 42. Winner = DATA
[DUEL] Epoch ended. INSTR misses = 50, DATA misses = 46. Winner = DATA
[DUEL] Epoch ended. INSTR misses = 42, DATA misses = 40. Winner = DATA
[DUEL] Epoch ended. INSTR misses = 29, DATA misses = 42. Winner = INSTR
[DUEL] Epoch ended. INSTR misses = 47, DATA misses = 56. Winner = INSTR
[DUEL] Epoch ended. INSTR misses = 37, DATA misses = 37. Winner = INSTR
[DUEL] Epoch ended. INSTR misses = 54, DATA misses = 53. Winner = DATA
[DUEL] Epoch ended. INSTR misses = 58, DATA misses = 61. Winner = INSTR
[DUEL] Epoch ended. INSTR misses = 40, DATA misses = 42. Winner = INSTR
[DUEL] Epoch ended. INSTR misses = 28, DATA misses = 45. Winner = INSTR
[DUEL] Epoch ended. INSTR misses = 56, DATA misses = 57. Winner = INSTR
[DUEL] Epoch ended. INSTR misses = 60, DATA misses = 70. Winner = INSTR
[DUEL] Epoch ended. INSTR misses = 68, DATA misses = 51. Winner = DATA
[DUEL] Epoch ended. INSTR misses = 80, DATA misses = 66. Winner = DATA
[DUEL] Epoch ended. INSTR misses = 46, DATA misses = 51. Winner = INSTR
[DUEL] Epoch ended. INSTR misses = 51, DATA misses = 48. Winner = DATA
[DUEL] Epoch ended. INSTR misses = 39, DATA misses = 57. Winner = INSTR
Heartbeat CPU 0 instructions: 110000000 cycles: 152063876 heartbeat IPC: 0.5625 cumulative IPC: 0.5458 (Simulation time: 00 hr 20 min 57 sec)
[DUEL] Epoch ended. INSTR misses = 46, DATA misses = 64. Winner = INSTR
[DUEL] Epoch ended. INSTR misses = 45, DATA misses = 34. Winner = DATA
[DUEL] Epoch ended. INSTR misses = 51, DATA misses = 53. Winner = INSTR
[DUEL] Epoch ended. INSTR misses = 59, DATA misses = 45. Winner = DATA
[DUEL] Epoch ended. INSTR misses = 32, DATA misses = 27. Winner = DATA
[DUEL] Epoch ended. INSTR misses = 53, DATA misses = 25. Winner = DATA
[DUEL] Epoch ended. INSTR misses = 42, DATA misses = 50. Winner = INSTR
[DUEL] Epoch ended. INSTR misses = 54, DATA misses = 29. Winner = DATA
[DUEL] Epoch ended. INSTR misses = 41, DATA misses = 49. Winner = INSTR
[DUEL] Epoch ended. INSTR misses = 35, DATA misses = 34. Winner = DATA
[DUEL] Epoch ended. INSTR misses = 22, DATA misses = 56. Winner = INSTR
[DUEL] Epoch ended. INSTR misses = 44, DATA misses = 58. Winner = INSTR
[DUEL] Epoch ended. INSTR misses = 43, DATA misses = 29. Winner = DATA
[DUEL] Epoch ended. INSTR misses = 45, DATA misses = 71. Winner = INSTR
[DUEL] Epoch ended. INSTR misses = 48, DATA misses = 45. Winner = DATA
[DUEL] Epoch ended. INSTR misses = 49, DATA misses = 42. Winner = DATA
[DUEL] Epoch ended. INSTR misses = 49, DATA misses = 49. Winner = INSTR
[DUEL] Epoch ended. INSTR misses = 39, DATA misses = 34. Winner = DATA
[DUEL] Epoch ended. INSTR misses = 32, DATA misses = 43. Winner = INSTR
[DUEL] Epoch ended. INSTR misses = 47, DATA misses = 31. Winner = DATA
[DUEL] Epoch ended. INSTR misses = 28, DATA misses = 41. Winner = INSTR
[DUEL] Epoch ended. INSTR misses = 73, DATA misses = 51. Winner = DATA
[DUEL] Epoch ended. INSTR misses = 46, DATA misses = 36. Winner = DATA
[DUEL] Epoch ended. INSTR misses = 58, DATA misses = 46. Winner = DATA
[DUEL] Epoch ended. INSTR misses = 43, DATA misses = 41. Winner = DATA
[DUEL] Epoch ended. INSTR misses = 37, DATA misses = 32. Winner = DATA
[DUEL] Epoch ended. INSTR misses = 33, DATA misses = 45. Winner = INSTR
[DUEL] Epoch ended. INSTR misses = 37, DATA misses = 42. Winner = INSTR
[DUEL] Epoch ended. INSTR misses = 50, DATA misses = 48. Winner = DATA
[DUEL] Epoch ended. INSTR misses = 45, DATA misses = 25. Winner = DATA
[DUEL] Epoch ended. INSTR misses = 68, DATA misses = 62. Winner = DATA
[DUEL] Epoch ended. INSTR misses = 27, DATA misses = 38. Winner = INSTR
[DUEL] Epoch ended. INSTR misses = 49, DATA misses = 51. Winner = INSTR
[DUEL] Epoch ended. INSTR misses = 45, DATA misses = 40. Winner = DATA
[DUEL] Epoch ended. INSTR misses = 43, DATA misses = 56. Winner = INSTR
[DUEL] Epoch ended. INSTR misses = 34, DATA misses = 32. Winner = DATA
[DUEL] Epoch ended. INSTR misses = 79, DATA misses = 88. Winner = INSTR
[DUEL] Epoch ended. INSTR misses = 57, DATA misses = 67. Winner = INSTR
[DUEL] Epoch ended. INSTR misses = 30, DATA misses = 68. Winner = INSTR
Heartbeat CPU 0 instructions: 120000002 cycles: 169503848 heartbeat IPC: 0.5734 cumulative IPC: 0.5487 (Simulation time: 00 hr 23 min 16 sec)
[DUEL] Epoch ended. INSTR misses = 67, DATA misses = 72. Winner = INSTR
[DUEL] Epoch ended. INSTR misses = 48, DATA misses = 29. Winner = DATA
[DUEL] Epoch ended. INSTR misses = 60, DATA misses = 59. Winner = DATA
[DUEL] Epoch ended. INSTR misses = 49, DATA misses = 34. Winner = DATA
[DUEL] Epoch ended. INSTR misses = 74, DATA misses = 59. Winner = DATA
[DUEL] Epoch ended. INSTR misses = 39, DATA misses = 44. Winner = INSTR
[DUEL] Epoch ended. INSTR misses = 49, DATA misses = 38. Winner = DATA
[DUEL] Epoch ended. INSTR misses = 41, DATA misses = 36. Winner = DATA
[DUEL] Epoch ended. INSTR misses = 57, DATA misses = 59. Winner = INSTR
[DUEL] Epoch ended. INSTR misses = 65, DATA misses = 69. Winner = INSTR
[DUEL] Epoch ended. INSTR misses = 50, DATA misses = 38. Winner = DATA
[DUEL] Epoch ended. INSTR misses = 60, DATA misses = 64. Winner = INSTR
[DUEL] Epoch ended. INSTR misses = 45, DATA misses = 36. Winner = DATA
[DUEL] Epoch ended. INSTR misses = 89, DATA misses = 71. Winner = DATA
[DUEL] Epoch ended. INSTR misses = 30, DATA misses = 39. Winner = INSTR
[DUEL] Epoch ended. INSTR misses = 79, DATA misses = 54. Winner = DATA
[DUEL] Epoch ended. INSTR misses = 32, DATA misses = 62. Winner = INSTR
[DUEL] Epoch ended. INSTR misses = 73, DATA misses = 70. Winner = DATA
[DUEL] Epoch ended. INSTR misses = 37, DATA misses = 44. Winner = INSTR
[DUEL] Epoch ended. INSTR misses = 44, DATA misses = 43. Winner = DATA
[DUEL] Epoch ended. INSTR misses = 31, DATA misses = 45. Winner = INSTR
[DUEL] Epoch ended. INSTR misses = 40, DATA misses = 51. Winner = INSTR
[DUEL] Epoch ended. INSTR misses = 35, DATA misses = 51. Winner = INSTR
[DUEL] Epoch ended. INSTR misses = 179, DATA misses = 174. Winner = DATA
[DUEL] Epoch ended. INSTR misses = 359, DATA misses = 357. Winner = DATA
[DUEL] Epoch ended. INSTR misses = 373, DATA misses = 401. Winner = INSTR
[DUEL] Epoch ended. INSTR misses = 402, DATA misses = 384. Winner = DATA
[DUEL] Epoch ended. INSTR misses = 392, DATA misses = 355. Winner = DATA
[DUEL] Epoch ended. INSTR misses = 391, DATA misses = 374. Winner = DATA
[DUEL] Epoch ended. INSTR misses = 316, DATA misses = 340. Winner = INSTR
[DUEL] Epoch ended. INSTR misses = 371, DATA misses = 387. Winner = INSTR
[DUEL] Epoch ended. INSTR misses = 415, DATA misses = 405. Winner = DATA
[DUEL] Epoch ended. INSTR misses = 365, DATA misses = 407. Winner = INSTR
[DUEL] Epoch ended. INSTR misses = 383, DATA misses = 408. Winner = INSTR
[DUEL] Epoch ended. INSTR misses = 313, DATA misses = 331. Winner = INSTR
[DUEL] Epoch ended. INSTR misses = 309, DATA misses = 323. Winner = INSTR
[DUEL] Epoch ended. INSTR misses = 418, DATA misses = 381. Winner = DATA
[DUEL] Epoch ended. INSTR misses = 178, DATA misses = 192. Winner = INSTR
[DUEL] Epoch ended. INSTR misses = 37, DATA misses = 29. Winner = DATA
Heartbeat CPU 0 instructions: 130000010 cycles: 211414410 heartbeat IPC: 0.2386 cumulative IPC: 0.4856 (Simulation time: 00 hr 29 min 20 sec)
Simulation finished CPU 0 instructions: 100000002 cycles: 205922507 cumulative IPC: 0.4856 (Simulation time: 00 hr 29 min 20 sec)
Simulation complete CPU 0 instructions: 100000002 cycles: 205922507 cumulative IPC: 0.4856 (Simulation time: 00 hr 29 min 20 sec)

ChampSim completed all CPUs

=== Simulation ===
CPU 0 runs ../traces/secret_traces/compute_fp/compute_fp_14.champsimtrace.xz
Region of Interest Statistics

CPU 0 cumulative IPC: 0.4856 instructions: 100000002 cycles: 205922507
CPU 0 Branch Prediction Accuracy: 99.24% MPKI: 0.1566 Average ROB Occupancy at Mispredict: 82.98
Branch type MPKI
BRANCH_DIRECT_JUMP: 0.0265
BRANCH_INDIRECT: 0.0674
BRANCH_CONDITIONAL: 0.0284
BRANCH_DIRECT_CALL: 0.0208
BRANCH_INDIRECT_CALL: 0.00229
BRANCH_RETURN: 0.0112

LLC TOTAL        ACCESS:    6772756 HIT:     284363 MISS:    6488393
LLC LOAD         ACCESS:    1275301 HIT:      12700 MISS:    1262601
LLC RFO          ACCESS:      30427 HIT:       3000 MISS:      27427
LLC PREFETCH     ACCESS:    3258604 HIT:      20080 MISS:    3238524
LLC WRITE        ACCESS:    2169361 HIT:     248489 MISS:    1920872
LLC TRANSLATION  ACCESS:      39063 HIT:         94 MISS:      38969
LLC PREFETCH REQUESTED:          0 ISSUED:          0 USEFUL:          0 USELESS:          0
LLC AVERAGE MISS LATENCY: 612.8 cycles
cpu0_DTLB TOTAL        ACCESS:   22288355 HIT:   21266366 MISS:    1021989
cpu0_DTLB LOAD         ACCESS:   22288355 HIT:   21266366 MISS:    1021989
cpu0_DTLB RFO          ACCESS:          0 HIT:          0 MISS:          0
cpu0_DTLB PREFETCH     ACCESS:          0 HIT:          0 MISS:          0
cpu0_DTLB WRITE        ACCESS:          0 HIT:          0 MISS:          0
cpu0_DTLB TRANSLATION  ACCESS:          0 HIT:          0 MISS:          0
cpu0_DTLB PREFETCH REQUESTED:          0 ISSUED:          0 USEFUL:          0 USELESS:          0
cpu0_DTLB AVERAGE MISS LATENCY: 75.65 cycles
cpu0_ITLB TOTAL        ACCESS:     120983 HIT:     119385 MISS:       1598
cpu0_ITLB LOAD         ACCESS:     120983 HIT:     119385 MISS:       1598
cpu0_ITLB RFO          ACCESS:          0 HIT:          0 MISS:          0
cpu0_ITLB PREFETCH     ACCESS:          0 HIT:          0 MISS:          0
cpu0_ITLB WRITE        ACCESS:          0 HIT:          0 MISS:          0
cpu0_ITLB TRANSLATION  ACCESS:          0 HIT:          0 MISS:          0
cpu0_ITLB PREFETCH REQUESTED:          0 ISSUED:          0 USEFUL:          0 USELESS:          0
cpu0_ITLB AVERAGE MISS LATENCY: 79.29 cycles
cpu0_L1D TOTAL        ACCESS:   34900015 HIT:   26280136 MISS:    8619879
cpu0_L1D LOAD         ACCESS:   17326067 HIT:   11989232 MISS:    5336835
cpu0_L1D RFO          ACCESS:          0 HIT:          0 MISS:          0
cpu0_L1D PREFETCH     ACCESS:    3696020 HIT:    1582028 MISS:    2113992
cpu0_L1D WRITE        ACCESS:   13411555 HIT:   12577275 MISS:     834280
cpu0_L1D TRANSLATION  ACCESS:     466373 HIT:     131601 MISS:     334772
cpu0_L1D PREFETCH REQUESTED:  242598706 ISSUED:    3696020 USEFUL:     667456 USELESS:      62005
cpu0_L1D AVERAGE MISS LATENCY: 199 cycles
cpu0_L1I TOTAL        ACCESS:     175472 HIT:     138185 MISS:      37287
cpu0_L1I LOAD         ACCESS:      61116 HIT:      49571 MISS:      11545
cpu0_L1I RFO          ACCESS:          0 HIT:          0 MISS:          0
cpu0_L1I PREFETCH     ACCESS:     114356 HIT:      88614 MISS:      25742
cpu0_L1I WRITE        ACCESS:          0 HIT:          0 MISS:          0
cpu0_L1I TRANSLATION  ACCESS:          0 HIT:          0 MISS:          0
cpu0_L1I PREFETCH REQUESTED:     169930 ISSUED:     114356 USEFUL:      14091 USELESS:       9416
cpu0_L1I AVERAGE MISS LATENCY: 170.8 cycles
cpu0_L2C TOTAL        ACCESS:   13658719 HIT:    6087249 MISS:    7571470
cpu0_L2C LOAD         ACCESS:    3534000 HIT:    1211664 MISS:    2322336
cpu0_L2C RFO          ACCESS:     206919 HIT:     118790 MISS:      88129
cpu0_L2C PREFETCH     ACCESS:    7405162 HIT:    2283349 MISS:    5121813
cpu0_L2C WRITE        ACCESS:    2178030 HIT:    2177901 MISS:        129
cpu0_L2C TRANSLATION  ACCESS:     334608 HIT:     295545 MISS:      39063
cpu0_L2C PREFETCH REQUESTED:    5804538 ISSUED:    5469453 USEFUL:    1753677 USELESS:     980227
cpu0_L2C AVERAGE MISS LATENCY: 489.4 cycles
cpu0_STLB TOTAL        ACCESS:     683014 HIT:     219347 MISS:     463667
cpu0_STLB LOAD         ACCESS:     683014 HIT:     219347 MISS:     463667
cpu0_STLB RFO          ACCESS:          0 HIT:          0 MISS:          0
cpu0_STLB PREFETCH     ACCESS:          0 HIT:          0 MISS:          0
cpu0_STLB WRITE        ACCESS:          0 HIT:          0 MISS:          0
cpu0_STLB TRANSLATION  ACCESS:          0 HIT:          0 MISS:          0
cpu0_STLB PREFETCH REQUESTED:          0 ISSUED:          0 USEFUL:          0 USELESS:          0
cpu0_STLB AVERAGE MISS LATENCY: 239.9 cycles

DRAM Statistics

Channel 0 RQ ROW_BUFFER_HIT:    1171641
  ROW_BUFFER_MISS:    1121252
 AVG DBUS CONGESTED CYCLE: 3.974
WQ ROW_BUFFER_HIT: Channel 0 
  ROW_BUFFER_MISS:      61976
  FULL:    1010647

Channel 1 RQ ROW_BUFFER_HIT:    1165243
  ROW_BUFFER_MISS:    1109378
 AVG DBUS CONGESTED CYCLE: 3.973
WQ ROW_BUFFER_HIT: Channel 1 
  ROW_BUFFER_MISS:      64558
  FULL:    1007013
BERTI TO_L1: 8738547 TO_L2: 244724302 TO_L2_BC_MSHR: 122172615
BERTI AVG_LAT: 418.846 NUM_TRACK_LATENCY: 5526937 NUM_CANT_TRACK_LATENCY: 1136
BERTI CROSS_PAGE 179708384 NO_CROSS_PAGE: 73754465
BERTI FOUND_BERTI: 46811605 NO_FOUND_BERTI: 15957044
BERTI AVERAGE_ISSUED: 3.82049
CPU 0 L1I Entangling prefetcher final stats
IP accesses: 46d9 11b640 2271 / 88598
IP misses: 46d9 11b640 2267 / 39027
IP hits: 0 0 0 / 0
IP late: e8f3 3a3cc0 13 / 5868
IP wrong: 2172 85c80 25 / 9370
miss rate: 0.440496
coverage: 0
coverage_late: 0.150358
accuracy: 0
accuracy_late: 0.38509
discarded: 0
evicts entangled j table: 0
evicts entangled k table: 1564
max bb size: 65
formats: 431 0 1350 724 302 724 0 
hist_lookups: 1161 1241 969 866 777 692 579 413 321 283 186 116 80 57 23 0 39 4142 
hist_lookups_evict: 0.326497 %
hist_lookups_shortlat: 34.6756 %
bb_found_hist: 0 14150 6607 2826 1091 688 241 72 66 23 43 13 23 0 4 1 22 10 0 0 0 0 5 0 0 0 0 0 0 0 1 0 0 0 0 4 0 0 0 0 0 0 0 0 0 0 0 0 0 2 0 0 0 0 0 0 0 0 0 0 0 0 0 0 
bb_found_summary: 48151 25892 1.85969
entangled_found_hist: 0 8475 5681 9480 1701 331 95 0 
entangled_found_summary: 57306 25763 2.22436
bb_ent_found_hist: 0 18964 10206 6040 2020 1288 650 264 93 23 62 5 48 0 2 1 11 9 0 0 0 0 5 1 0 0 0 0 0 0 1 0 0 0 0 19 0 0 0 0 0 0 0 0 0 0 0 0 0 3 0 0 0 0 0 0 0 0 0 0 0 0 0 0 
bb_ent_found_summary: 81313 39715 2.04742
