WARNING: physical memory size is smaller than virtual memory size.

*** ChampSim Multicore Out-of-Order Simulator ***
Warmup Instructions: 30000000
Simulation Instructions: 100000000
Number of CPUs: 1
Page size: 4096

BTB:
Basic BTB sets: 1024 ways: 8
Indirect:
history lengths: 0 0 10 16 27 44 60 96 109 219 449 487 714 1313 2146 3881 
ITTAGE tables: 64768 bytes;Region table: 240 bytes;IUM: 384 bytes;Total Storage= 65392 bytes;
RAS:
RAS size: 64
[LLC] INSTR Demand IPV: 1 2 2 1 4 Prefetch IPV: 1 2 1 1 4
[LLC] DATA  Demand IPV: 1 1 1 2 4 Prefetch IPV: 1 1 2 2 4
Berti Prefetcher
CPU 0 Entangling prefetcher
Off-chip DRAM Size: 8 GiB Channels: 2 Width: 64-bit Data Race: 6400 MT/s
[DUEL] Epoch ended. INSTR misses = 11, DATA misses = 5. Winner = DATA
[DUEL] Epoch ended. INSTR misses = 104, DATA misses = 108. Winner = INSTR
[DUEL] Epoch ended. INSTR misses = 32, DATA misses = 32. Winner = INSTR
[DUEL] Epoch ended. INSTR misses = 20, DATA misses = 27. Winner = INSTR
[DUEL] Epoch ended. INSTR misses = 36, DATA misses = 36. Winner = INSTR
[DUEL] Epoch ended. INSTR misses = 71, DATA misses = 84. Winner = INSTR
[DUEL] Epoch ended. INSTR misses = 44, DATA misses = 35. Winner = DATA
[DUEL] Epoch ended. INSTR misses = 39, DATA misses = 38. Winner = DATA
[DUEL] Epoch ended. INSTR misses = 16, DATA misses = 16. Winner = INSTR
[DUEL] Epoch ended. INSTR misses = 16, DATA misses = 16. Winner = INSTR
[DUEL] Epoch ended. INSTR misses = 19, DATA misses = 17. Winner = DATA
[DUEL] Epoch ended. INSTR misses = 45, DATA misses = 50. Winner = INSTR
[DUEL] Epoch ended. INSTR misses = 73, DATA misses = 71. Winner = DATA
[DUEL] Epoch ended. INSTR misses = 39, DATA misses = 37. Winner = DATA
[DUEL] Epoch ended. INSTR misses = 25, DATA misses = 24. Winner = DATA
[DUEL] Epoch ended. INSTR misses = 6, DATA misses = 8. Winner = INSTR
[DUEL] Epoch ended. INSTR misses = 31, DATA misses = 31. Winner = INSTR
[DUEL] Epoch ended. INSTR misses = 16, DATA misses = 15. Winner = DATA
[DUEL] Epoch ended. INSTR misses = 19, DATA misses = 17. Winner = DATA
[DUEL] Epoch ended. INSTR misses = 74, DATA misses = 75. Winner = INSTR
[DUEL] Epoch ended. INSTR misses = 56, DATA misses = 52. Winner = DATA
[DUEL] Epoch ended. INSTR misses = 28, DATA misses = 29. Winner = INSTR
[DUEL] Epoch ended. INSTR misses = 25, DATA misses = 24. Winner = DATA
[DUEL] Epoch ended. INSTR misses = 0, DATA misses = 0. Winner = INSTR
[DUEL] Epoch ended. INSTR misses = 31, DATA misses = 30. Winner = DATA
[DUEL] Epoch ended. INSTR misses = 16, DATA misses = 14. Winner = DATA
[DUEL] Epoch ended. INSTR misses = 24, DATA misses = 18. Winner = DATA
[DUEL] Epoch ended. INSTR misses = 72, DATA misses = 79. Winner = INSTR
[DUEL] Epoch ended. INSTR misses = 45, DATA misses = 44. Winner = DATA
[DUEL] Epoch ended. INSTR misses = 21, DATA misses = 29. Winner = INSTR
[DUEL] Epoch ended. INSTR misses = 20, DATA misses = 21. Winner = INSTR
[DUEL] Epoch ended. INSTR misses = 3, DATA misses = 2. Winner = DATA
[DUEL] Epoch ended. INSTR misses = 31, DATA misses = 29. Winner = DATA
[DUEL] Epoch ended. INSTR misses = 16, DATA misses = 13. Winner = DATA
[DUEL] Epoch ended. INSTR misses = 17, DATA misses = 16. Winner = DATA
[DUEL] Epoch ended. INSTR misses = 52, DATA misses = 53. Winner = INSTR
[DUEL] Epoch ended. INSTR misses = 58, DATA misses = 53. Winner = DATA
[DUEL] Epoch ended. INSTR misses = 36, DATA misses = 30. Winner = DATA
Heartbeat CPU 0 instructions: 10000004 cycles: 1913332 heartbeat IPC: 5.226 cumulative IPC: 5.226 (Simulation time: 00 hr 00 min 27 sec)
[DUEL] Epoch ended. INSTR misses = 14, DATA misses = 15. Winner = INSTR
[DUEL] Epoch ended. INSTR misses = 8, DATA misses = 7. Winner = DATA
[DUEL] Epoch ended. INSTR misses = 31, DATA misses = 22. Winner = DATA
[DUEL] Epoch ended. INSTR misses = 16, DATA misses = 20. Winner = INSTR
[DUEL] Epoch ended. INSTR misses = 16, DATA misses = 16. Winner = INSTR
[DUEL] Epoch ended. INSTR misses = 53, DATA misses = 61. Winner = INSTR
[DUEL] Epoch ended. INSTR misses = 51, DATA misses = 48. Winner = DATA
[DUEL] Epoch ended. INSTR misses = 29, DATA misses = 30. Winner = INSTR
[DUEL] Epoch ended. INSTR misses = 8, DATA misses = 7. Winner = DATA
[DUEL] Epoch ended. INSTR misses = 16, DATA misses = 15. Winner = DATA
[DUEL] Epoch ended. INSTR misses = 31, DATA misses = 26. Winner = DATA
[DUEL] Epoch ended. INSTR misses = 16, DATA misses = 16. Winner = INSTR
[DUEL] Epoch ended. INSTR misses = 67, DATA misses = 55. Winner = DATA
[DUEL] Epoch ended. INSTR misses = 47, DATA misses = 54. Winner = INSTR
[DUEL] Epoch ended. INSTR misses = 29, DATA misses = 30. Winner = INSTR
[DUEL] Epoch ended. INSTR misses = 8, DATA misses = 7. Winner = DATA
[DUEL] Epoch ended. INSTR misses = 16, DATA misses = 15. Winner = DATA
[DUEL] Epoch ended. INSTR misses = 30, DATA misses = 25. Winner = DATA
[DUEL] Epoch ended. INSTR misses = 15, DATA misses = 16. Winner = INSTR
[DUEL] Epoch ended. INSTR misses = 53, DATA misses = 54. Winner = INSTR
[DUEL] Epoch ended. INSTR misses = 44, DATA misses = 45. Winner = INSTR
[DUEL] Epoch ended. INSTR misses = 25, DATA misses = 30. Winner = INSTR
[DUEL] Epoch ended. INSTR misses = 8, DATA misses = 7. Winner = DATA
[DUEL] Epoch ended. INSTR misses = 16, DATA misses = 15. Winner = DATA
[DUEL] Epoch ended. INSTR misses = 30, DATA misses = 25. Winner = DATA
[DUEL] Epoch ended. INSTR misses = 13, DATA misses = 16. Winner = INSTR
[DUEL] Epoch ended. INSTR misses = 56, DATA misses = 59. Winner = INSTR
[DUEL] Epoch ended. INSTR misses = 47, DATA misses = 39. Winner = DATA
[DUEL] Epoch ended. INSTR misses = 25, DATA misses = 29. Winner = INSTR
[DUEL] Epoch ended. INSTR misses = 6, DATA misses = 7. Winner = INSTR
[DUEL] Epoch ended. INSTR misses = 16, DATA misses = 15. Winner = DATA
[DUEL] Epoch ended. INSTR misses = 47, DATA misses = 42. Winner = DATA
[DUEL] Epoch ended. INSTR misses = 13, DATA misses = 16. Winner = INSTR
[DUEL] Epoch ended. INSTR misses = 55, DATA misses = 52. Winner = DATA
[DUEL] Epoch ended. INSTR misses = 50, DATA misses = 57. Winner = INSTR
[DUEL] Epoch ended. INSTR misses = 30, DATA misses = 29. Winner = DATA
[DUEL] Epoch ended. INSTR misses = 11, DATA misses = 16. Winner = INSTR
[DUEL] Epoch ended. INSTR misses = 16, DATA misses = 15. Winner = DATA
Heartbeat CPU 0 instructions: 20000002 cycles: 3854412 heartbeat IPC: 5.152 cumulative IPC: 5.189 (Simulation time: 00 hr 00 min 55 sec)
[DUEL] Epoch ended. INSTR misses = 30, DATA misses = 25. Winner = DATA
[DUEL] Epoch ended. INSTR misses = 13, DATA misses = 16. Winner = INSTR
[DUEL] Epoch ended. INSTR misses = 61, DATA misses = 54. Winner = DATA
[DUEL] Epoch ended. INSTR misses = 48, DATA misses = 59. Winner = INSTR
[DUEL] Epoch ended. INSTR misses = 30, DATA misses = 31. Winner = INSTR
[DUEL] Epoch ended. INSTR misses = 0, DATA misses = 0. Winner = INSTR
[DUEL] Epoch ended. INSTR misses = 0, DATA misses = 0. Winner = INSTR
[DUEL] Epoch ended. INSTR misses = 0, DATA misses = 0. Winner = INSTR
[DUEL] Epoch ended. INSTR misses = 0, DATA misses = 5. Winner = INSTR
[DUEL] Epoch ended. INSTR misses = 19, DATA misses = 21. Winner = INSTR
[DUEL] Epoch ended. INSTR misses = 16, DATA misses = 15. Winner = DATA
[DUEL] Epoch ended. INSTR misses = 14, DATA misses = 12. Winner = DATA
[DUEL] Epoch ended. INSTR misses = 16, DATA misses = 12. Winner = DATA
[DUEL] Epoch ended. INSTR misses = 36, DATA misses = 35. Winner = DATA
[DUEL] Epoch ended. INSTR misses = 66, DATA misses = 70. Winner = INSTR
[DUEL] Epoch ended. INSTR misses = 15, DATA misses = 25. Winner = INSTR
[DUEL] Epoch ended. INSTR misses = 21, DATA misses = 21. Winner = INSTR
[DUEL] Epoch ended. INSTR misses = 0, DATA misses = 0. Winner = INSTR
[DUEL] Epoch ended. INSTR misses = 28, DATA misses = 27. Winner = DATA
[DUEL] Epoch ended. INSTR misses = 16, DATA misses = 12. Winner = DATA
[DUEL] Epoch ended. INSTR misses = 28, DATA misses = 29. Winner = INSTR
[DUEL] Epoch ended. INSTR misses = 67, DATA misses = 62. Winner = DATA
[DUEL] Epoch ended. INSTR misses = 16, DATA misses = 24. Winner = INSTR
[DUEL] Epoch ended. INSTR misses = 19, DATA misses = 20. Winner = INSTR
[DUEL] Epoch ended. INSTR misses = 14, DATA misses = 15. Winner = INSTR
[DUEL] Epoch ended. INSTR misses = 28, DATA misses = 24. Winner = DATA
[DUEL] Epoch ended. INSTR misses = 13, DATA misses = 14. Winner = INSTR
[DUEL] Epoch ended. INSTR misses = 52, DATA misses = 44. Winner = DATA
[DUEL] Epoch ended. INSTR misses = 54, DATA misses = 59. Winner = INSTR
[DUEL] Epoch ended. INSTR misses = 14, DATA misses = 23. Winner = INSTR
[DUEL] Epoch ended. INSTR misses = 6, DATA misses = 6. Winner = INSTR
[DUEL] Epoch ended. INSTR misses = 13, DATA misses = 15. Winner = INSTR
[DUEL] Epoch ended. INSTR misses = 28, DATA misses = 24. Winner = DATA
[DUEL] Epoch ended. INSTR misses = 13, DATA misses = 14. Winner = INSTR
[DUEL] Epoch ended. INSTR misses = 54, DATA misses = 52. Winner = DATA
[DUEL] Epoch ended. INSTR misses = 38, DATA misses = 27. Winner = DATA
[DUEL] Epoch ended. INSTR misses = 26, DATA misses = 29. Winner = INSTR
Heartbeat CPU 0 instructions: 30000003 cycles: 5728520 heartbeat IPC: 5.336 cumulative IPC: 5.237 (Simulation time: 00 hr 01 min 22 sec)
Warmup finished CPU 0 instructions: 30000003 cycles: 5728521 cumulative IPC: 5.237 (Simulation time: 00 hr 01 min 22 sec)
Warmup complete CPU 0 instructions: 30000003 cycles: 5728521 cumulative IPC: 5.237 (Simulation time: 00 hr 01 min 22 sec)
[DUEL] Epoch ended. INSTR misses = 2, DATA misses = 2. Winner = INSTR
[DUEL] Epoch ended. INSTR misses = 13, DATA misses = 15. Winner = INSTR
[DUEL] Epoch ended. INSTR misses = 27, DATA misses = 24. Winner = DATA
[DUEL] Epoch ended. INSTR misses = 13, DATA misses = 14. Winner = INSTR
[DUEL] Epoch ended. INSTR misses = 51, DATA misses = 49. Winner = DATA
[DUEL] Epoch ended. INSTR misses = 30, DATA misses = 40. Winner = INSTR
[DUEL] Epoch ended. INSTR misses = 24, DATA misses = 29. Winner = INSTR
[DUEL] Epoch ended. INSTR misses = 0, DATA misses = 2. Winner = INSTR
[DUEL] Epoch ended. INSTR misses = 13, DATA misses = 15. Winner = INSTR
[DUEL] Epoch ended. INSTR misses = 27, DATA misses = 24. Winner = DATA
[DUEL] Epoch ended. INSTR misses = 13, DATA misses = 13. Winner = INSTR
[DUEL] Epoch ended. INSTR misses = 55, DATA misses = 48. Winner = DATA
[DUEL] Epoch ended. INSTR misses = 34, DATA misses = 33. Winner = DATA
[DUEL] Epoch ended. INSTR misses = 24, DATA misses = 29. Winner = INSTR
[DUEL] Epoch ended. INSTR misses = 0, DATA misses = 0. Winner = INSTR
[DUEL] Epoch ended. INSTR misses = 13, DATA misses = 15. Winner = INSTR
[DUEL] Epoch ended. INSTR misses = 27, DATA misses = 24. Winner = DATA
[DUEL] Epoch ended. INSTR misses = 13, DATA misses = 12. Winner = DATA
[DUEL] Epoch ended. INSTR misses = 48, DATA misses = 47. Winner = DATA
[DUEL] Epoch ended. INSTR misses = 46, DATA misses = 42. Winner = DATA
[DUEL] Epoch ended. INSTR misses = 23, DATA misses = 29. Winner = INSTR
[DUEL] Epoch ended. INSTR misses = 2, DATA misses = 0. Winner = DATA
[DUEL] Epoch ended. INSTR misses = 13, DATA misses = 14. Winner = INSTR
[DUEL] Epoch ended. INSTR misses = 27, DATA misses = 23. Winner = DATA
[DUEL] Epoch ended. INSTR misses = 13, DATA misses = 12. Winner = DATA
[DUEL] Epoch ended. INSTR misses = 52, DATA misses = 47. Winner = DATA
[DUEL] Epoch ended. INSTR misses = 38, DATA misses = 37. Winner = DATA
[DUEL] Epoch ended. INSTR misses = 13, DATA misses = 25. Winner = INSTR
[DUEL] Epoch ended. INSTR misses = 4, DATA misses = 0. Winner = DATA
[DUEL] Epoch ended. INSTR misses = 13, DATA misses = 14. Winner = INSTR
[DUEL] Epoch ended. INSTR misses = 27, DATA misses = 23. Winner = DATA
[DUEL] Epoch ended. INSTR misses = 12, DATA misses = 12. Winner = INSTR
[DUEL] Epoch ended. INSTR misses = 53, DATA misses = 45. Winner = DATA
[DUEL] Epoch ended. INSTR misses = 37, DATA misses = 49. Winner = INSTR
[DUEL] Epoch ended. INSTR misses = 13, DATA misses = 14. Winner = INSTR
[DUEL] Epoch ended. INSTR misses = 0, DATA misses = 1. Winner = INSTR
[DUEL] Epoch ended. INSTR misses = 13, DATA misses = 14. Winner = INSTR
[DUEL] Epoch ended. INSTR misses = 27, DATA misses = 23. Winner = DATA
Heartbeat CPU 0 instructions: 40000005 cycles: 8743596 heartbeat IPC: 3.317 cumulative IPC: 3.317 (Simulation time: 00 hr 01 min 58 sec)
[DUEL] Epoch ended. INSTR misses = 12, DATA misses = 12. Winner = INSTR
[DUEL] Epoch ended. INSTR misses = 56, DATA misses = 42. Winner = DATA
[DUEL] Epoch ended. INSTR misses = 36, DATA misses = 64. Winner = INSTR
[DUEL] Epoch ended. INSTR misses = 13, DATA misses = 14. Winner = INSTR
[DUEL] Epoch ended. INSTR misses = 4, DATA misses = 0. Winner = DATA
[DUEL] Epoch ended. INSTR misses = 13, DATA misses = 14. Winner = INSTR
[DUEL] Epoch ended. INSTR misses = 27, DATA misses = 23. Winner = DATA
[DUEL] Epoch ended. INSTR misses = 12, DATA misses = 12. Winner = INSTR
[DUEL] Epoch ended. INSTR misses = 50, DATA misses = 56. Winner = INSTR
[DUEL] Epoch ended. INSTR misses = 32, DATA misses = 49. Winner = INSTR
[DUEL] Epoch ended. INSTR misses = 13, DATA misses = 14. Winner = INSTR
[DUEL] Epoch ended. INSTR misses = 4, DATA misses = 0. Winner = DATA
[DUEL] Epoch ended. INSTR misses = 12, DATA misses = 14. Winner = INSTR
[DUEL] Epoch ended. INSTR misses = 27, DATA misses = 23. Winner = DATA
[DUEL] Epoch ended. INSTR misses = 12, DATA misses = 12. Winner = INSTR
[DUEL] Epoch ended. INSTR misses = 52, DATA misses = 42. Winner = DATA
[DUEL] Epoch ended. INSTR misses = 40, DATA misses = 61. Winner = INSTR
[DUEL] Epoch ended. INSTR misses = 13, DATA misses = 14. Winner = INSTR
[DUEL] Epoch ended. INSTR misses = 1, DATA misses = 0. Winner = DATA
[DUEL] Epoch ended. INSTR misses = 24, DATA misses = 22. Winner = DATA
[DUEL] Epoch ended. INSTR misses = 15, DATA misses = 15. Winner = INSTR
[DUEL] Epoch ended. INSTR misses = 12, DATA misses = 12. Winner = INSTR
[DUEL] Epoch ended. INSTR misses = 58, DATA misses = 38. Winner = DATA
[DUEL] Epoch ended. INSTR misses = 37, DATA misses = 37. Winner = INSTR
[DUEL] Epoch ended. INSTR misses = 20, DATA misses = 22. Winner = INSTR
[DUEL] Epoch ended. INSTR misses = 0, DATA misses = 0. Winner = INSTR
[DUEL] Epoch ended. INSTR misses = 0, DATA misses = 0. Winner = INSTR
[DUEL] Epoch ended. INSTR misses = 0, DATA misses = 0. Winner = INSTR
[DUEL] Epoch ended. INSTR misses = 13, DATA misses = 14. Winner = INSTR
[DUEL] Epoch ended. INSTR misses = 0, DATA misses = 0. Winner = INSTR
[DUEL] Epoch ended. INSTR misses = 12, DATA misses = 14. Winner = INSTR
[DUEL] Epoch ended. INSTR misses = 28, DATA misses = 23. Winner = DATA
[DUEL] Epoch ended. INSTR misses = 13, DATA misses = 12. Winner = DATA
[DUEL] Epoch ended. INSTR misses = 40, DATA misses = 34. Winner = DATA
[DUEL] Epoch ended. INSTR misses = 47, DATA misses = 57. Winner = INSTR
[DUEL] Epoch ended. INSTR misses = 15, DATA misses = 20. Winner = INSTR
[DUEL] Epoch ended. INSTR misses = 21, DATA misses = 22. Winner = INSTR
[DUEL] Epoch ended. INSTR misses = 1, DATA misses = 0. Winner = DATA
[DUEL] Epoch ended. INSTR misses = 24, DATA misses = 26. Winner = INSTR
Heartbeat CPU 0 instructions: 50000006 cycles: 11902572 heartbeat IPC: 3.166 cumulative IPC: 3.239 (Simulation time: 00 hr 02 min 34 sec)
[DUEL] Epoch ended. INSTR misses = 16, DATA misses = 11. Winner = DATA
[DUEL] Epoch ended. INSTR misses = 28, DATA misses = 25. Winner = DATA
[DUEL] Epoch ended. INSTR misses = 43, DATA misses = 39. Winner = DATA
[DUEL] Epoch ended. INSTR misses = 30, DATA misses = 57. Winner = INSTR
[DUEL] Epoch ended. INSTR misses = 16, DATA misses = 24. Winner = INSTR
[DUEL] Epoch ended. INSTR misses = 16, DATA misses = 18. Winner = INSTR
[DUEL] Epoch ended. INSTR misses = 12, DATA misses = 14. Winner = INSTR
[DUEL] Epoch ended. INSTR misses = 13, DATA misses = 12. Winner = DATA
[DUEL] Epoch ended. INSTR misses = 18, DATA misses = 13. Winner = DATA
[DUEL] Epoch ended. INSTR misses = 32, DATA misses = 23. Winner = DATA
[DUEL] Epoch ended. INSTR misses = 56, DATA misses = 60. Winner = INSTR
[DUEL] Epoch ended. INSTR misses = 19, DATA misses = 31. Winner = INSTR
[DUEL] Epoch ended. INSTR misses = 20, DATA misses = 21. Winner = INSTR
[DUEL] Epoch ended. INSTR misses = 0, DATA misses = 0. Winner = INSTR
[DUEL] Epoch ended. INSTR misses = 24, DATA misses = 25. Winner = INSTR
[DUEL] Epoch ended. INSTR misses = 17, DATA misses = 11. Winner = DATA
[DUEL] Epoch ended. INSTR misses = 12, DATA misses = 12. Winner = INSTR
[DUEL] Epoch ended. INSTR misses = 40, DATA misses = 41. Winner = INSTR
[DUEL] Epoch ended. INSTR misses = 49, DATA misses = 45. Winner = DATA
[DUEL] Epoch ended. INSTR misses = 18, DATA misses = 23. Winner = INSTR
[DUEL] Epoch ended. INSTR misses = 15, DATA misses = 14. Winner = DATA
[DUEL] Epoch ended. INSTR misses = 12, DATA misses = 14. Winner = INSTR
[DUEL] Epoch ended. INSTR misses = 12, DATA misses = 11. Winner = DATA
[DUEL] Epoch ended. INSTR misses = 15, DATA misses = 11. Winner = DATA
[DUEL] Epoch ended. INSTR misses = 28, DATA misses = 23. Winner = DATA
[DUEL] Epoch ended. INSTR misses = 40, DATA misses = 42. Winner = INSTR
[DUEL] Epoch ended. INSTR misses = 19, DATA misses = 35. Winner = INSTR
[DUEL] Epoch ended. INSTR misses = 20, DATA misses = 29. Winner = INSTR
[DUEL] Epoch ended. INSTR misses = 0, DATA misses = 0. Winner = INSTR
[DUEL] Epoch ended. INSTR misses = 12, DATA misses = 14. Winner = INSTR
[DUEL] Epoch ended. INSTR misses = 27, DATA misses = 22. Winner = DATA
[DUEL] Epoch ended. INSTR misses = 12, DATA misses = 12. Winner = INSTR
[DUEL] Epoch ended. INSTR misses = 34, DATA misses = 36. Winner = INSTR
[DUEL] Epoch ended. INSTR misses = 34, DATA misses = 46. Winner = INSTR
[DUEL] Epoch ended. INSTR misses = 16, DATA misses = 29. Winner = INSTR
[DUEL] Epoch ended. INSTR misses = 12, DATA misses = 14. Winner = INSTR
[DUEL] Epoch ended. INSTR misses = 12, DATA misses = 14. Winner = INSTR
[DUEL] Epoch ended. INSTR misses = 12, DATA misses = 11. Winner = DATA
Heartbeat CPU 0 instructions: 60000001 cycles: 15972921 heartbeat IPC: 2.457 cumulative IPC: 2.928 (Simulation time: 00 hr 03 min 17 sec)
[DUEL] Epoch ended. INSTR misses = 16, DATA misses = 11. Winner = DATA
[DUEL] Epoch ended. INSTR misses = 38, DATA misses = 30. Winner = DATA
[DUEL] Epoch ended. INSTR misses = 34, DATA misses = 66. Winner = INSTR
[DUEL] Epoch ended. INSTR misses = 14, DATA misses = 31. Winner = INSTR
[DUEL] Epoch ended. INSTR misses = 12, DATA misses = 14. Winner = INSTR
[DUEL] Epoch ended. INSTR misses = 0, DATA misses = 0. Winner = INSTR
[DUEL] Epoch ended. INSTR misses = 24, DATA misses = 25. Winner = INSTR
[DUEL] Epoch ended. INSTR misses = 14, DATA misses = 11. Winner = DATA
[DUEL] Epoch ended. INSTR misses = 30, DATA misses = 29. Winner = DATA
[DUEL] Epoch ended. INSTR misses = 41, DATA misses = 40. Winner = DATA
[DUEL] Epoch ended. INSTR misses = 40, DATA misses = 43. Winner = INSTR
[DUEL] Epoch ended. INSTR misses = 10, DATA misses = 23. Winner = INSTR
[DUEL] Epoch ended. INSTR misses = 12, DATA misses = 16. Winner = INSTR
[DUEL] Epoch ended. INSTR misses = 12, DATA misses = 14. Winner = INSTR
[DUEL] Epoch ended. INSTR misses = 26, DATA misses = 22. Winner = DATA
[DUEL] Epoch ended. INSTR misses = 12, DATA misses = 12. Winner = INSTR
[DUEL] Epoch ended. INSTR misses = 39, DATA misses = 42. Winner = INSTR
[DUEL] Epoch ended. INSTR misses = 45, DATA misses = 49. Winner = INSTR
[DUEL] Epoch ended. INSTR misses = 15, DATA misses = 35. Winner = INSTR
[DUEL] Epoch ended. INSTR misses = 14, DATA misses = 14. Winner = INSTR
[DUEL] Epoch ended. INSTR misses = 0, DATA misses = 0. Winner = INSTR
[DUEL] Epoch ended. INSTR misses = 24, DATA misses = 25. Winner = INSTR
[DUEL] Epoch ended. INSTR misses = 14, DATA misses = 11. Winner = DATA
[DUEL] Epoch ended. INSTR misses = 12, DATA misses = 12. Winner = INSTR
[DUEL] Epoch ended. INSTR misses = 47, DATA misses = 46. Winner = DATA
[DUEL] Epoch ended. INSTR misses = 34, DATA misses = 61. Winner = INSTR
[DUEL] Epoch ended. INSTR misses = 12, DATA misses = 14. Winner = INSTR
[DUEL] Epoch ended. INSTR misses = 0, DATA misses = 2. Winner = INSTR
[DUEL] Epoch ended. INSTR misses = 24, DATA misses = 20. Winner = DATA
[DUEL] Epoch ended. INSTR misses = 14, DATA misses = 16. Winner = INSTR
[DUEL] Epoch ended. INSTR misses = 12, DATA misses = 12. Winner = INSTR
[DUEL] Epoch ended. INSTR misses = 46, DATA misses = 48. Winner = INSTR
[DUEL] Epoch ended. INSTR misses = 37, DATA misses = 59. Winner = INSTR
[DUEL] Epoch ended. INSTR misses = 14, DATA misses = 16. Winner = INSTR
[DUEL] Epoch ended. INSTR misses = 3, DATA misses = 4. Winner = INSTR
[DUEL] Epoch ended. INSTR misses = 24, DATA misses = 25. Winner = INSTR
[DUEL] Epoch ended. INSTR misses = 14, DATA misses = 11. Winner = DATA
[DUEL] Epoch ended. INSTR misses = 14, DATA misses = 14. Winner = INSTR
Heartbeat CPU 0 instructions: 70000000 cycles: 19707104 heartbeat IPC: 2.678 cumulative IPC: 2.862 (Simulation time: 00 hr 03 min 57 sec)
[DUEL] Epoch ended. INSTR misses = 54, DATA misses = 53. Winner = DATA
[DUEL] Epoch ended. INSTR misses = 26, DATA misses = 45. Winner = INSTR
[DUEL] Epoch ended. INSTR misses = 19, DATA misses = 24. Winner = INSTR
[DUEL] Epoch ended. INSTR misses = 1, DATA misses = 0. Winner = DATA
[DUEL] Epoch ended. INSTR misses = 0, DATA misses = 0. Winner = INSTR
[DUEL] Epoch ended. INSTR misses = 0, DATA misses = 0. Winner = INSTR
[DUEL] Epoch ended. INSTR misses = 0, DATA misses = 0. Winner = INSTR
[DUEL] Epoch ended. INSTR misses = 14, DATA misses = 14. Winner = INSTR
[DUEL] Epoch ended. INSTR misses = 0, DATA misses = 0. Winner = INSTR
[DUEL] Epoch ended. INSTR misses = 23, DATA misses = 25. Winner = INSTR
[DUEL] Epoch ended. INSTR misses = 16, DATA misses = 12. Winner = DATA
[DUEL] Epoch ended. INSTR misses = 29, DATA misses = 29. Winner = INSTR
[DUEL] Epoch ended. INSTR misses = 51, DATA misses = 42. Winner = DATA
[DUEL] Epoch ended. INSTR misses = 19, DATA misses = 34. Winner = INSTR
[DUEL] Epoch ended. INSTR misses = 18, DATA misses = 15. Winner = DATA
[DUEL] Epoch ended. INSTR misses = 11, DATA misses = 14. Winner = INSTR
[DUEL] Epoch ended. INSTR misses = 26, DATA misses = 22. Winner = DATA
[DUEL] Epoch ended. INSTR misses = 14, DATA misses = 13. Winner = DATA
[DUEL] Epoch ended. INSTR misses = 49, DATA misses = 38. Winner = DATA
[DUEL] Epoch ended. INSTR misses = 30, DATA misses = 51. Winner = INSTR
[DUEL] Epoch ended. INSTR misses = 14, DATA misses = 16. Winner = INSTR
[DUEL] Epoch ended. INSTR misses = 3, DATA misses = 4. Winner = INSTR
[DUEL] Epoch ended. INSTR misses = 11, DATA misses = 14. Winner = INSTR
[DUEL] Epoch ended. INSTR misses = 26, DATA misses = 22. Winner = DATA
[DUEL] Epoch ended. INSTR misses = 13, DATA misses = 13. Winner = INSTR
[DUEL] Epoch ended. INSTR misses = 38, DATA misses = 48. Winner = INSTR
[DUEL] Epoch ended. INSTR misses = 37, DATA misses = 40. Winner = INSTR
[DUEL] Epoch ended. INSTR misses = 23, DATA misses = 34. Winner = INSTR
[DUEL] Epoch ended. INSTR misses = 2, DATA misses = 0. Winner = DATA
[DUEL] Epoch ended. INSTR misses = 11, DATA misses = 14. Winner = INSTR
[DUEL] Epoch ended. INSTR misses = 26, DATA misses = 23. Winner = DATA
[DUEL] Epoch ended. INSTR misses = 13, DATA misses = 12. Winner = DATA
[DUEL] Epoch ended. INSTR misses = 54, DATA misses = 43. Winner = DATA
[DUEL] Epoch ended. INSTR misses = 31, DATA misses = 36. Winner = INSTR
[DUEL] Epoch ended. INSTR misses = 23, DATA misses = 34. Winner = INSTR
[DUEL] Epoch ended. INSTR misses = 2, DATA misses = 2. Winner = INSTR
[DUEL] Epoch ended. INSTR misses = 10, DATA misses = 14. Winner = INSTR
[DUEL] Epoch ended. INSTR misses = 26, DATA misses = 23. Winner = DATA
Heartbeat CPU 0 instructions: 80000003 cycles: 22988306 heartbeat IPC: 3.048 cumulative IPC: 2.897 (Simulation time: 00 hr 04 min 34 sec)
[DUEL] Epoch ended. INSTR misses = 12, DATA misses = 12. Winner = INSTR
[DUEL] Epoch ended. INSTR misses = 65, DATA misses = 43. Winner = DATA
[DUEL] Epoch ended. INSTR misses = 30, DATA misses = 33. Winner = INSTR
[DUEL] Epoch ended. INSTR misses = 21, DATA misses = 32. Winner = INSTR
[DUEL] Epoch ended. INSTR misses = 2, DATA misses = 0. Winner = DATA
[DUEL] Epoch ended. INSTR misses = 10, DATA misses = 14. Winner = INSTR
[DUEL] Epoch ended. INSTR misses = 25, DATA misses = 22. Winner = DATA
[DUEL] Epoch ended. INSTR misses = 12, DATA misses = 12. Winner = INSTR
[DUEL] Epoch ended. INSTR misses = 36, DATA misses = 39. Winner = INSTR
[DUEL] Epoch ended. INSTR misses = 53, DATA misses = 49. Winner = DATA
[DUEL] Epoch ended. INSTR misses = 12, DATA misses = 20. Winner = INSTR
[DUEL] Epoch ended. INSTR misses = 16, DATA misses = 14. Winner = DATA
[DUEL] Epoch ended. INSTR misses = 10, DATA misses = 14. Winner = INSTR
[DUEL] Epoch ended. INSTR misses = 11, DATA misses = 11. Winner = INSTR
[DUEL] Epoch ended. INSTR misses = 13, DATA misses = 11. Winner = DATA
[DUEL] Epoch ended. INSTR misses = 44, DATA misses = 23. Winner = DATA
[DUEL] Epoch ended. INSTR misses = 40, DATA misses = 51. Winner = INSTR
[DUEL] Epoch ended. INSTR misses = 26, DATA misses = 42. Winner = INSTR
[DUEL] Epoch ended. INSTR misses = 12, DATA misses = 14. Winner = INSTR
[DUEL] Epoch ended. INSTR misses = 0, DATA misses = 0. Winner = INSTR
[DUEL] Epoch ended. INSTR misses = 21, DATA misses = 25. Winner = INSTR
[DUEL] Epoch ended. INSTR misses = 12, DATA misses = 11. Winner = DATA
[DUEL] Epoch ended. INSTR misses = 12, DATA misses = 12. Winner = INSTR
[DUEL] Epoch ended. INSTR misses = 46, DATA misses = 46. Winner = INSTR
[DUEL] Epoch ended. INSTR misses = 32, DATA misses = 36. Winner = INSTR
[DUEL] Epoch ended. INSTR misses = 20, DATA misses = 29. Winner = INSTR
[DUEL] Epoch ended. INSTR misses = 2, DATA misses = 0. Winner = DATA
[DUEL] Epoch ended. INSTR misses = 10, DATA misses = 14. Winner = INSTR
[DUEL] Epoch ended. INSTR misses = 23, DATA misses = 22. Winner = DATA
[DUEL] Epoch ended. INSTR misses = 12, DATA misses = 12. Winner = INSTR
[DUEL] Epoch ended. INSTR misses = 36, DATA misses = 34. Winner = DATA
[DUEL] Epoch ended. INSTR misses = 40, DATA misses = 32. Winner = DATA
[DUEL] Epoch ended. INSTR misses = 11, DATA misses = 25. Winner = INSTR
[DUEL] Epoch ended. INSTR misses = 14, DATA misses = 14. Winner = INSTR
[DUEL] Epoch ended. INSTR misses = 10, DATA misses = 14. Winner = INSTR
[DUEL] Epoch ended. INSTR misses = 23, DATA misses = 22. Winner = DATA
[DUEL] Epoch ended. INSTR misses = 12, DATA misses = 12. Winner = INSTR
[DUEL] Epoch ended. INSTR misses = 40, DATA misses = 28. Winner = DATA
Heartbeat CPU 0 instructions: 90000009 cycles: 26845564 heartbeat IPC: 2.593 cumulative IPC: 2.841 (Simulation time: 00 hr 05 min 14 sec)
[DUEL] Epoch ended. INSTR misses = 41, DATA misses = 36. Winner = DATA
[DUEL] Epoch ended. INSTR misses = 17, DATA misses = 28. Winner = INSTR
[DUEL] Epoch ended. INSTR misses = 12, DATA misses = 14. Winner = INSTR
[DUEL] Epoch ended. INSTR misses = 10, DATA misses = 14. Winner = INSTR
[DUEL] Epoch ended. INSTR misses = 11, DATA misses = 11. Winner = INSTR
[DUEL] Epoch ended. INSTR misses = 12, DATA misses = 11. Winner = DATA
[DUEL] Epoch ended. INSTR misses = 32, DATA misses = 22. Winner = DATA
[DUEL] Epoch ended. INSTR misses = 51, DATA misses = 45. Winner = DATA
[DUEL] Epoch ended. INSTR misses = 41, DATA misses = 53. Winner = INSTR
[DUEL] Epoch ended. INSTR misses = 12, DATA misses = 14. Winner = INSTR
[DUEL] Epoch ended. INSTR misses = 4, DATA misses = 3. Winner = DATA
[DUEL] Epoch ended. INSTR misses = 10, DATA misses = 14. Winner = INSTR
[DUEL] Epoch ended. INSTR misses = 23, DATA misses = 22. Winner = DATA
[DUEL] Epoch ended. INSTR misses = 12, DATA misses = 12. Winner = INSTR
[DUEL] Epoch ended. INSTR misses = 43, DATA misses = 33. Winner = DATA
[DUEL] Epoch ended. INSTR misses = 38, DATA misses = 43. Winner = INSTR
[DUEL] Epoch ended. INSTR misses = 13, DATA misses = 25. Winner = INSTR
[DUEL] Epoch ended. INSTR misses = 18, DATA misses = 18. Winner = INSTR
[DUEL] Epoch ended. INSTR misses = 1, DATA misses = 3. Winner = INSTR
[DUEL] Epoch ended. INSTR misses = 21, DATA misses = 25. Winner = INSTR
[DUEL] Epoch ended. INSTR misses = 12, DATA misses = 11. Winner = DATA
[DUEL] Epoch ended. INSTR misses = 32, DATA misses = 22. Winner = DATA
[DUEL] Epoch ended. INSTR misses = 48, DATA misses = 52. Winner = INSTR
[DUEL] Epoch ended. INSTR misses = 31, DATA misses = 47. Winner = INSTR
[DUEL] Epoch ended. INSTR misses = 23, DATA misses = 29. Winner = INSTR
[DUEL] Epoch ended. INSTR misses = 0, DATA misses = 0. Winner = INSTR
[DUEL] Epoch ended. INSTR misses = 0, DATA misses = 0. Winner = INSTR
[DUEL] Epoch ended. INSTR misses = 0, DATA misses = 0. Winner = INSTR
[DUEL] Epoch ended. INSTR misses = 12, DATA misses = 14. Winner = INSTR
[DUEL] Epoch ended. INSTR misses = 0, DATA misses = 0. Winner = INSTR
[DUEL] Epoch ended. INSTR misses = 10, DATA misses = 14. Winner = INSTR
[DUEL] Epoch ended. INSTR misses = 24, DATA misses = 22. Winner = DATA
[DUEL] Epoch ended. INSTR misses = 13, DATA misses = 13. Winner = INSTR
[DUEL] Epoch ended. INSTR misses = 34, DATA misses = 30. Winner = DATA
[DUEL] Epoch ended. INSTR misses = 37, DATA misses = 38. Winner = INSTR
[DUEL] Epoch ended. INSTR misses = 34, DATA misses = 56. Winner = INSTR
[DUEL] Epoch ended. INSTR misses = 15, DATA misses = 19. Winner = INSTR
[DUEL] Epoch ended. INSTR misses = 2, DATA misses = 1. Winner = DATA
Heartbeat CPU 0 instructions: 100000000 cycles: 30644786 heartbeat IPC: 2.632 cumulative IPC: 2.809 (Simulation time: 00 hr 05 min 54 sec)
[DUEL] Epoch ended. INSTR misses = 10, DATA misses = 14. Winner = INSTR
[DUEL] Epoch ended. INSTR misses = 23, DATA misses = 22. Winner = DATA
[DUEL] Epoch ended. INSTR misses = 14, DATA misses = 13. Winner = DATA
*** Reached end of trace: (0, "../traces/secret_traces/compute_fp/compute_fp_49.champsimtrace.xz")
[DUEL] Epoch ended. INSTR misses = 23, DATA misses = 15. Winner = DATA
[DUEL] Epoch ended. INSTR misses = 8, DATA misses = 1. Winner = DATA
[DUEL] Epoch ended. INSTR misses = 20, DATA misses = 24. Winner = INSTR
[DUEL] Epoch ended. INSTR misses = 19, DATA misses = 26. Winner = INSTR
[DUEL] Epoch ended. INSTR misses = 13, DATA misses = 12. Winner = DATA
[DUEL] Epoch ended. INSTR misses = 58, DATA misses = 53. Winner = DATA
[DUEL] Epoch ended. INSTR misses = 44, DATA misses = 34. Winner = DATA
[DUEL] Epoch ended. INSTR misses = 23, DATA misses = 28. Winner = INSTR
[DUEL] Epoch ended. INSTR misses = 2, DATA misses = 1. Winner = DATA
[DUEL] Epoch ended. INSTR misses = 10, DATA misses = 14. Winner = INSTR
[DUEL] Epoch ended. INSTR misses = 23, DATA misses = 22. Winner = DATA
[DUEL] Epoch ended. INSTR misses = 12, DATA misses = 12. Winner = INSTR
[DUEL] Epoch ended. INSTR misses = 51, DATA misses = 47. Winner = DATA
[DUEL] Epoch ended. INSTR misses = 40, DATA misses = 37. Winner = DATA
[DUEL] Epoch ended. INSTR misses = 28, DATA misses = 28. Winner = INSTR
[DUEL] Epoch ended. INSTR misses = 0, DATA misses = 3. Winner = INSTR
[DUEL] Epoch ended. INSTR misses = 10, DATA misses = 14. Winner = INSTR
[DUEL] Epoch ended. INSTR misses = 23, DATA misses = 22. Winner = DATA
[DUEL] Epoch ended. INSTR misses = 12, DATA misses = 12. Winner = INSTR
[DUEL] Epoch ended. INSTR misses = 29, DATA misses = 21. Winner = DATA
[DUEL] Epoch ended. INSTR misses = 61, DATA misses = 43. Winner = DATA
[DUEL] Epoch ended. INSTR misses = 29, DATA misses = 33. Winner = INSTR
[DUEL] Epoch ended. INSTR misses = 21, DATA misses = 29. Winner = INSTR
[DUEL] Epoch ended. INSTR misses = 0, DATA misses = 0. Winner = INSTR
[DUEL] Epoch ended. INSTR misses = 10, DATA misses = 14. Winner = INSTR
[DUEL] Epoch ended. INSTR misses = 23, DATA misses = 22. Winner = DATA
[DUEL] Epoch ended. INSTR misses = 12, DATA misses = 12. Winner = INSTR
[DUEL] Epoch ended. INSTR misses = 56, DATA misses = 39. Winner = DATA
[DUEL] Epoch ended. INSTR misses = 41, DATA misses = 47. Winner = INSTR
[DUEL] Epoch ended. INSTR misses = 20, DATA misses = 27. Winner = INSTR
[DUEL] Epoch ended. INSTR misses = 13, DATA misses = 14. Winner = INSTR
[DUEL] Epoch ended. INSTR misses = 6, DATA misses = 6. Winner = INSTR
[DUEL] Epoch ended. INSTR misses = 10, DATA misses = 14. Winner = INSTR
[DUEL] Epoch ended. INSTR misses = 23, DATA misses = 22. Winner = DATA
[DUEL] Epoch ended. INSTR misses = 12, DATA misses = 12. Winner = INSTR
Heartbeat CPU 0 instructions: 110000003 cycles: 35820884 heartbeat IPC: 1.932 cumulative IPC: 2.658 (Simulation time: 00 hr 06 min 41 sec)
[DUEL] Epoch ended. INSTR misses = 43, DATA misses = 34. Winner = DATA
[DUEL] Epoch ended. INSTR misses = 45, DATA misses = 43. Winner = DATA
[DUEL] Epoch ended. INSTR misses = 29, DATA misses = 29. Winner = INSTR
[DUEL] Epoch ended. INSTR misses = 12, DATA misses = 14. Winner = INSTR
[DUEL] Epoch ended. INSTR misses = 0, DATA misses = 0. Winner = INSTR
[DUEL] Epoch ended. INSTR misses = 10, DATA misses = 14. Winner = INSTR
[DUEL] Epoch ended. INSTR misses = 23, DATA misses = 22. Winner = DATA
[DUEL] Epoch ended. INSTR misses = 12, DATA misses = 12. Winner = INSTR
[DUEL] Epoch ended. INSTR misses = 48, DATA misses = 42. Winner = DATA
[DUEL] Epoch ended. INSTR misses = 53, DATA misses = 52. Winner = DATA
[DUEL] Epoch ended. INSTR misses = 22, DATA misses = 28. Winner = INSTR
[DUEL] Epoch ended. INSTR misses = 7, DATA misses = 7. Winner = INSTR
[DUEL] Epoch ended. INSTR misses = 10, DATA misses = 14. Winner = INSTR
[DUEL] Epoch ended. INSTR misses = 11, DATA misses = 11. Winner = INSTR
[DUEL] Epoch ended. INSTR misses = 12, DATA misses = 11. Winner = DATA
[DUEL] Epoch ended. INSTR misses = 35, DATA misses = 38. Winner = INSTR
[DUEL] Epoch ended. INSTR misses = 52, DATA misses = 41. Winner = DATA
[DUEL] Epoch ended. INSTR misses = 27, DATA misses = 41. Winner = INSTR
[DUEL] Epoch ended. INSTR misses = 12, DATA misses = 14. Winner = INSTR
[DUEL] Epoch ended. INSTR misses = 0, DATA misses = 0. Winner = INSTR
[DUEL] Epoch ended. INSTR misses = 21, DATA misses = 24. Winner = INSTR
[DUEL] Epoch ended. INSTR misses = 12, DATA misses = 11. Winner = DATA
[DUEL] Epoch ended. INSTR misses = 25, DATA misses = 20. Winner = DATA
[DUEL] Epoch ended. INSTR misses = 35, DATA misses = 40. Winner = INSTR
[DUEL] Epoch ended. INSTR misses = 34, DATA misses = 37. Winner = INSTR
[DUEL] Epoch ended. INSTR misses = 19, DATA misses = 28. Winner = INSTR
[DUEL] Epoch ended. INSTR misses = 4, DATA misses = 0. Winner = DATA
[DUEL] Epoch ended. INSTR misses = 10, DATA misses = 13. Winner = INSTR
[DUEL] Epoch ended. INSTR misses = 23, DATA misses = 21. Winner = DATA
[DUEL] Epoch ended. INSTR misses = 12, DATA misses = 12. Winner = INSTR
[DUEL] Epoch ended. INSTR misses = 44, DATA misses = 46. Winner = INSTR
[DUEL] Epoch ended. INSTR misses = 37, DATA misses = 36. Winner = DATA
[DUEL] Epoch ended. INSTR misses = 19, DATA misses = 28. Winner = INSTR
[DUEL] Epoch ended. INSTR misses = 2, DATA misses = 0. Winner = DATA
[DUEL] Epoch ended. INSTR misses = 10, DATA misses = 13. Winner = INSTR
[DUEL] Epoch ended. INSTR misses = 40, DATA misses = 38. Winner = DATA
[DUEL] Epoch ended. INSTR misses = 12, DATA misses = 12. Winner = INSTR
[DUEL] Epoch ended. INSTR misses = 45, DATA misses = 33. Winner = DATA
[DUEL] Epoch ended. INSTR misses = 35, DATA misses = 40. Winner = INSTR
Heartbeat CPU 0 instructions: 120000000 cycles: 39537716 heartbeat IPC: 2.69 cumulative IPC: 2.662 (Simulation time: 00 hr 07 min 21 sec)
[DUEL] Epoch ended. INSTR misses = 14, DATA misses = 22. Winner = INSTR
[DUEL] Epoch ended. INSTR misses = 14, DATA misses = 14. Winner = INSTR
[DUEL] Epoch ended. INSTR misses = 10, DATA misses = 13. Winner = INSTR
[DUEL] Epoch ended. INSTR misses = 23, DATA misses = 21. Winner = DATA
[DUEL] Epoch ended. INSTR misses = 12, DATA misses = 12. Winner = INSTR
[DUEL] Epoch ended. INSTR misses = 46, DATA misses = 41. Winner = DATA
[DUEL] Epoch ended. INSTR misses = 33, DATA misses = 45. Winner = INSTR
[DUEL] Epoch ended. INSTR misses = 27, DATA misses = 35. Winner = INSTR
[DUEL] Epoch ended. INSTR misses = 0, DATA misses = 0. Winner = INSTR
[DUEL] Epoch ended. INSTR misses = 0, DATA misses = 0. Winner = INSTR
[DUEL] Epoch ended. INSTR misses = 12, DATA misses = 14. Winner = INSTR
[DUEL] Epoch ended. INSTR misses = 2, DATA misses = 0. Winner = DATA
[DUEL] Epoch ended. INSTR misses = 10, DATA misses = 13. Winner = INSTR
[DUEL] Epoch ended. INSTR misses = 23, DATA misses = 21. Winner = DATA
[DUEL] Epoch ended. INSTR misses = 12, DATA misses = 12. Winner = INSTR
[DUEL] Epoch ended. INSTR misses = 45, DATA misses = 43. Winner = DATA
[DUEL] Epoch ended. INSTR misses = 31, DATA misses = 38. Winner = INSTR
[DUEL] Epoch ended. INSTR misses = 20, DATA misses = 28. Winner = INSTR
[DUEL] Epoch ended. INSTR misses = 2, DATA misses = 0. Winner = DATA
[DUEL] Epoch ended. INSTR misses = 10, DATA misses = 13. Winner = INSTR
[DUEL] Epoch ended. INSTR misses = 23, DATA misses = 21. Winner = DATA
[DUEL] Epoch ended. INSTR misses = 12, DATA misses = 12. Winner = INSTR
[DUEL] Epoch ended. INSTR misses = 46, DATA misses = 38. Winner = DATA
[DUEL] Epoch ended. INSTR misses = 31, DATA misses = 39. Winner = INSTR
[DUEL] Epoch ended. INSTR misses = 13, DATA misses = 17. Winner = INSTR
[DUEL] Epoch ended. INSTR misses = 2, DATA misses = 0. Winner = DATA
[DUEL] Epoch ended. INSTR misses = 10, DATA misses = 13. Winner = INSTR
[DUEL] Epoch ended. INSTR misses = 23, DATA misses = 21. Winner = DATA
[DUEL] Epoch ended. INSTR misses = 12, DATA misses = 12. Winner = INSTR
[DUEL] Epoch ended. INSTR misses = 42, DATA misses = 32. Winner = DATA
[DUEL] Epoch ended. INSTR misses = 41, DATA misses = 46. Winner = INSTR
[DUEL] Epoch ended. INSTR misses = 13, DATA misses = 16. Winner = INSTR
[DUEL] Epoch ended. INSTR misses = 0, DATA misses = 0. Winner = INSTR
[DUEL] Epoch ended. INSTR misses = 10, DATA misses = 13. Winner = INSTR
[DUEL] Epoch ended. INSTR misses = 23, DATA misses = 22. Winner = DATA
Heartbeat CPU 0 instructions: 130000000 cycles: 42540717 heartbeat IPC: 3.33 cumulative IPC: 2.716 (Simulation time: 00 hr 07 min 56 sec)
Simulation finished CPU 0 instructions: 100000009 cycles: 36812198 cumulative IPC: 2.716 (Simulation time: 00 hr 07 min 56 sec)
Simulation complete CPU 0 instructions: 100000009 cycles: 36812198 cumulative IPC: 2.716 (Simulation time: 00 hr 07 min 56 sec)

ChampSim completed all CPUs

=== Simulation ===
CPU 0 runs ../traces/secret_traces/compute_fp/compute_fp_49.champsimtrace.xz
Region of Interest Statistics

CPU 0 cumulative IPC: 2.716 instructions: 100000009 cycles: 36812198
CPU 0 Branch Prediction Accuracy: 98.61% MPKI: 1.741 Average ROB Occupancy at Mispredict: 96.78
Branch type MPKI
BRANCH_DIRECT_JUMP: 0.0117
BRANCH_INDIRECT: 0.929
BRANCH_CONDITIONAL: 0.763
BRANCH_DIRECT_CALL: 0.0223
BRANCH_INDIRECT_CALL: 0.00315
BRANCH_RETURN: 0.0122

LLC TOTAL        ACCESS:    2860970 HIT:    1997493 MISS:     863477
LLC LOAD         ACCESS:     398203 HIT:     206899 MISS:     191304
LLC RFO          ACCESS:     191777 HIT:     162040 MISS:      29737
LLC PREFETCH     ACCESS:    1997952 HIT:    1404968 MISS:     592984
LLC WRITE        ACCESS:     252823 HIT:     215482 MISS:      37341
LLC TRANSLATION  ACCESS:      20215 HIT:       8104 MISS:      12111
LLC PREFETCH REQUESTED:          0 ISSUED:          0 USEFUL:          0 USELESS:          0
LLC AVERAGE MISS LATENCY: 158.6 cycles
cpu0_DTLB TOTAL        ACCESS:   20152201 HIT:   19827371 MISS:     324830
cpu0_DTLB LOAD         ACCESS:   20152201 HIT:   19827371 MISS:     324830
cpu0_DTLB RFO          ACCESS:          0 HIT:          0 MISS:          0
cpu0_DTLB PREFETCH     ACCESS:          0 HIT:          0 MISS:          0
cpu0_DTLB WRITE        ACCESS:          0 HIT:          0 MISS:          0
cpu0_DTLB TRANSLATION  ACCESS:          0 HIT:          0 MISS:          0
cpu0_DTLB PREFETCH REQUESTED:          0 ISSUED:          0 USEFUL:          0 USELESS:          0
cpu0_DTLB AVERAGE MISS LATENCY: 12.09 cycles
cpu0_ITLB TOTAL        ACCESS:     229167 HIT:     227656 MISS:       1511
cpu0_ITLB LOAD         ACCESS:     229167 HIT:     227656 MISS:       1511
cpu0_ITLB RFO          ACCESS:          0 HIT:          0 MISS:          0
cpu0_ITLB PREFETCH     ACCESS:          0 HIT:          0 MISS:          0
cpu0_ITLB WRITE        ACCESS:          0 HIT:          0 MISS:          0
cpu0_ITLB TRANSLATION  ACCESS:          0 HIT:          0 MISS:          0
cpu0_ITLB PREFETCH REQUESTED:          0 ISSUED:          0 USEFUL:          0 USELESS:          0
cpu0_ITLB AVERAGE MISS LATENCY: 59.42 cycles
cpu0_L1D TOTAL        ACCESS:   40476882 HIT:   34557986 MISS:    5918896
cpu0_L1D LOAD         ACCESS:   18761990 HIT:   16275782 MISS:    2486208
cpu0_L1D RFO          ACCESS:          0 HIT:          0 MISS:          0
cpu0_L1D PREFETCH     ACCESS:   18388370 HIT:   15528370 MISS:    2860000
cpu0_L1D WRITE        ACCESS:    3281461 HIT:    2744278 MISS:     537183
cpu0_L1D TRANSLATION  ACCESS:      45061 HIT:       9556 MISS:      35505
cpu0_L1D PREFETCH REQUESTED:   93505736 ISSUED:   18388376 USEFUL:    1485445 USELESS:      29061
cpu0_L1D AVERAGE MISS LATENCY: 19.91 cycles
cpu0_L1I TOTAL        ACCESS:     339187 HIT:     297921 MISS:      41266
cpu0_L1I LOAD         ACCESS:     126781 HIT:     115159 MISS:      11622
cpu0_L1I RFO          ACCESS:          0 HIT:          0 MISS:          0
cpu0_L1I PREFETCH     ACCESS:     212406 HIT:     182762 MISS:      29644
cpu0_L1I WRITE        ACCESS:          0 HIT:          0 MISS:          0
cpu0_L1I TRANSLATION  ACCESS:          0 HIT:          0 MISS:          0
cpu0_L1I PREFETCH REQUESTED:     325632 ISSUED:     212406 USEFUL:      17397 USELESS:       9805
cpu0_L1I AVERAGE MISS LATENCY: 108.3 cycles
cpu0_L2C TOTAL        ACCESS:    8183223 HIT:    4485591 MISS:    3697632
cpu0_L2C LOAD         ACCESS:    1061326 HIT:     595404 MISS:     465922
cpu0_L2C RFO          ACCESS:     245384 HIT:      53561 MISS:     191823
cpu0_L2C PREFETCH     ACCESS:    6545255 HIT:    3525623 MISS:    3019632
cpu0_L2C WRITE        ACCESS:     295922 HIT:     295882 MISS:         40
cpu0_L2C TRANSLATION  ACCESS:      35336 HIT:      15121 MISS:      20215
cpu0_L2C PREFETCH REQUESTED:    3841725 ISSUED:    3766005 USEFUL:     816256 USELESS:     376948
cpu0_L2C AVERAGE MISS LATENCY: 50.75 cycles
cpu0_STLB TOTAL        ACCESS:     137838 HIT:      93054 MISS:      44784
cpu0_STLB LOAD         ACCESS:     137838 HIT:      93054 MISS:      44784
cpu0_STLB RFO          ACCESS:          0 HIT:          0 MISS:          0
cpu0_STLB PREFETCH     ACCESS:          0 HIT:          0 MISS:          0
cpu0_STLB WRITE        ACCESS:          0 HIT:          0 MISS:          0
cpu0_STLB TRANSLATION  ACCESS:          0 HIT:          0 MISS:          0
cpu0_STLB PREFETCH REQUESTED:          0 ISSUED:          0 USEFUL:          0 USELESS:          0
cpu0_STLB AVERAGE MISS LATENCY: 92.49 cycles

DRAM Statistics

Channel 0 RQ ROW_BUFFER_HIT:     254409
  ROW_BUFFER_MISS:     163917
 AVG DBUS CONGESTED CYCLE: 3.841
WQ ROW_BUFFER_HIT: Channel 0 
  ROW_BUFFER_MISS:       5043
  FULL:      16977

Channel 1 RQ ROW_BUFFER_HIT:     246357
  ROW_BUFFER_MISS:     161414
 AVG DBUS CONGESTED CYCLE: 3.836
WQ ROW_BUFFER_HIT: Channel 1 
  ROW_BUFFER_MISS:       4859
  FULL:      16526
BERTI TO_L1: 95686989 TO_L2: 29817893 TO_L2_BC_MSHR: 1393145
BERTI AVG_LAT: 55.0868 NUM_TRACK_LATENCY: 3350243 NUM_CANT_TRACK_LATENCY: 0
BERTI CROSS_PAGE 27630724 NO_CROSS_PAGE: 97874158
BERTI FOUND_BERTI: 16691643 NO_FOUND_BERTI: 8346152
BERTI AVERAGE_ISSUED: 3.57984
CPU 0 L1I Entangling prefetcher final stats
IP accesses: 6d 1b40 2312 / 146724
IP misses: 38a6 e2980 677 / 31565
IP hits: 0 0 0 / 0
IP late: 5aed 16bb40 20 / 6097
IP wrong: e8e9 3a3a40 25 / 9750
miss rate: 0.215132
coverage: 0
coverage_late: 0.193157
accuracy: 0
accuracy_late: 0.384742
discarded: 0
evicts entangled j table: 0
evicts entangled k table: 1652
max bb size: 65
formats: 458 0 1389 727 388 754 0 
hist_lookups: 1269 1324 1030 880 765 675 568 383 316 278 210 131 117 77 39 0 3 3860 
hist_lookups_evict: 0.0251573 %
hist_lookups_shortlat: 32.369 %
bb_found_hist: 0 24639 8806 5673 3072 1429 2289 115 215 152 72 20 12 50 3 4 19 0 50 0 0 0 0 0 0 0 0 0 0 0 0 0 0 0 0 0 0 0 0 0 0 0 0 0 0 0 0 0 0 2 0 0 0 0 0 0 0 0 0 0 0 0 0 0 
bb_found_summary: 99468 46622 2.1335
entangled_found_hist: 0 13702 11503 12825 3093 1418 139 0 
entangled_found_summary: 95479 42680 2.23709
bb_ent_found_hist: 0 33896 13656 7465 4659 4282 709 321 660 472 125 0 0 323 0 24 1 0 393 0 0 0 0 0 0 0 0 0 0 0 0 0 0 0 0 0 0 0 0 0 0 0 0 0 0 0 0 0 0 2 0 0 0 0 0 0 0 0 0 0 0 0 0 0 
bb_ent_found_summary: 152675 66988 2.27914
