WARNING: physical memory size is smaller than virtual memory size.

*** ChampSim Multicore Out-of-Order Simulator ***
Warmup Instructions: 30000000
Simulation Instructions: 100000000
Number of CPUs: 1
Page size: 4096

BTB:
Basic BTB sets: 1024 ways: 8
Indirect:
history lengths: 0 0 10 16 27 44 60 96 109 219 449 487 714 1313 2146 3881 
ITTAGE tables: 64768 bytes;Region table: 240 bytes;IUM: 384 bytes;Total Storage= 65392 bytes;
RAS:
RAS size: 64
[LLC] INSTR Demand IPV: 1 2 2 1 4 Prefetch IPV: 1 2 1 1 4
[LLC] DATA  Demand IPV: 1 1 1 2 4 Prefetch IPV: 1 1 2 2 4
Berti Prefetcher
CPU 0 Entangling prefetcher
Off-chip DRAM Size: 8 GiB Channels: 2 Width: 64-bit Data Race: 6400 MT/s
[DUEL] Epoch ended. INSTR misses = 35, DATA misses = 29. Winner = DATA
[DUEL] Epoch ended. INSTR misses = 100, DATA misses = 99. Winner = DATA
[DUEL] Epoch ended. INSTR misses = 49, DATA misses = 48. Winner = DATA
[DUEL] Epoch ended. INSTR misses = 43, DATA misses = 51. Winner = INSTR
[DUEL] Epoch ended. INSTR misses = 46, DATA misses = 50. Winner = INSTR
[DUEL] Epoch ended. INSTR misses = 79, DATA misses = 57. Winner = DATA
[DUEL] Epoch ended. INSTR misses = 83, DATA misses = 89. Winner = INSTR
[DUEL] Epoch ended. INSTR misses = 55, DATA misses = 65. Winner = INSTR
[DUEL] Epoch ended. INSTR misses = 63, DATA misses = 70. Winner = INSTR
[DUEL] Epoch ended. INSTR misses = 36, DATA misses = 36. Winner = INSTR
[DUEL] Epoch ended. INSTR misses = 75, DATA misses = 75. Winner = INSTR
[DUEL] Epoch ended. INSTR misses = 32, DATA misses = 32. Winner = INSTR
[DUEL] Epoch ended. INSTR misses = 48, DATA misses = 48. Winner = INSTR
[DUEL] Epoch ended. INSTR misses = 88, DATA misses = 91. Winner = INSTR
[DUEL] Epoch ended. INSTR misses = 66, DATA misses = 59. Winner = DATA
[DUEL] Epoch ended. INSTR misses = 44, DATA misses = 48. Winner = INSTR
[DUEL] Epoch ended. INSTR misses = 48, DATA misses = 48. Winner = INSTR
[DUEL] Epoch ended. INSTR misses = 16, DATA misses = 16. Winner = INSTR
[DUEL] Epoch ended. INSTR misses = 0, DATA misses = 0. Winner = INSTR
[DUEL] Epoch ended. INSTR misses = 17, DATA misses = 16. Winner = DATA
[DUEL] Epoch ended. INSTR misses = 17, DATA misses = 16. Winner = DATA
[DUEL] Epoch ended. INSTR misses = 32, DATA misses = 30. Winner = DATA
[DUEL] Epoch ended. INSTR misses = 15, DATA misses = 15. Winner = INSTR
[DUEL] Epoch ended. INSTR misses = 32, DATA misses = 32. Winner = INSTR
[DUEL] Epoch ended. INSTR misses = 46, DATA misses = 47. Winner = INSTR
[DUEL] Epoch ended. INSTR misses = 32, DATA misses = 32. Winner = INSTR
[DUEL] Epoch ended. INSTR misses = 16, DATA misses = 16. Winner = INSTR
[DUEL] Epoch ended. INSTR misses = 1, DATA misses = 0. Winner = DATA
[DUEL] Epoch ended. INSTR misses = 32, DATA misses = 31. Winner = DATA
[DUEL] Epoch ended. INSTR misses = 44, DATA misses = 44. Winner = INSTR
[DUEL] Epoch ended. INSTR misses = 30, DATA misses = 30. Winner = INSTR
[DUEL] Epoch ended. INSTR misses = 27, DATA misses = 31. Winner = INSTR
[DUEL] Epoch ended. INSTR misses = 18, DATA misses = 15. Winner = DATA
[DUEL] Epoch ended. INSTR misses = 28, DATA misses = 30. Winner = INSTR
[DUEL] Epoch ended. INSTR misses = 32, DATA misses = 31. Winner = DATA
[DUEL] Epoch ended. INSTR misses = 15, DATA misses = 15. Winner = INSTR
[DUEL] Epoch ended. INSTR misses = 16, DATA misses = 16. Winner = INSTR
[DUEL] Epoch ended. INSTR misses = 17, DATA misses = 16. Winner = DATA
[DUEL] Epoch ended. INSTR misses = 18, DATA misses = 16. Winner = DATA
Heartbeat CPU 0 instructions: 10000004 cycles: 1786909 heartbeat IPC: 5.596 cumulative IPC: 5.596 (Simulation time: 00 hr 00 min 31 sec)
[DUEL] Epoch ended. INSTR misses = 31, DATA misses = 30. Winner = DATA
[DUEL] Epoch ended. INSTR misses = 17, DATA misses = 16. Winner = DATA
[DUEL] Epoch ended. INSTR misses = 1, DATA misses = 0. Winner = DATA
[DUEL] Epoch ended. INSTR misses = 16, DATA misses = 16. Winner = INSTR
[DUEL] Epoch ended. INSTR misses = 30, DATA misses = 31. Winner = INSTR
[DUEL] Epoch ended. INSTR misses = 42, DATA misses = 45. Winner = INSTR
[DUEL] Epoch ended. INSTR misses = 1, DATA misses = 0. Winner = DATA
[DUEL] Epoch ended. INSTR misses = 18, DATA misses = 16. Winner = DATA
[DUEL] Epoch ended. INSTR misses = 54, DATA misses = 57. Winner = INSTR
[DUEL] Epoch ended. INSTR misses = 32, DATA misses = 36. Winner = INSTR
[DUEL] Epoch ended. INSTR misses = 24, DATA misses = 23. Winner = DATA
[DUEL] Epoch ended. INSTR misses = 22, DATA misses = 18. Winner = DATA
[DUEL] Epoch ended. INSTR misses = 17, DATA misses = 16. Winner = DATA
[DUEL] Epoch ended. INSTR misses = 38, DATA misses = 46. Winner = INSTR
[DUEL] Epoch ended. INSTR misses = 33, DATA misses = 37. Winner = INSTR
[DUEL] Epoch ended. INSTR misses = 23, DATA misses = 16. Winner = DATA
[DUEL] Epoch ended. INSTR misses = 31, DATA misses = 28. Winner = DATA
[DUEL] Epoch ended. INSTR misses = 33, DATA misses = 37. Winner = INSTR
[DUEL] Epoch ended. INSTR misses = 30, DATA misses = 29. Winner = DATA
[DUEL] Epoch ended. INSTR misses = 33, DATA misses = 37. Winner = INSTR
[DUEL] Epoch ended. INSTR misses = 19, DATA misses = 16. Winner = DATA
[DUEL] Epoch ended. INSTR misses = 18, DATA misses = 16. Winner = DATA
[DUEL] Epoch ended. INSTR misses = 38, DATA misses = 43. Winner = INSTR
[DUEL] Epoch ended. INSTR misses = 27, DATA misses = 21. Winner = DATA
[DUEL] Epoch ended. INSTR misses = 29, DATA misses = 20. Winner = DATA
[DUEL] Epoch ended. INSTR misses = 16, DATA misses = 16. Winner = INSTR
[DUEL] Epoch ended. INSTR misses = 26, DATA misses = 34. Winner = INSTR
[DUEL] Epoch ended. INSTR misses = 23, DATA misses = 19. Winner = DATA
[DUEL] Epoch ended. INSTR misses = 29, DATA misses = 20. Winner = DATA
[DUEL] Epoch ended. INSTR misses = 29, DATA misses = 30. Winner = INSTR
[DUEL] Epoch ended. INSTR misses = 40, DATA misses = 47. Winner = INSTR
[DUEL] Epoch ended. INSTR misses = 16, DATA misses = 16. Winner = INSTR
[DUEL] Epoch ended. INSTR misses = 29, DATA misses = 28. Winner = DATA
[DUEL] Epoch ended. INSTR misses = 16, DATA misses = 16. Winner = INSTR
[DUEL] Epoch ended. INSTR misses = 16, DATA misses = 16. Winner = INSTR
[DUEL] Epoch ended. INSTR misses = 32, DATA misses = 32. Winner = INSTR
[DUEL] Epoch ended. INSTR misses = 64, DATA misses = 63. Winner = DATA
[DUEL] Epoch ended. INSTR misses = 16, DATA misses = 16. Winner = INSTR
[DUEL] Epoch ended. INSTR misses = 16, DATA misses = 16. Winner = INSTR
Heartbeat CPU 0 instructions: 20000006 cycles: 3572559 heartbeat IPC: 5.6 cumulative IPC: 5.598 (Simulation time: 00 hr 01 min 01 sec)
[DUEL] Epoch ended. INSTR misses = 16, DATA misses = 18. Winner = INSTR
[DUEL] Epoch ended. INSTR misses = 22, DATA misses = 21. Winner = DATA
[DUEL] Epoch ended. INSTR misses = 32, DATA misses = 32. Winner = INSTR
[DUEL] Epoch ended. INSTR misses = 25, DATA misses = 36. Winner = INSTR
[DUEL] Epoch ended. INSTR misses = 31, DATA misses = 23. Winner = DATA
[DUEL] Epoch ended. INSTR misses = 32, DATA misses = 32. Winner = INSTR
[DUEL] Epoch ended. INSTR misses = 16, DATA misses = 16. Winner = INSTR
[DUEL] Epoch ended. INSTR misses = 16, DATA misses = 16. Winner = INSTR
[DUEL] Epoch ended. INSTR misses = 32, DATA misses = 32. Winner = INSTR
[DUEL] Epoch ended. INSTR misses = 16, DATA misses = 16. Winner = INSTR
[DUEL] Epoch ended. INSTR misses = 16, DATA misses = 16. Winner = INSTR
[DUEL] Epoch ended. INSTR misses = 16, DATA misses = 16. Winner = INSTR
[DUEL] Epoch ended. INSTR misses = 16, DATA misses = 16. Winner = INSTR
[DUEL] Epoch ended. INSTR misses = 17, DATA misses = 16. Winner = DATA
[DUEL] Epoch ended. INSTR misses = 31, DATA misses = 32. Winner = INSTR
[DUEL] Epoch ended. INSTR misses = 16, DATA misses = 16. Winner = INSTR
[DUEL] Epoch ended. INSTR misses = 16, DATA misses = 16. Winner = INSTR
[DUEL] Epoch ended. INSTR misses = 32, DATA misses = 32. Winner = INSTR
[DUEL] Epoch ended. INSTR misses = 31, DATA misses = 31. Winner = INSTR
[DUEL] Epoch ended. INSTR misses = 32, DATA misses = 32. Winner = INSTR
[DUEL] Epoch ended. INSTR misses = 16, DATA misses = 16. Winner = INSTR
[DUEL] Epoch ended. INSTR misses = 16, DATA misses = 16. Winner = INSTR
[DUEL] Epoch ended. INSTR misses = 48, DATA misses = 36. Winner = DATA
[DUEL] Epoch ended. INSTR misses = 62, DATA misses = 63. Winner = INSTR
[DUEL] Epoch ended. INSTR misses = 33, DATA misses = 32. Winner = DATA
[DUEL] Epoch ended. INSTR misses = 33, DATA misses = 40. Winner = INSTR
[DUEL] Epoch ended. INSTR misses = 48, DATA misses = 43. Winner = DATA
[DUEL] Epoch ended. INSTR misses = 47, DATA misses = 45. Winner = DATA
[DUEL] Epoch ended. INSTR misses = 33, DATA misses = 32. Winner = DATA
[DUEL] Epoch ended. INSTR misses = 46, DATA misses = 47. Winner = INSTR
[DUEL] Epoch ended. INSTR misses = 64, DATA misses = 64. Winner = INSTR
[DUEL] Epoch ended. INSTR misses = 32, DATA misses = 32. Winner = INSTR
[DUEL] Epoch ended. INSTR misses = 32, DATA misses = 32. Winner = INSTR
[DUEL] Epoch ended. INSTR misses = 32, DATA misses = 32. Winner = INSTR
[DUEL] Epoch ended. INSTR misses = 48, DATA misses = 48. Winner = INSTR
[DUEL] Epoch ended. INSTR misses = 32, DATA misses = 32. Winner = INSTR
[DUEL] Epoch ended. INSTR misses = 32, DATA misses = 32. Winner = INSTR
[DUEL] Epoch ended. INSTR misses = 48, DATA misses = 48. Winner = INSTR
[DUEL] Epoch ended. INSTR misses = 32, DATA misses = 32. Winner = INSTR
Heartbeat CPU 0 instructions: 30000005 cycles: 5310772 heartbeat IPC: 5.753 cumulative IPC: 5.649 (Simulation time: 00 hr 01 min 30 sec)
Warmup finished CPU 0 instructions: 30000005 cycles: 5310773 cumulative IPC: 5.649 (Simulation time: 00 hr 01 min 30 sec)
Warmup complete CPU 0 instructions: 30000005 cycles: 5310773 cumulative IPC: 5.649 (Simulation time: 00 hr 01 min 30 sec)
[DUEL] Epoch ended. INSTR misses = 32, DATA misses = 32. Winner = INSTR
[DUEL] Epoch ended. INSTR misses = 32, DATA misses = 32. Winner = INSTR
[DUEL] Epoch ended. INSTR misses = 48, DATA misses = 42. Winner = DATA
[DUEL] Epoch ended. INSTR misses = 60, DATA misses = 64. Winner = INSTR
[DUEL] Epoch ended. INSTR misses = 48, DATA misses = 48. Winner = INSTR
[DUEL] Epoch ended. INSTR misses = 32, DATA misses = 32. Winner = INSTR
[DUEL] Epoch ended. INSTR misses = 32, DATA misses = 32. Winner = INSTR
[DUEL] Epoch ended. INSTR misses = 48, DATA misses = 48. Winner = INSTR
[DUEL] Epoch ended. INSTR misses = 44, DATA misses = 47. Winner = INSTR
[DUEL] Epoch ended. INSTR misses = 32, DATA misses = 26. Winner = DATA
[DUEL] Epoch ended. INSTR misses = 32, DATA misses = 32. Winner = INSTR
[DUEL] Epoch ended. INSTR misses = 48, DATA misses = 48. Winner = INSTR
[DUEL] Epoch ended. INSTR misses = 46, DATA misses = 48. Winner = INSTR
[DUEL] Epoch ended. INSTR misses = 33, DATA misses = 32. Winner = DATA
[DUEL] Epoch ended. INSTR misses = 32, DATA misses = 32. Winner = INSTR
[DUEL] Epoch ended. INSTR misses = 49, DATA misses = 44. Winner = DATA
[DUEL] Epoch ended. INSTR misses = 32, DATA misses = 45. Winner = INSTR
[DUEL] Epoch ended. INSTR misses = 40, DATA misses = 35. Winner = DATA
[DUEL] Epoch ended. INSTR misses = 56, DATA misses = 48. Winner = DATA
[DUEL] Epoch ended. INSTR misses = 48, DATA misses = 47. Winner = DATA
[DUEL] Epoch ended. INSTR misses = 17, DATA misses = 16. Winner = DATA
[DUEL] Epoch ended. INSTR misses = 47, DATA misses = 48. Winner = INSTR
[DUEL] Epoch ended. INSTR misses = 32, DATA misses = 32. Winner = INSTR
[DUEL] Epoch ended. INSTR misses = 33, DATA misses = 32. Winner = DATA
[DUEL] Epoch ended. INSTR misses = 32, DATA misses = 32. Winner = INSTR
[DUEL] Epoch ended. INSTR misses = 23, DATA misses = 31. Winner = INSTR
[DUEL] Epoch ended. INSTR misses = 33, DATA misses = 32. Winner = DATA
[DUEL] Epoch ended. INSTR misses = 63, DATA misses = 64. Winner = INSTR
[DUEL] Epoch ended. INSTR misses = 34, DATA misses = 32. Winner = DATA
[DUEL] Epoch ended. INSTR misses = 63, DATA misses = 64. Winner = INSTR
[DUEL] Epoch ended. INSTR misses = 17, DATA misses = 21. Winner = INSTR
[DUEL] Epoch ended. INSTR misses = 32, DATA misses = 27. Winner = DATA
[DUEL] Epoch ended. INSTR misses = 47, DATA misses = 48. Winner = INSTR
[DUEL] Epoch ended. INSTR misses = 49, DATA misses = 47. Winner = DATA
[DUEL] Epoch ended. INSTR misses = 32, DATA misses = 32. Winner = INSTR
[DUEL] Epoch ended. INSTR misses = 48, DATA misses = 48. Winner = INSTR
[DUEL] Epoch ended. INSTR misses = 32, DATA misses = 32. Winner = INSTR
[DUEL] Epoch ended. INSTR misses = 32, DATA misses = 32. Winner = INSTR
[DUEL] Epoch ended. INSTR misses = 32, DATA misses = 32. Winner = INSTR
Heartbeat CPU 0 instructions: 40000000 cycles: 11715267 heartbeat IPC: 1.561 cumulative IPC: 1.561 (Simulation time: 00 hr 02 min 30 sec)
[DUEL] Epoch ended. INSTR misses = 32, DATA misses = 32. Winner = INSTR
[DUEL] Epoch ended. INSTR misses = 32, DATA misses = 32. Winner = INSTR
[DUEL] Epoch ended. INSTR misses = 48, DATA misses = 48. Winner = INSTR
[DUEL] Epoch ended. INSTR misses = 48, DATA misses = 48. Winner = INSTR
[DUEL] Epoch ended. INSTR misses = 32, DATA misses = 28. Winner = DATA
[DUEL] Epoch ended. INSTR misses = 31, DATA misses = 32. Winner = INSTR
[DUEL] Epoch ended. INSTR misses = 32, DATA misses = 32. Winner = INSTR
[DUEL] Epoch ended. INSTR misses = 32, DATA misses = 32. Winner = INSTR
[DUEL] Epoch ended. INSTR misses = 49, DATA misses = 51. Winner = INSTR
[DUEL] Epoch ended. INSTR misses = 32, DATA misses = 29. Winner = DATA
[DUEL] Epoch ended. INSTR misses = 35, DATA misses = 33. Winner = DATA
[DUEL] Epoch ended. INSTR misses = 52, DATA misses = 63. Winner = INSTR
[DUEL] Epoch ended. INSTR misses = 40, DATA misses = 32. Winner = DATA
[DUEL] Epoch ended. INSTR misses = 48, DATA misses = 48. Winner = INSTR
[DUEL] Epoch ended. INSTR misses = 32, DATA misses = 32. Winner = INSTR
[DUEL] Epoch ended. INSTR misses = 32, DATA misses = 32. Winner = INSTR
[DUEL] Epoch ended. INSTR misses = 32, DATA misses = 32. Winner = INSTR
[DUEL] Epoch ended. INSTR misses = 32, DATA misses = 32. Winner = INSTR
[DUEL] Epoch ended. INSTR misses = 64, DATA misses = 64. Winner = INSTR
[DUEL] Epoch ended. INSTR misses = 31, DATA misses = 32. Winner = INSTR
[DUEL] Epoch ended. INSTR misses = 33, DATA misses = 32. Winner = DATA
[DUEL] Epoch ended. INSTR misses = 33, DATA misses = 32. Winner = DATA
[DUEL] Epoch ended. INSTR misses = 63, DATA misses = 64. Winner = INSTR
[DUEL] Epoch ended. INSTR misses = 48, DATA misses = 48. Winner = INSTR
[DUEL] Epoch ended. INSTR misses = 32, DATA misses = 32. Winner = INSTR
[DUEL] Epoch ended. INSTR misses = 32, DATA misses = 32. Winner = INSTR
[DUEL] Epoch ended. INSTR misses = 32, DATA misses = 32. Winner = INSTR
[DUEL] Epoch ended. INSTR misses = 32, DATA misses = 32. Winner = INSTR
[DUEL] Epoch ended. INSTR misses = 64, DATA misses = 64. Winner = INSTR
[DUEL] Epoch ended. INSTR misses = 17, DATA misses = 18. Winner = INSTR
[DUEL] Epoch ended. INSTR misses = 47, DATA misses = 46. Winner = DATA
[DUEL] Epoch ended. INSTR misses = 32, DATA misses = 32. Winner = INSTR
[DUEL] Epoch ended. INSTR misses = 47, DATA misses = 47. Winner = INSTR
[DUEL] Epoch ended. INSTR misses = 33, DATA misses = 32. Winner = DATA
[DUEL] Epoch ended. INSTR misses = 48, DATA misses = 48. Winner = INSTR
[DUEL] Epoch ended. INSTR misses = 32, DATA misses = 32. Winner = INSTR
[DUEL] Epoch ended. INSTR misses = 32, DATA misses = 32. Winner = INSTR
[DUEL] Epoch ended. INSTR misses = 32, DATA misses = 32. Winner = INSTR
[DUEL] Epoch ended. INSTR misses = 33, DATA misses = 32. Winner = DATA
Heartbeat CPU 0 instructions: 50000003 cycles: 17742971 heartbeat IPC: 1.659 cumulative IPC: 1.609 (Simulation time: 00 hr 03 min 29 sec)
[DUEL] Epoch ended. INSTR misses = 32, DATA misses = 32. Winner = INSTR
[DUEL] Epoch ended. INSTR misses = 33, DATA misses = 32. Winner = DATA
[DUEL] Epoch ended. INSTR misses = 46, DATA misses = 48. Winner = INSTR
[DUEL] Epoch ended. INSTR misses = 35, DATA misses = 44. Winner = INSTR
[DUEL] Epoch ended. INSTR misses = 41, DATA misses = 44. Winner = INSTR
[DUEL] Epoch ended. INSTR misses = 32, DATA misses = 32. Winner = INSTR
[DUEL] Epoch ended. INSTR misses = 44, DATA misses = 48. Winner = INSTR
[DUEL] Epoch ended. INSTR misses = 48, DATA misses = 63. Winner = INSTR
[DUEL] Epoch ended. INSTR misses = 36, DATA misses = 47. Winner = INSTR
[DUEL] Epoch ended. INSTR misses = 41, DATA misses = 33. Winner = DATA
[DUEL] Epoch ended. INSTR misses = 49, DATA misses = 48. Winner = DATA
[DUEL] Epoch ended. INSTR misses = 49, DATA misses = 48. Winner = DATA
[DUEL] Epoch ended. INSTR misses = 48, DATA misses = 48. Winner = INSTR
[DUEL] Epoch ended. INSTR misses = 33, DATA misses = 36. Winner = INSTR
[DUEL] Epoch ended. INSTR misses = 48, DATA misses = 41. Winner = DATA
[DUEL] Epoch ended. INSTR misses = 32, DATA misses = 32. Winner = INSTR
[DUEL] Epoch ended. INSTR misses = 32, DATA misses = 32. Winner = INSTR
[DUEL] Epoch ended. INSTR misses = 60, DATA misses = 61. Winner = INSTR
[DUEL] Epoch ended. INSTR misses = 33, DATA misses = 19. Winner = DATA
[DUEL] Epoch ended. INSTR misses = 39, DATA misses = 46. Winner = INSTR
[DUEL] Epoch ended. INSTR misses = 64, DATA misses = 60. Winner = DATA
[DUEL] Epoch ended. INSTR misses = 50, DATA misses = 47. Winner = DATA
[DUEL] Epoch ended. INSTR misses = 41, DATA misses = 36. Winner = DATA
[DUEL] Epoch ended. INSTR misses = 62, DATA misses = 59. Winner = DATA
[DUEL] Epoch ended. INSTR misses = 48, DATA misses = 48. Winner = INSTR
[DUEL] Epoch ended. INSTR misses = 29, DATA misses = 28. Winner = DATA
[DUEL] Epoch ended. INSTR misses = 52, DATA misses = 41. Winner = DATA
[DUEL] Epoch ended. INSTR misses = 49, DATA misses = 43. Winner = DATA
[DUEL] Epoch ended. INSTR misses = 58, DATA misses = 66. Winner = INSTR
[DUEL] Epoch ended. INSTR misses = 37, DATA misses = 29. Winner = DATA
[DUEL] Epoch ended. INSTR misses = 32, DATA misses = 32. Winner = INSTR
[DUEL] Epoch ended. INSTR misses = 40, DATA misses = 44. Winner = INSTR
[DUEL] Epoch ended. INSTR misses = 35, DATA misses = 32. Winner = DATA
[DUEL] Epoch ended. INSTR misses = 48, DATA misses = 48. Winner = INSTR
[DUEL] Epoch ended. INSTR misses = 64, DATA misses = 64. Winner = INSTR
[DUEL] Epoch ended. INSTR misses = 45, DATA misses = 48. Winner = INSTR
[DUEL] Epoch ended. INSTR misses = 33, DATA misses = 22. Winner = DATA
[DUEL] Epoch ended. INSTR misses = 44, DATA misses = 41. Winner = DATA
[DUEL] Epoch ended. INSTR misses = 48, DATA misses = 48. Winner = INSTR
Heartbeat CPU 0 instructions: 60000002 cycles: 24511291 heartbeat IPC: 1.477 cumulative IPC: 1.562 (Simulation time: 00 hr 04 min 33 sec)
[DUEL] Epoch ended. INSTR misses = 35, DATA misses = 33. Winner = DATA
[DUEL] Epoch ended. INSTR misses = 29, DATA misses = 32. Winner = INSTR
[DUEL] Epoch ended. INSTR misses = 36, DATA misses = 32. Winner = DATA
[DUEL] Epoch ended. INSTR misses = 58, DATA misses = 53. Winner = DATA
[DUEL] Epoch ended. INSTR misses = 47, DATA misses = 49. Winner = INSTR
[DUEL] Epoch ended. INSTR misses = 40, DATA misses = 32. Winner = DATA
[DUEL] Epoch ended. INSTR misses = 33, DATA misses = 32. Winner = DATA
[DUEL] Epoch ended. INSTR misses = 48, DATA misses = 48. Winner = INSTR
[DUEL] Epoch ended. INSTR misses = 25, DATA misses = 21. Winner = DATA
[DUEL] Epoch ended. INSTR misses = 50, DATA misses = 59. Winner = INSTR
[DUEL] Epoch ended. INSTR misses = 33, DATA misses = 43. Winner = INSTR
[DUEL] Epoch ended. INSTR misses = 44, DATA misses = 37. Winner = DATA
[DUEL] Epoch ended. INSTR misses = 32, DATA misses = 32. Winner = INSTR
[DUEL] Epoch ended. INSTR misses = 45, DATA misses = 45. Winner = INSTR
[DUEL] Epoch ended. INSTR misses = 33, DATA misses = 41. Winner = INSTR
[DUEL] Epoch ended. INSTR misses = 62, DATA misses = 55. Winner = DATA
[DUEL] Epoch ended. INSTR misses = 48, DATA misses = 48. Winner = INSTR
[DUEL] Epoch ended. INSTR misses = 63, DATA misses = 44. Winner = DATA
[DUEL] Epoch ended. INSTR misses = 17, DATA misses = 41. Winner = INSTR
[DUEL] Epoch ended. INSTR misses = 48, DATA misses = 48. Winner = INSTR
[DUEL] Epoch ended. INSTR misses = 33, DATA misses = 32. Winner = DATA
[DUEL] Epoch ended. INSTR misses = 37, DATA misses = 45. Winner = INSTR
[DUEL] Epoch ended. INSTR misses = 46, DATA misses = 45. Winner = DATA
[DUEL] Epoch ended. INSTR misses = 46, DATA misses = 58. Winner = INSTR
[DUEL] Epoch ended. INSTR misses = 48, DATA misses = 42. Winner = DATA
[DUEL] Epoch ended. INSTR misses = 47, DATA misses = 33. Winner = DATA
[DUEL] Epoch ended. INSTR misses = 49, DATA misses = 38. Winner = DATA
[DUEL] Epoch ended. INSTR misses = 35, DATA misses = 45. Winner = INSTR
[DUEL] Epoch ended. INSTR misses = 33, DATA misses = 33. Winner = INSTR
[DUEL] Epoch ended. INSTR misses = 47, DATA misses = 47. Winner = INSTR
[DUEL] Epoch ended. INSTR misses = 48, DATA misses = 48. Winner = INSTR
[DUEL] Epoch ended. INSTR misses = 27, DATA misses = 32. Winner = INSTR
[DUEL] Epoch ended. INSTR misses = 48, DATA misses = 42. Winner = DATA
[DUEL] Epoch ended. INSTR misses = 49, DATA misses = 48. Winner = DATA
[DUEL] Epoch ended. INSTR misses = 30, DATA misses = 26. Winner = DATA
[DUEL] Epoch ended. INSTR misses = 31, DATA misses = 23. Winner = DATA
[DUEL] Epoch ended. INSTR misses = 48, DATA misses = 50. Winner = INSTR
[DUEL] Epoch ended. INSTR misses = 49, DATA misses = 40. Winner = DATA
[DUEL] Epoch ended. INSTR misses = 37, DATA misses = 37. Winner = INSTR
Heartbeat CPU 0 instructions: 70000007 cycles: 30868407 heartbeat IPC: 1.573 cumulative IPC: 1.565 (Simulation time: 00 hr 05 min 36 sec)
[DUEL] Epoch ended. INSTR misses = 26, DATA misses = 38. Winner = INSTR
[DUEL] Epoch ended. INSTR misses = 32, DATA misses = 32. Winner = INSTR
[DUEL] Epoch ended. INSTR misses = 47, DATA misses = 48. Winner = INSTR
[DUEL] Epoch ended. INSTR misses = 48, DATA misses = 48. Winner = INSTR
[DUEL] Epoch ended. INSTR misses = 46, DATA misses = 48. Winner = INSTR
[DUEL] Epoch ended. INSTR misses = 70, DATA misses = 79. Winner = INSTR
[DUEL] Epoch ended. INSTR misses = 41, DATA misses = 44. Winner = INSTR
[DUEL] Epoch ended. INSTR misses = 49, DATA misses = 48. Winner = DATA
[DUEL] Epoch ended. INSTR misses = 32, DATA misses = 32. Winner = INSTR
[DUEL] Epoch ended. INSTR misses = 45, DATA misses = 48. Winner = INSTR
[DUEL] Epoch ended. INSTR misses = 32, DATA misses = 32. Winner = INSTR
[DUEL] Epoch ended. INSTR misses = 32, DATA misses = 32. Winner = INSTR
[DUEL] Epoch ended. INSTR misses = 32, DATA misses = 32. Winner = INSTR
[DUEL] Epoch ended. INSTR misses = 41, DATA misses = 48. Winner = INSTR
[DUEL] Epoch ended. INSTR misses = 24, DATA misses = 16. Winner = DATA
[DUEL] Epoch ended. INSTR misses = 47, DATA misses = 48. Winner = INSTR
[DUEL] Epoch ended. INSTR misses = 32, DATA misses = 32. Winner = INSTR
[DUEL] Epoch ended. INSTR misses = 46, DATA misses = 48. Winner = INSTR
[DUEL] Epoch ended. INSTR misses = 32, DATA misses = 32. Winner = INSTR
[DUEL] Epoch ended. INSTR misses = 40, DATA misses = 46. Winner = INSTR
[DUEL] Epoch ended. INSTR misses = 32, DATA misses = 32. Winner = INSTR
[DUEL] Epoch ended. INSTR misses = 32, DATA misses = 32. Winner = INSTR
[DUEL] Epoch ended. INSTR misses = 48, DATA misses = 48. Winner = INSTR
[DUEL] Epoch ended. INSTR misses = 32, DATA misses = 32. Winner = INSTR
[DUEL] Epoch ended. INSTR misses = 32, DATA misses = 32. Winner = INSTR
[DUEL] Epoch ended. INSTR misses = 32, DATA misses = 32. Winner = INSTR
[DUEL] Epoch ended. INSTR misses = 32, DATA misses = 32. Winner = INSTR
[DUEL] Epoch ended. INSTR misses = 33, DATA misses = 32. Winner = DATA
[DUEL] Epoch ended. INSTR misses = 47, DATA misses = 48. Winner = INSTR
[DUEL] Epoch ended. INSTR misses = 32, DATA misses = 32. Winner = INSTR
[DUEL] Epoch ended. INSTR misses = 48, DATA misses = 48. Winner = INSTR
[DUEL] Epoch ended. INSTR misses = 32, DATA misses = 32. Winner = INSTR
[DUEL] Epoch ended. INSTR misses = 48, DATA misses = 48. Winner = INSTR
[DUEL] Epoch ended. INSTR misses = 32, DATA misses = 32. Winner = INSTR
[DUEL] Epoch ended. INSTR misses = 32, DATA misses = 32. Winner = INSTR
[DUEL] Epoch ended. INSTR misses = 32, DATA misses = 32. Winner = INSTR
[DUEL] Epoch ended. INSTR misses = 64, DATA misses = 63. Winner = DATA
[DUEL] Epoch ended. INSTR misses = 32, DATA misses = 32. Winner = INSTR
[DUEL] Epoch ended. INSTR misses = 48, DATA misses = 48. Winner = INSTR
Heartbeat CPU 0 instructions: 80000003 cycles: 37178807 heartbeat IPC: 1.585 cumulative IPC: 1.569 (Simulation time: 00 hr 06 min 35 sec)
[DUEL] Epoch ended. INSTR misses = 32, DATA misses = 32. Winner = INSTR
[DUEL] Epoch ended. INSTR misses = 33, DATA misses = 32. Winner = DATA
[DUEL] Epoch ended. INSTR misses = 47, DATA misses = 48. Winner = INSTR
[DUEL] Epoch ended. INSTR misses = 32, DATA misses = 32. Winner = INSTR
[DUEL] Epoch ended. INSTR misses = 32, DATA misses = 32. Winner = INSTR
[DUEL] Epoch ended. INSTR misses = 47, DATA misses = 48. Winner = INSTR
[DUEL] Epoch ended. INSTR misses = 32, DATA misses = 30. Winner = DATA
[DUEL] Epoch ended. INSTR misses = 32, DATA misses = 32. Winner = INSTR
[DUEL] Epoch ended. INSTR misses = 34, DATA misses = 36. Winner = INSTR
[DUEL] Epoch ended. INSTR misses = 46, DATA misses = 44. Winner = DATA
[DUEL] Epoch ended. INSTR misses = 32, DATA misses = 32. Winner = INSTR
[DUEL] Epoch ended. INSTR misses = 33, DATA misses = 32. Winner = DATA
[DUEL] Epoch ended. INSTR misses = 32, DATA misses = 32. Winner = INSTR
[DUEL] Epoch ended. INSTR misses = 33, DATA misses = 34. Winner = INSTR
[DUEL] Epoch ended. INSTR misses = 47, DATA misses = 46. Winner = DATA
[DUEL] Epoch ended. INSTR misses = 32, DATA misses = 32. Winner = INSTR
[DUEL] Epoch ended. INSTR misses = 32, DATA misses = 32. Winner = INSTR
[DUEL] Epoch ended. INSTR misses = 32, DATA misses = 32. Winner = INSTR
[DUEL] Epoch ended. INSTR misses = 47, DATA misses = 48. Winner = INSTR
[DUEL] Epoch ended. INSTR misses = 32, DATA misses = 32. Winner = INSTR
[DUEL] Epoch ended. INSTR misses = 32, DATA misses = 32. Winner = INSTR
[DUEL] Epoch ended. INSTR misses = 64, DATA misses = 64. Winner = INSTR
[DUEL] Epoch ended. INSTR misses = 32, DATA misses = 32. Winner = INSTR
[DUEL] Epoch ended. INSTR misses = 32, DATA misses = 23. Winner = DATA
[DUEL] Epoch ended. INSTR misses = 47, DATA misses = 48. Winner = INSTR
[DUEL] Epoch ended. INSTR misses = 32, DATA misses = 31. Winner = DATA
[DUEL] Epoch ended. INSTR misses = 33, DATA misses = 32. Winner = DATA
[DUEL] Epoch ended. INSTR misses = 47, DATA misses = 48. Winner = INSTR
[DUEL] Epoch ended. INSTR misses = 32, DATA misses = 32. Winner = INSTR
[DUEL] Epoch ended. INSTR misses = 31, DATA misses = 32. Winner = INSTR
[DUEL] Epoch ended. INSTR misses = 32, DATA misses = 32. Winner = INSTR
[DUEL] Epoch ended. INSTR misses = 33, DATA misses = 32. Winner = DATA
[DUEL] Epoch ended. INSTR misses = 47, DATA misses = 48. Winner = INSTR
[DUEL] Epoch ended. INSTR misses = 32, DATA misses = 32. Winner = INSTR
[DUEL] Epoch ended. INSTR misses = 32, DATA misses = 32. Winner = INSTR
[DUEL] Epoch ended. INSTR misses = 34, DATA misses = 32. Winner = DATA
[DUEL] Epoch ended. INSTR misses = 47, DATA misses = 48. Winner = INSTR
[DUEL] Epoch ended. INSTR misses = 48, DATA misses = 48. Winner = INSTR
[DUEL] Epoch ended. INSTR misses = 32, DATA misses = 32. Winner = INSTR
Heartbeat CPU 0 instructions: 90000000 cycles: 43172112 heartbeat IPC: 1.669 cumulative IPC: 1.585 (Simulation time: 00 hr 07 min 33 sec)
[DUEL] Epoch ended. INSTR misses = 48, DATA misses = 47. Winner = DATA
[DUEL] Epoch ended. INSTR misses = 37, DATA misses = 48. Winner = INSTR
[DUEL] Epoch ended. INSTR misses = 43, DATA misses = 32. Winner = DATA
[DUEL] Epoch ended. INSTR misses = 20, DATA misses = 30. Winner = INSTR
[DUEL] Epoch ended. INSTR misses = 32, DATA misses = 32. Winner = INSTR
[DUEL] Epoch ended. INSTR misses = 64, DATA misses = 64. Winner = INSTR
[DUEL] Epoch ended. INSTR misses = 32, DATA misses = 32. Winner = INSTR
[DUEL] Epoch ended. INSTR misses = 32, DATA misses = 32. Winner = INSTR
[DUEL] Epoch ended. INSTR misses = 42, DATA misses = 41. Winner = DATA
[DUEL] Epoch ended. INSTR misses = 44, DATA misses = 41. Winner = DATA
[DUEL] Epoch ended. INSTR misses = 32, DATA misses = 32. Winner = INSTR
[DUEL] Epoch ended. INSTR misses = 32, DATA misses = 32. Winner = INSTR
[DUEL] Epoch ended. INSTR misses = 32, DATA misses = 32. Winner = INSTR
[DUEL] Epoch ended. INSTR misses = 32, DATA misses = 32. Winner = INSTR
[DUEL] Epoch ended. INSTR misses = 47, DATA misses = 47. Winner = INSTR
[DUEL] Epoch ended. INSTR misses = 32, DATA misses = 32. Winner = INSTR
[DUEL] Epoch ended. INSTR misses = 32, DATA misses = 32. Winner = INSTR
[DUEL] Epoch ended. INSTR misses = 48, DATA misses = 47. Winner = DATA
[DUEL] Epoch ended. INSTR misses = 33, DATA misses = 32. Winner = DATA
[DUEL] Epoch ended. INSTR misses = 47, DATA misses = 48. Winner = INSTR
[DUEL] Epoch ended. INSTR misses = 32, DATA misses = 32. Winner = INSTR
[DUEL] Epoch ended. INSTR misses = 32, DATA misses = 32. Winner = INSTR
[DUEL] Epoch ended. INSTR misses = 64, DATA misses = 64. Winner = INSTR
[DUEL] Epoch ended. INSTR misses = 22, DATA misses = 32. Winner = INSTR
[DUEL] Epoch ended. INSTR misses = 42, DATA misses = 32. Winner = DATA
[DUEL] Epoch ended. INSTR misses = 32, DATA misses = 32. Winner = INSTR
[DUEL] Epoch ended. INSTR misses = 48, DATA misses = 45. Winner = DATA
[DUEL] Epoch ended. INSTR misses = 32, DATA misses = 32. Winner = INSTR
[DUEL] Epoch ended. INSTR misses = 64, DATA misses = 63. Winner = DATA
[DUEL] Epoch ended. INSTR misses = 32, DATA misses = 32. Winner = INSTR
[DUEL] Epoch ended. INSTR misses = 46, DATA misses = 48. Winner = INSTR
[DUEL] Epoch ended. INSTR misses = 32, DATA misses = 32. Winner = INSTR
[DUEL] Epoch ended. INSTR misses = 33, DATA misses = 32. Winner = DATA
[DUEL] Epoch ended. INSTR misses = 47, DATA misses = 48. Winner = INSTR
[DUEL] Epoch ended. INSTR misses = 47, DATA misses = 48. Winner = INSTR
[DUEL] Epoch ended. INSTR misses = 33, DATA misses = 32. Winner = DATA
[DUEL] Epoch ended. INSTR misses = 15, DATA misses = 15. Winner = INSTR
[DUEL] Epoch ended. INSTR misses = 3, DATA misses = 0. Winner = DATA
[DUEL] Epoch ended. INSTR misses = 15, DATA misses = 15. Winner = INSTR
Heartbeat CPU 0 instructions: 100000003 cycles: 49658344 heartbeat IPC: 1.542 cumulative IPC: 1.578 (Simulation time: 00 hr 08 min 33 sec)
[DUEL] Epoch ended. INSTR misses = 77, DATA misses = 79. Winner = INSTR
[DUEL] Epoch ended. INSTR misses = 47, DATA misses = 45. Winner = DATA
[DUEL] Epoch ended. INSTR misses = 98, DATA misses = 98. Winner = INSTR
[DUEL] Epoch ended. INSTR misses = 20, DATA misses = 9. Winner = DATA
[DUEL] Epoch ended. INSTR misses = 72, DATA misses = 81. Winner = INSTR
[DUEL] Epoch ended. INSTR misses = 61, DATA misses = 57. Winner = DATA
[DUEL] Epoch ended. INSTR misses = 110, DATA misses = 103. Winner = DATA
[DUEL] Epoch ended. INSTR misses = 52, DATA misses = 54. Winner = INSTR
[DUEL] Epoch ended. INSTR misses = 79, DATA misses = 78. Winner = DATA
[DUEL] Epoch ended. INSTR misses = 97, DATA misses = 97. Winner = INSTR
[DUEL] Epoch ended. INSTR misses = 64, DATA misses = 64. Winner = INSTR
[DUEL] Epoch ended. INSTR misses = 66, DATA misses = 62. Winner = DATA
[DUEL] Epoch ended. INSTR misses = 49, DATA misses = 48. Winner = DATA
[DUEL] Epoch ended. INSTR misses = 49, DATA misses = 47. Winner = DATA
[DUEL] Epoch ended. INSTR misses = 63, DATA misses = 63. Winner = INSTR
[DUEL] Epoch ended. INSTR misses = 21, DATA misses = 15. Winner = DATA
[DUEL] Epoch ended. INSTR misses = 29, DATA misses = 32. Winner = INSTR
[DUEL] Epoch ended. INSTR misses = 33, DATA misses = 32. Winner = DATA
[DUEL] Epoch ended. INSTR misses = 1, DATA misses = 0. Winner = DATA
[DUEL] Epoch ended. INSTR misses = 35, DATA misses = 32. Winner = DATA
[DUEL] Epoch ended. INSTR misses = 37, DATA misses = 32. Winner = DATA
[DUEL] Epoch ended. INSTR misses = 31, DATA misses = 32. Winner = INSTR
[DUEL] Epoch ended. INSTR misses = 2, DATA misses = 0. Winner = DATA
[DUEL] Epoch ended. INSTR misses = 64, DATA misses = 63. Winner = DATA
[DUEL] Epoch ended. INSTR misses = 48, DATA misses = 43. Winner = DATA
[DUEL] Epoch ended. INSTR misses = 18, DATA misses = 16. Winner = DATA
*** Reached end of trace: (0, "../traces/secret_traces/compute_fp/compute_fp_101.champsimtrace.xz")
[DUEL] Epoch ended. INSTR misses = 51, DATA misses = 55. Winner = INSTR
[DUEL] Epoch ended. INSTR misses = 4, DATA misses = 2. Winner = DATA
[DUEL] Epoch ended. INSTR misses = 14, DATA misses = 16. Winner = INSTR
[DUEL] Epoch ended. INSTR misses = 49, DATA misses = 52. Winner = INSTR
[DUEL] Epoch ended. INSTR misses = 40, DATA misses = 40. Winner = INSTR
[DUEL] Epoch ended. INSTR misses = 69, DATA misses = 58. Winner = DATA
[DUEL] Epoch ended. INSTR misses = 73, DATA misses = 73. Winner = INSTR
[DUEL] Epoch ended. INSTR misses = 83, DATA misses = 93. Winner = INSTR
[DUEL] Epoch ended. INSTR misses = 44, DATA misses = 46. Winner = INSTR
[DUEL] Epoch ended. INSTR misses = 64, DATA misses = 73. Winner = INSTR
[DUEL] Epoch ended. INSTR misses = 45, DATA misses = 46. Winner = INSTR
[DUEL] Epoch ended. INSTR misses = 58, DATA misses = 59. Winner = INSTR
[DUEL] Epoch ended. INSTR misses = 28, DATA misses = 29. Winner = INSTR
Heartbeat CPU 0 instructions: 110000004 cycles: 61484215 heartbeat IPC: 0.8456 cumulative IPC: 1.424 (Simulation time: 00 hr 10 min 07 sec)
[DUEL] Epoch ended. INSTR misses = 58, DATA misses = 57. Winner = DATA
[DUEL] Epoch ended. INSTR misses = 90, DATA misses = 89. Winner = DATA
[DUEL] Epoch ended. INSTR misses = 47, DATA misses = 45. Winner = DATA
[DUEL] Epoch ended. INSTR misses = 48, DATA misses = 48. Winner = INSTR
[DUEL] Epoch ended. INSTR misses = 32, DATA misses = 29. Winner = DATA
[DUEL] Epoch ended. INSTR misses = 16, DATA misses = 16. Winner = INSTR
[DUEL] Epoch ended. INSTR misses = 16, DATA misses = 16. Winner = INSTR
[DUEL] Epoch ended. INSTR misses = 1, DATA misses = 0. Winner = DATA
[DUEL] Epoch ended. INSTR misses = 15, DATA misses = 15. Winner = INSTR
[DUEL] Epoch ended. INSTR misses = 31, DATA misses = 30. Winner = DATA
[DUEL] Epoch ended. INSTR misses = 47, DATA misses = 47. Winner = INSTR
[DUEL] Epoch ended. INSTR misses = 0, DATA misses = 25. Winner = INSTR
[DUEL] Epoch ended. INSTR misses = 46, DATA misses = 22. Winner = DATA
[DUEL] Epoch ended. INSTR misses = 30, DATA misses = 32. Winner = INSTR
[DUEL] Epoch ended. INSTR misses = 17, DATA misses = 16. Winner = DATA
[DUEL] Epoch ended. INSTR misses = 30, DATA misses = 30. Winner = INSTR
[DUEL] Epoch ended. INSTR misses = 14, DATA misses = 16. Winner = INSTR
[DUEL] Epoch ended. INSTR misses = 31, DATA misses = 28. Winner = DATA
[DUEL] Epoch ended. INSTR misses = 31, DATA misses = 30. Winner = DATA
[DUEL] Epoch ended. INSTR misses = 42, DATA misses = 45. Winner = INSTR
[DUEL] Epoch ended. INSTR misses = 9, DATA misses = 16. Winner = INSTR
[DUEL] Epoch ended. INSTR misses = 19, DATA misses = 14. Winner = DATA
[DUEL] Epoch ended. INSTR misses = 47, DATA misses = 44. Winner = DATA
[DUEL] Epoch ended. INSTR misses = 17, DATA misses = 17. Winner = INSTR
[DUEL] Epoch ended. INSTR misses = 0, DATA misses = 0. Winner = INSTR
[DUEL] Epoch ended. INSTR misses = 17, DATA misses = 20. Winner = INSTR
[DUEL] Epoch ended. INSTR misses = 20, DATA misses = 12. Winner = DATA
[DUEL] Epoch ended. INSTR misses = 29, DATA misses = 30. Winner = INSTR
[DUEL] Epoch ended. INSTR misses = 15, DATA misses = 15. Winner = INSTR
[DUEL] Epoch ended. INSTR misses = 17, DATA misses = 16. Winner = DATA
[DUEL] Epoch ended. INSTR misses = 14, DATA misses = 15. Winner = INSTR
[DUEL] Epoch ended. INSTR misses = 15, DATA misses = 15. Winner = INSTR
[DUEL] Epoch ended. INSTR misses = 41, DATA misses = 45. Winner = INSTR
[DUEL] Epoch ended. INSTR misses = 17, DATA misses = 15. Winner = DATA
[DUEL] Epoch ended. INSTR misses = 31, DATA misses = 27. Winner = DATA
[DUEL] Epoch ended. INSTR misses = 29, DATA misses = 31. Winner = INSTR
[DUEL] Epoch ended. INSTR misses = 37, DATA misses = 42. Winner = INSTR
[DUEL] Epoch ended. INSTR misses = 23, DATA misses = 18. Winner = DATA
[DUEL] Epoch ended. INSTR misses = 17, DATA misses = 15. Winner = DATA
Heartbeat CPU 0 instructions: 120000008 cycles: 66517950 heartbeat IPC: 1.987 cumulative IPC: 1.47 (Simulation time: 00 hr 11 min 06 sec)
[DUEL] Epoch ended. INSTR misses = 17, DATA misses = 16. Winner = DATA
[DUEL] Epoch ended. INSTR misses = 54, DATA misses = 55. Winner = INSTR
[DUEL] Epoch ended. INSTR misses = 42, DATA misses = 41. Winner = DATA
[DUEL] Epoch ended. INSTR misses = 17, DATA misses = 14. Winner = DATA
[DUEL] Epoch ended. INSTR misses = 36, DATA misses = 36. Winner = INSTR
[DUEL] Epoch ended. INSTR misses = 33, DATA misses = 31. Winner = DATA
[DUEL] Epoch ended. INSTR misses = 27, DATA misses = 34. Winner = INSTR
[DUEL] Epoch ended. INSTR misses = 36, DATA misses = 32. Winner = DATA
[DUEL] Epoch ended. INSTR misses = 1, DATA misses = 0. Winner = DATA
[DUEL] Epoch ended. INSTR misses = 35, DATA misses = 34. Winner = DATA
[DUEL] Epoch ended. INSTR misses = 38, DATA misses = 42. Winner = INSTR
[DUEL] Epoch ended. INSTR misses = 25, DATA misses = 21. Winner = DATA
[DUEL] Epoch ended. INSTR misses = 12, DATA misses = 4. Winner = DATA
[DUEL] Epoch ended. INSTR misses = 16, DATA misses = 16. Winner = INSTR
[DUEL] Epoch ended. INSTR misses = 31, DATA misses = 35. Winner = INSTR
[DUEL] Epoch ended. INSTR misses = 40, DATA misses = 35. Winner = DATA
[DUEL] Epoch ended. INSTR misses = 20, DATA misses = 14. Winner = DATA
[DUEL] Epoch ended. INSTR misses = 40, DATA misses = 41. Winner = INSTR
[DUEL] Epoch ended. INSTR misses = 16, DATA misses = 22. Winner = INSTR
[DUEL] Epoch ended. INSTR misses = 16, DATA misses = 15. Winner = DATA
[DUEL] Epoch ended. INSTR misses = 30, DATA misses = 28. Winner = DATA
[DUEL] Epoch ended. INSTR misses = 32, DATA misses = 32. Winner = INSTR
[DUEL] Epoch ended. INSTR misses = 32, DATA misses = 32. Winner = INSTR
[DUEL] Epoch ended. INSTR misses = 32, DATA misses = 31. Winner = DATA
[DUEL] Epoch ended. INSTR misses = 31, DATA misses = 32. Winner = INSTR
[DUEL] Epoch ended. INSTR misses = 15, DATA misses = 16. Winner = INSTR
[DUEL] Epoch ended. INSTR misses = 32, DATA misses = 32. Winner = INSTR
[DUEL] Epoch ended. INSTR misses = 1, DATA misses = 0. Winner = DATA
[DUEL] Epoch ended. INSTR misses = 47, DATA misses = 47. Winner = INSTR
[DUEL] Epoch ended. INSTR misses = 30, DATA misses = 32. Winner = INSTR
[DUEL] Epoch ended. INSTR misses = 16, DATA misses = 16. Winner = INSTR
[DUEL] Epoch ended. INSTR misses = 16, DATA misses = 16. Winner = INSTR
[DUEL] Epoch ended. INSTR misses = 32, DATA misses = 32. Winner = INSTR
[DUEL] Epoch ended. INSTR misses = 32, DATA misses = 32. Winner = INSTR
[DUEL] Epoch ended. INSTR misses = 16, DATA misses = 16. Winner = INSTR
[DUEL] Epoch ended. INSTR misses = 16, DATA misses = 16. Winner = INSTR
[DUEL] Epoch ended. INSTR misses = 16, DATA misses = 16. Winner = INSTR
[DUEL] Epoch ended. INSTR misses = 16, DATA misses = 16. Winner = INSTR
[DUEL] Epoch ended. INSTR misses = 32, DATA misses = 32. Winner = INSTR
Heartbeat CPU 0 instructions: 130000001 cycles: 70674172 heartbeat IPC: 2.406 cumulative IPC: 1.53 (Simulation time: 00 hr 11 min 58 sec)
Simulation finished CPU 0 instructions: 100000008 cycles: 65363401 cumulative IPC: 1.53 (Simulation time: 00 hr 11 min 58 sec)
Simulation complete CPU 0 instructions: 100000008 cycles: 65363401 cumulative IPC: 1.53 (Simulation time: 00 hr 11 min 58 sec)

ChampSim completed all CPUs

=== Simulation ===
CPU 0 runs ../traces/secret_traces/compute_fp/compute_fp_101.champsimtrace.xz
Region of Interest Statistics

CPU 0 cumulative IPC: 1.53 instructions: 100000008 cycles: 65363401
CPU 0 Branch Prediction Accuracy: 98.52% MPKI: 2.697 Average ROB Occupancy at Mispredict: 92.78
Branch type MPKI
BRANCH_DIRECT_JUMP: 0.00717
BRANCH_INDIRECT: 0.0653
BRANCH_CONDITIONAL: 2.59
BRANCH_DIRECT_CALL: 0.0199
BRANCH_INDIRECT_CALL: 0.00221
BRANCH_RETURN: 0.011

LLC TOTAL        ACCESS:    3912866 HIT:     123224 MISS:    3789642
LLC LOAD         ACCESS:     349524 HIT:       4140 MISS:     345384
LLC RFO          ACCESS:     225930 HIT:      12748 MISS:     213182
LLC PREFETCH     ACCESS:    2948176 HIT:      29842 MISS:    2918334
LLC WRITE        ACCESS:     384495 HIT:      76433 MISS:     308062
LLC TRANSLATION  ACCESS:       4741 HIT:         61 MISS:       4680
LLC PREFETCH REQUESTED:          0 ISSUED:          0 USEFUL:          0 USELESS:          0
LLC AVERAGE MISS LATENCY: 265.6 cycles
cpu0_DTLB TOTAL        ACCESS:   22365315 HIT:   22158591 MISS:     206724
cpu0_DTLB LOAD         ACCESS:   22365315 HIT:   22158591 MISS:     206724
cpu0_DTLB RFO          ACCESS:          0 HIT:          0 MISS:          0
cpu0_DTLB PREFETCH     ACCESS:          0 HIT:          0 MISS:          0
cpu0_DTLB WRITE        ACCESS:          0 HIT:          0 MISS:          0
cpu0_DTLB TRANSLATION  ACCESS:          0 HIT:          0 MISS:          0
cpu0_DTLB PREFETCH REQUESTED:          0 ISSUED:          0 USEFUL:          0 USELESS:          0
cpu0_DTLB AVERAGE MISS LATENCY: 28.56 cycles
cpu0_ITLB TOTAL        ACCESS:     116395 HIT:     114919 MISS:       1476
cpu0_ITLB LOAD         ACCESS:     116395 HIT:     114919 MISS:       1476
cpu0_ITLB RFO          ACCESS:          0 HIT:          0 MISS:          0
cpu0_ITLB PREFETCH     ACCESS:          0 HIT:          0 MISS:          0
cpu0_ITLB WRITE        ACCESS:          0 HIT:          0 MISS:          0
cpu0_ITLB TRANSLATION  ACCESS:          0 HIT:          0 MISS:          0
cpu0_ITLB PREFETCH REQUESTED:          0 ISSUED:          0 USEFUL:          0 USELESS:          0
cpu0_ITLB AVERAGE MISS LATENCY: 64.04 cycles
cpu0_L1D TOTAL        ACCESS:   42905450 HIT:   28644121 MISS:   14261329
cpu0_L1D LOAD         ACCESS:   22560590 HIT:   17977627 MISS:    4582963
cpu0_L1D RFO          ACCESS:          0 HIT:          0 MISS:          0
cpu0_L1D PREFETCH     ACCESS:   17571106 HIT:    9429615 MISS:    8141491
cpu0_L1D WRITE        ACCESS:    2714969 HIT:    1204346 MISS:    1510623
cpu0_L1D TRANSLATION  ACCESS:      58785 HIT:      32533 MISS:      26252
cpu0_L1D PREFETCH REQUESTED:  106131961 ISSUED:   17571108 USEFUL:    1918543 USELESS:      99648
cpu0_L1D AVERAGE MISS LATENCY: 35.3 cycles
cpu0_L1I TOTAL        ACCESS:     168427 HIT:     133808 MISS:      34619
cpu0_L1I LOAD         ACCESS:      58481 HIT:      48029 MISS:      10452
cpu0_L1I RFO          ACCESS:          0 HIT:          0 MISS:          0
cpu0_L1I PREFETCH     ACCESS:     109946 HIT:      85779 MISS:      24167
cpu0_L1I WRITE        ACCESS:          0 HIT:          0 MISS:          0
cpu0_L1I TRANSLATION  ACCESS:          0 HIT:          0 MISS:          0
cpu0_L1I PREFETCH REQUESTED:     162431 ISSUED:     109946 USEFUL:      13259 USELESS:       8912
cpu0_L1I AVERAGE MISS LATENCY: 105.1 cycles
cpu0_L2C TOTAL        ACCESS:   16603216 HIT:    6679342 MISS:    9923874
cpu0_L2C LOAD         ACCESS:    1226196 HIT:     579696 MISS:     646500
cpu0_L2C RFO          ACCESS:     232149 HIT:       6201 MISS:     225948
cpu0_L2C PREFETCH     ACCESS:   14726685 HIT:    5680000 MISS:    9046685
cpu0_L2C WRITE        ACCESS:     391957 HIT:     391957 MISS:          0
cpu0_L2C TRANSLATION  ACCESS:      26229 HIT:      21488 MISS:       4741
cpu0_L2C PREFETCH REQUESTED:    8165636 ISSUED:    7880407 USEFUL:     519144 USELESS:     237482
cpu0_L2C AVERAGE MISS LATENCY: 103.4 cycles
cpu0_STLB TOTAL        ACCESS:      61075 HIT:       2633 MISS:      58442
cpu0_STLB LOAD         ACCESS:      61075 HIT:       2633 MISS:      58442
cpu0_STLB RFO          ACCESS:          0 HIT:          0 MISS:          0
cpu0_STLB PREFETCH     ACCESS:          0 HIT:          0 MISS:          0
cpu0_STLB WRITE        ACCESS:          0 HIT:          0 MISS:          0
cpu0_STLB TRANSLATION  ACCESS:          0 HIT:          0 MISS:          0
cpu0_STLB PREFETCH REQUESTED:          0 ISSUED:          0 USEFUL:          0 USELESS:          0
cpu0_STLB AVERAGE MISS LATENCY: 146.9 cycles

DRAM Statistics

Channel 0 RQ ROW_BUFFER_HIT:    1122902
  ROW_BUFFER_MISS:     620893
 AVG DBUS CONGESTED CYCLE: 3.925
WQ ROW_BUFFER_HIT: Channel 0 
  ROW_BUFFER_MISS:      13807
  FULL:     163033

Channel 1 RQ ROW_BUFFER_HIT:    1115535
  ROW_BUFFER_MISS:     622179
 AVG DBUS CONGESTED CYCLE: 3.923
WQ ROW_BUFFER_HIT: Channel 1 
  ROW_BUFFER_MISS:      13717
  FULL:     162728
BERTI TO_L1: 88718751 TO_L2: 74570043 TO_L2_BC_MSHR: 27984120
BERTI AVG_LAT: 186.746 NUM_TRACK_LATENCY: 3880146 NUM_CANT_TRACK_LATENCY: 66
BERTI CROSS_PAGE 23157299 NO_CROSS_PAGE: 140131495
BERTI FOUND_BERTI: 26768545 NO_FOUND_BERTI: 5832574
BERTI AVERAGE_ISSUED: 2.87261
CPU 0 L1I Entangling prefetcher final stats
IP accesses: 46dc 11b700 1081 / 76891
IP misses: 46dc 11b700 1069 / 28862
IP hits: 0 0 0 / 0
IP late: 3c1a f0680 13 / 5477
IP wrong: 5aef 16bbc0 21 / 8872
miss rate: 0.375363
coverage: 0
coverage_late: 0.189766
accuracy: 0
accuracy_late: 0.3817
discarded: 0
evicts entangled j table: 0
evicts entangled k table: 1501
max bb size: 65
formats: 416 0 1307 706 321 697 0 
hist_lookups: 1119 1231 953 824 727 642 499 411 337 251 189 129 81 55 31 0 30 3589 
hist_lookups_evict: 0.270319 %
hist_lookups_shortlat: 32.3392 %
bb_found_hist: 0 14086 6096 2748 1087 675 230 58 63 11 15 6 10 0 3 1 17 0 0 0 0 0 0 0 0 0 0 0 0 0 0 0 0 0 0 0 0 0 0 0 0 0 0 0 0 0 0 0 0 2 0 0 0 0 0 0 0 0 0 0 0 0 0 0 
bb_found_summary: 45397 25108 1.80807
entangled_found_hist: 0 8063 4827 9264 1873 523 33 0 
entangled_found_summary: 55814 24583 2.27044
bb_ent_found_hist: 0 18468 9827 5190 2149 1480 726 206 147 1 38 0 0 0 0 1 0 0 0 0 0 0 0 0 0 0 0 0 0 0 0 0 0 0 0 0 0 0 0 0 0 0 0 0 0 0 0 0 0 3 0 0 0 0 0 0 0 0 0 0 0 0 0 0 
bb_ent_found_summary: 77213 38236 2.01938
