WARNING: physical memory size is smaller than virtual memory size.

*** ChampSim Multicore Out-of-Order Simulator ***
Warmup Instructions: 30000000
Simulation Instructions: 100000000
Number of CPUs: 1
Page size: 4096

BTB:
Basic BTB sets: 1024 ways: 8
Indirect:
history lengths: 0 0 10 16 27 44 60 96 109 219 449 487 714 1313 2146 3881 
ITTAGE tables: 64768 bytes;Region table: 240 bytes;IUM: 384 bytes;Total Storage= 65392 bytes;
RAS:
RAS size: 64
[LLC] INSTR Demand IPV: 1 2 2 1 4 Prefetch IPV: 1 2 1 1 4
[LLC] DATA  Demand IPV: 1 1 1 2 4 Prefetch IPV: 1 1 2 2 4
Berti Prefetcher
CPU 0 Entangling prefetcher
Off-chip DRAM Size: 8 GiB Channels: 2 Width: 64-bit Data Race: 6400 MT/s
[DUEL] Epoch ended. INSTR misses = 17, DATA misses = 16. Winner = DATA
[DUEL] Epoch ended. INSTR misses = 16, DATA misses = 16. Winner = INSTR
[DUEL] Epoch ended. INSTR misses = 16, DATA misses = 2. Winner = DATA
[DUEL] Epoch ended. INSTR misses = 3, DATA misses = 14. Winner = INSTR
[DUEL] Epoch ended. INSTR misses = 13, DATA misses = 16. Winner = INSTR
[DUEL] Epoch ended. INSTR misses = 16, DATA misses = 16. Winner = INSTR
[DUEL] Epoch ended. INSTR misses = 16, DATA misses = 3. Winner = DATA
[DUEL] Epoch ended. INSTR misses = 4, DATA misses = 13. Winner = INSTR
[DUEL] Epoch ended. INSTR misses = 12, DATA misses = 16. Winner = INSTR
[DUEL] Epoch ended. INSTR misses = 16, DATA misses = 16. Winner = INSTR
[DUEL] Epoch ended. INSTR misses = 16, DATA misses = 5. Winner = DATA
[DUEL] Epoch ended. INSTR misses = 5, DATA misses = 11. Winner = INSTR
[DUEL] Epoch ended. INSTR misses = 11, DATA misses = 16. Winner = INSTR
[DUEL] Epoch ended. INSTR misses = 16, DATA misses = 16. Winner = INSTR
[DUEL] Epoch ended. INSTR misses = 16, DATA misses = 6. Winner = DATA
[DUEL] Epoch ended. INSTR misses = 7, DATA misses = 10. Winner = INSTR
[DUEL] Epoch ended. INSTR misses = 10, DATA misses = 18. Winner = INSTR
[DUEL] Epoch ended. INSTR misses = 26, DATA misses = 22. Winner = DATA
[DUEL] Epoch ended. INSTR misses = 27, DATA misses = 13. Winner = DATA
[DUEL] Epoch ended. INSTR misses = 16, DATA misses = 13. Winner = DATA
[DUEL] Epoch ended. INSTR misses = 14, DATA misses = 32. Winner = INSTR
[DUEL] Epoch ended. INSTR misses = 28, DATA misses = 30. Winner = INSTR
[DUEL] Epoch ended. INSTR misses = 32, DATA misses = 17. Winner = DATA
[DUEL] Epoch ended. INSTR misses = 18, DATA misses = 14. Winner = DATA
[DUEL] Epoch ended. INSTR misses = 14, DATA misses = 31. Winner = INSTR
[DUEL] Epoch ended. INSTR misses = 31, DATA misses = 31. Winner = INSTR
[DUEL] Epoch ended. INSTR misses = 31, DATA misses = 20. Winner = DATA
[DUEL] Epoch ended. INSTR misses = 19, DATA misses = 12. Winner = DATA
[DUEL] Epoch ended. INSTR misses = 20, DATA misses = 36. Winner = INSTR
[DUEL] Epoch ended. INSTR misses = 32, DATA misses = 31. Winner = DATA
[DUEL] Epoch ended. INSTR misses = 32, DATA misses = 21. Winner = DATA
[DUEL] Epoch ended. INSTR misses = 21, DATA misses = 11. Winner = DATA
[DUEL] Epoch ended. INSTR misses = 10, DATA misses = 32. Winner = INSTR
[DUEL] Epoch ended. INSTR misses = 31, DATA misses = 28. Winner = DATA
[DUEL] Epoch ended. INSTR misses = 31, DATA misses = 23. Winner = DATA
[DUEL] Epoch ended. INSTR misses = 25, DATA misses = 8. Winner = DATA
[DUEL] Epoch ended. INSTR misses = 6, DATA misses = 32. Winner = INSTR
[DUEL] Epoch ended. INSTR misses = 32, DATA misses = 32. Winner = INSTR
Heartbeat CPU 0 instructions: 10000001 cycles: 1667427 heartbeat IPC: 5.997 cumulative IPC: 5.997 (Simulation time: 00 hr 00 min 22 sec)
[DUEL] Epoch ended. INSTR misses = 32, DATA misses = 28. Winner = DATA
[DUEL] Epoch ended. INSTR misses = 29, DATA misses = 4. Winner = DATA
[DUEL] Epoch ended. INSTR misses = 2, DATA misses = 31. Winner = INSTR
[DUEL] Epoch ended. INSTR misses = 31, DATA misses = 32. Winner = INSTR
[DUEL] Epoch ended. INSTR misses = 32, DATA misses = 31. Winner = DATA
[DUEL] Epoch ended. INSTR misses = 32, DATA misses = 2. Winner = DATA
[DUEL] Epoch ended. INSTR misses = 0, DATA misses = 30. Winner = INSTR
[DUEL] Epoch ended. INSTR misses = 32, DATA misses = 32. Winner = INSTR
[DUEL] Epoch ended. INSTR misses = 31, DATA misses = 32. Winner = INSTR
[DUEL] Epoch ended. INSTR misses = 32, DATA misses = 4. Winner = DATA
[DUEL] Epoch ended. INSTR misses = 6, DATA misses = 28. Winner = INSTR
[DUEL] Epoch ended. INSTR misses = 26, DATA misses = 31. Winner = INSTR
[DUEL] Epoch ended. INSTR misses = 32, DATA misses = 32. Winner = INSTR
[DUEL] Epoch ended. INSTR misses = 32, DATA misses = 8. Winner = DATA
[DUEL] Epoch ended. INSTR misses = 8, DATA misses = 24. Winner = INSTR
[DUEL] Epoch ended. INSTR misses = 24, DATA misses = 32. Winner = INSTR
[DUEL] Epoch ended. INSTR misses = 32, DATA misses = 32. Winner = INSTR
[DUEL] Epoch ended. INSTR misses = 32, DATA misses = 12. Winner = DATA
[DUEL] Epoch ended. INSTR misses = 12, DATA misses = 19. Winner = INSTR
[DUEL] Epoch ended. INSTR misses = 20, DATA misses = 32. Winner = INSTR
[DUEL] Epoch ended. INSTR misses = 32, DATA misses = 31. Winner = DATA
[DUEL] Epoch ended. INSTR misses = 32, DATA misses = 14. Winner = DATA
[DUEL] Epoch ended. INSTR misses = 16, DATA misses = 18. Winner = INSTR
[DUEL] Epoch ended. INSTR misses = 16, DATA misses = 32. Winner = INSTR
[DUEL] Epoch ended. INSTR misses = 31, DATA misses = 31. Winner = INSTR
[DUEL] Epoch ended. INSTR misses = 32, DATA misses = 18. Winner = DATA
[DUEL] Epoch ended. INSTR misses = 20, DATA misses = 14. Winner = DATA
[DUEL] Epoch ended. INSTR misses = 12, DATA misses = 32. Winner = INSTR
[DUEL] Epoch ended. INSTR misses = 32, DATA misses = 32. Winner = INSTR
[DUEL] Epoch ended. INSTR misses = 32, DATA misses = 22. Winner = DATA
[DUEL] Epoch ended. INSTR misses = 26, DATA misses = 10. Winner = DATA
[DUEL] Epoch ended. INSTR misses = 10, DATA misses = 32. Winner = INSTR
[DUEL] Epoch ended. INSTR misses = 32, DATA misses = 31. Winner = DATA
[DUEL] Epoch ended. INSTR misses = 32, DATA misses = 24. Winner = DATA
[DUEL] Epoch ended. INSTR misses = 23, DATA misses = 8. Winner = DATA
[DUEL] Epoch ended. INSTR misses = 8, DATA misses = 32. Winner = INSTR
[DUEL] Epoch ended. INSTR misses = 31, DATA misses = 32. Winner = INSTR
[DUEL] Epoch ended. INSTR misses = 32, DATA misses = 26. Winner = DATA
[DUEL] Epoch ended. INSTR misses = 26, DATA misses = 5. Winner = DATA
Heartbeat CPU 0 instructions: 20000003 cycles: 3334131 heartbeat IPC: 6 cumulative IPC: 5.999 (Simulation time: 00 hr 00 min 45 sec)
[DUEL] Epoch ended. INSTR misses = 6, DATA misses = 32. Winner = INSTR
[DUEL] Epoch ended. INSTR misses = 31, DATA misses = 31. Winner = INSTR
[DUEL] Epoch ended. INSTR misses = 32, DATA misses = 28. Winner = DATA
[DUEL] Epoch ended. INSTR misses = 28, DATA misses = 4. Winner = DATA
[DUEL] Epoch ended. INSTR misses = 4, DATA misses = 32. Winner = INSTR
[DUEL] Epoch ended. INSTR misses = 32, DATA misses = 32. Winner = INSTR
[DUEL] Epoch ended. INSTR misses = 32, DATA misses = 30. Winner = DATA
[DUEL] Epoch ended. INSTR misses = 30, DATA misses = 2. Winner = DATA
[DUEL] Epoch ended. INSTR misses = 1, DATA misses = 32. Winner = INSTR
[DUEL] Epoch ended. INSTR misses = 32, DATA misses = 32. Winner = INSTR
[DUEL] Epoch ended. INSTR misses = 32, DATA misses = 32. Winner = INSTR
[DUEL] Epoch ended. INSTR misses = 32, DATA misses = 2. Winner = DATA
[DUEL] Epoch ended. INSTR misses = 0, DATA misses = 30. Winner = INSTR
[DUEL] Epoch ended. INSTR misses = 32, DATA misses = 31. Winner = DATA
[DUEL] Epoch ended. INSTR misses = 32, DATA misses = 32. Winner = INSTR
[DUEL] Epoch ended. INSTR misses = 32, DATA misses = 4. Winner = DATA
[DUEL] Epoch ended. INSTR misses = 4, DATA misses = 28. Winner = INSTR
[DUEL] Epoch ended. INSTR misses = 28, DATA misses = 32. Winner = INSTR
[DUEL] Epoch ended. INSTR misses = 32, DATA misses = 32. Winner = INSTR
[DUEL] Epoch ended. INSTR misses = 31, DATA misses = 6. Winner = DATA
[DUEL] Epoch ended. INSTR misses = 6, DATA misses = 26. Winner = INSTR
[DUEL] Epoch ended. INSTR misses = 26, DATA misses = 31. Winner = INSTR
[DUEL] Epoch ended. INSTR misses = 32, DATA misses = 32. Winner = INSTR
[DUEL] Epoch ended. INSTR misses = 32, DATA misses = 8. Winner = DATA
[DUEL] Epoch ended. INSTR misses = 8, DATA misses = 24. Winner = INSTR
[DUEL] Epoch ended. INSTR misses = 24, DATA misses = 32. Winner = INSTR
[DUEL] Epoch ended. INSTR misses = 32, DATA misses = 32. Winner = INSTR
[DUEL] Epoch ended. INSTR misses = 32, DATA misses = 10. Winner = DATA
[DUEL] Epoch ended. INSTR misses = 10, DATA misses = 22. Winner = INSTR
[DUEL] Epoch ended. INSTR misses = 22, DATA misses = 32. Winner = INSTR
[DUEL] Epoch ended. INSTR misses = 32, DATA misses = 32. Winner = INSTR
[DUEL] Epoch ended. INSTR misses = 35, DATA misses = 9. Winner = DATA
[DUEL] Epoch ended. INSTR misses = 12, DATA misses = 22. Winner = INSTR
[DUEL] Epoch ended. INSTR misses = 20, DATA misses = 32. Winner = INSTR
[DUEL] Epoch ended. INSTR misses = 32, DATA misses = 32. Winner = INSTR
[DUEL] Epoch ended. INSTR misses = 32, DATA misses = 14. Winner = DATA
[DUEL] Epoch ended. INSTR misses = 13, DATA misses = 18. Winner = INSTR
[DUEL] Epoch ended. INSTR misses = 18, DATA misses = 32. Winner = INSTR
[DUEL] Epoch ended. INSTR misses = 32, DATA misses = 32. Winner = INSTR
Heartbeat CPU 0 instructions: 30000008 cycles: 5000872 heartbeat IPC: 6 cumulative IPC: 5.999 (Simulation time: 00 hr 01 min 08 sec)
Warmup finished CPU 0 instructions: 30000008 cycles: 5000873 cumulative IPC: 5.999 (Simulation time: 00 hr 01 min 08 sec)
Warmup complete CPU 0 instructions: 30000008 cycles: 5000873 cumulative IPC: 5.999 (Simulation time: 00 hr 01 min 08 sec)
[DUEL] Epoch ended. INSTR misses = 32, DATA misses = 16. Winner = DATA
[DUEL] Epoch ended. INSTR misses = 16, DATA misses = 16. Winner = INSTR
[cpu0_PTW_MSHR] entry:   0 address: 0x132540 v_addr: 0xc256d540 translation_level: 0 event_cycle: 18446744073709551615

DRAM Channel 0
[RQ] entry:   0 empty
[RQ] entry:   1 empty
[RQ] entry:   2 empty
[RQ] entry:   3 empty
[RQ] entry:   4 empty
[RQ] entry:   5 empty
[RQ] entry:   6 empty
[RQ] entry:   7 empty
[RQ] entry:   8 empty
[RQ] entry:   9 empty
[RQ] entry:  10 empty
[RQ] entry:  11 empty
[RQ] entry:  12 empty
[RQ] entry:  13 empty
[RQ] entry:  14 empty
[RQ] entry:  15 empty
[RQ] entry:  16 empty
[RQ] entry:  17 empty
[RQ] entry:  18 empty
[RQ] entry:  19 empty
[RQ] entry:  20 empty
[RQ] entry:  21 empty
[RQ] entry:  22 empty
[RQ] entry:  23 empty
[RQ] entry:  24 empty
[RQ] entry:  25 empty
[RQ] entry:  26 empty
[RQ] entry:  27 empty
[RQ] entry:  28 empty
[RQ] entry:  29 empty
[RQ] entry:  30 empty
[RQ] entry:  31 empty
[RQ] entry:  32 empty
[RQ] entry:  33 empty
[RQ] entry:  34 empty
[RQ] entry:  35 empty
[RQ] entry:  36 empty
[RQ] entry:  37 empty
[RQ] entry:  38 empty
[RQ] entry:  39 empty
[RQ] entry:  40 empty
[RQ] entry:  41 empty
[RQ] entry:  42 empty
[RQ] entry:  43 empty
[RQ] entry:  44 empty
[RQ] entry:  45 empty
[RQ] entry:  46 empty
[RQ] entry:  47 empty
[RQ] entry:  48 empty
[RQ] entry:  49 empty
[RQ] entry:  50 empty
[RQ] entry:  51 empty
[RQ] entry:  52 empty
[RQ] entry:  53 empty
[RQ] entry:  54 empty
[RQ] entry:  55 empty
[RQ] entry:  56 empty
[RQ] entry:  57 empty
[RQ] entry:  58 empty
[RQ] entry:  59 empty
[RQ] entry:  60 empty
[RQ] entry:  61 empty
[RQ] entry:  62 empty
[RQ] entry:  63 empty

[WQ] entry:   0 empty
[WQ] entry:   1 empty
[WQ] entry:   2 empty
[WQ] entry:   3 empty
[WQ] entry:   4 empty
[WQ] entry:   5 empty
[WQ] entry:   6 empty
[WQ] entry:   7 empty
[WQ] entry:   8 empty
[WQ] entry:   9 empty
[WQ] entry:  10 empty
[WQ] entry:  11 empty
[WQ] entry:  12 empty
[WQ] entry:  13 empty
[WQ] entry:  14 empty
[WQ] entry:  15 empty
[WQ] entry:  16 empty
[WQ] entry:  17 empty
[WQ] entry:  18 empty
[WQ] entry:  19 empty
[WQ] entry:  20 empty
[WQ] entry:  21 empty
[WQ] entry:  22 empty
[WQ] entry:  23 empty
[WQ] entry:  24 empty
[WQ] entry:  25 empty
[WQ] entry:  26 empty
[WQ] entry:  27 empty
[WQ] entry:  28 empty
[WQ] entry:  29 empty
[WQ] entry:  30 empty
[WQ] entry:  31 empty
[WQ] entry:  32 empty
[WQ] entry:  33 empty
[WQ] entry:  34 empty
[WQ] entry:  35 empty
[WQ] entry:  36 empty
[WQ] entry:  37 empty
[WQ] entry:  38 empty
[WQ] entry:  39 empty
[WQ] entry:  40 empty
[WQ] entry:  41 empty
[WQ] entry:  42 empty
[WQ] entry:  43 empty
[WQ] entry:  44 empty
[WQ] entry:  45 empty
[WQ] entry:  46 empty
[WQ] entry:  47 empty
[WQ] entry:  48 empty
[WQ] entry:  49 empty
[WQ] entry:  50 empty
[WQ] entry:  51 empty
[WQ] entry:  52 empty
[WQ] entry:  53 empty
[WQ] entry:  54 empty
[WQ] entry:  55 empty
[WQ] entry:  56 empty
[WQ] entry:  57 empty
[WQ] entry:  58 empty
[WQ] entry:  59 empty
[WQ] entry:  60 empty
[WQ] entry:  61 empty
[WQ] entry:  62 empty
[WQ] entry:  63 empty

DRAM Channel 1
[RQ] entry:   0 empty
[RQ] entry:   1 empty
[RQ] entry:   2 empty
[RQ] entry:   3 empty
[RQ] entry:   4 empty
[RQ] entry:   5 empty
[RQ] entry:   6 empty
[RQ] entry:   7 empty
[RQ] entry:   8 empty
[RQ] entry:   9 empty
[RQ] entry:  10 empty
[RQ] entry:  11 empty
[RQ] entry:  12 empty
[RQ] entry:  13 empty
[RQ] entry:  14 empty
[RQ] entry:  15 empty
[RQ] entry:  16 empty
[RQ] entry:  17 empty
[RQ] entry:  18 empty
[RQ] entry:  19 empty
[RQ] entry:  20 empty
[RQ] entry:  21 empty
[RQ] entry:  22 empty
[RQ] entry:  23 empty
[RQ] entry:  24 empty
[RQ] entry:  25 empty
[RQ] entry:  26 empty
[RQ] entry:  27 empty
[RQ] entry:  28 empty
[RQ] entry:  29 empty
[RQ] entry:  30 empty
[RQ] entry:  31 empty
[RQ] entry:  32 empty
[RQ] entry:  33 empty
[RQ] entry:  34 empty
[RQ] entry:  35 empty
[RQ] entry:  36 empty
[RQ] entry:  37 empty
[RQ] entry:  38 empty
[RQ] entry:  39 empty
[RQ] entry:  40 empty
[RQ] entry:  41 empty
[RQ] entry:  42 empty
[RQ] entry:  43 empty
[RQ] entry:  44 empty
[RQ] entry:  45 empty
[RQ] entry:  46 empty
[RQ] entry:  47 empty
[RQ] entry:  48 empty
[RQ] entry:  49 empty
[RQ] entry:  50 empty
[RQ] entry:  51 empty
[RQ] entry:  52 empty
[RQ] entry:  53 empty
[RQ] entry:  54 empty
[RQ] entry:  55 empty
[RQ] entry:  56 empty
[RQ] entry:  57 empty
[RQ] entry:  58 empty
[RQ] entry:  59 empty
[RQ] entry:  60 empty
[RQ] entry:  61 empty
[RQ] entry:  62 empty
[RQ] entry:  63 empty

[WQ] entry:   0 empty
[WQ] entry:   1 empty
[WQ] entry:   2 empty
[WQ] entry:   3 empty
[WQ] entry:   4 empty
[WQ] entry:   5 empty
[WQ] entry:   6 empty
[WQ] entry:   7 empty
[WQ] entry:   8 empty
[WQ] entry:   9 empty
[WQ] entry:  10 empty
[WQ] entry:  11 empty
[WQ] entry:  12 empty
[WQ] entry:  13 empty
[WQ] entry:  14 empty
[WQ] entry:  15 empty
[WQ] entry:  16 empty
[WQ] entry:  17 empty
[WQ] entry:  18 empty
[WQ] entry:  19 empty
[WQ] entry:  20 empty
[WQ] entry:  21 empty
[WQ] entry:  22 empty
[WQ] entry:  23 empty
[WQ] entry:  24 empty
[WQ] entry:  25 empty
[WQ] entry:  26 empty
[WQ] entry:  27 empty
[WQ] entry:  28 empty
[WQ] entry:  29 empty
[WQ] entry:  30 empty
[WQ] entry:  31 empty
[WQ] entry:  32 empty
[WQ] entry:  33 empty
[WQ] entry:  34 empty
[WQ] entry:  35 empty
[WQ] entry:  36 empty
[WQ] entry:  37 empty
[WQ] entry:  38 empty
[WQ] entry:  39 empty
[WQ] entry:  40 empty
[WQ] entry:  41 empty
[WQ] entry:  42 empty
[WQ] entry:  43 empty
[WQ] entry:  44 empty
[WQ] entry:  45 empty
[WQ] entry:  46 empty
[WQ] entry:  47 empty
[WQ] entry:  48 empty
[WQ] entry:  49 empty
[WQ] entry:  50 empty
[WQ] entry:  51 empty
[WQ] entry:  52 empty
[WQ] entry:  53 empty
[WQ] entry:  54 empty
[WQ] entry:  55 empty
[WQ] entry:  56 empty
[WQ] entry:  57 empty
[WQ] entry:  58 empty
[WQ] entry:  59 empty
[WQ] entry:  60 empty
[WQ] entry:  61 empty
[WQ] entry:  62 empty
[WQ] entry:  63 empty

DEADLOCK! CPU 0 cycle 5618000
[cpu0_IFETCH] entry:   0 instr_id: 30405238 fetched: 2 scheduled: 0 executed: 0 num_reg_dependent: 0 num_mem_ops: 0 event: 5606398
[cpu0_IFETCH] entry:   1 instr_id: 30405239 fetched: 2 scheduled: 0 executed: 0 num_reg_dependent: 0 num_mem_ops: 0 event: 5606398
[cpu0_IFETCH] entry:   2 instr_id: 30405240 fetched: 2 scheduled: 0 executed: 0 num_reg_dependent: 0 num_mem_ops: 0 event: 5606398
[cpu0_IFETCH] entry:   3 instr_id: 30405241 fetched: 2 scheduled: 0 executed: 0 num_reg_dependent: 0 num_mem_ops: 0 event: 5606398
[cpu0_IFETCH] entry:   4 instr_id: 30405242 fetched: 2 scheduled: 0 executed: 0 num_reg_dependent: 0 num_mem_ops: 0 event: 5606398
[cpu0_IFETCH] entry:   5 instr_id: 30405243 fetched: 2 scheduled: 0 executed: 0 num_reg_dependent: 0 num_mem_ops: 0 event: 5606399
[cpu0_IFETCH] entry:   6 instr_id: 30405244 fetched: 2 scheduled: 0 executed: 0 num_reg_dependent: 0 num_mem_ops: 0 event: 5606399
[cpu0_IFETCH] entry:   7 instr_id: 30405245 fetched: 2 scheduled: 0 executed: 0 num_reg_dependent: 0 num_mem_ops: 0 event: 5606399
[cpu0_IFETCH] entry:   8 instr_id: 30405246 fetched: 2 scheduled: 0 executed: 0 num_reg_dependent: 0 num_mem_ops: 0 event: 5606399
[cpu0_IFETCH] entry:   9 instr_id: 30405247 fetched: 2 scheduled: 0 executed: 0 num_reg_dependent: 0 num_mem_ops: 1 event: 5606399
[cpu0_IFETCH] entry:  10 instr_id: 30405248 fetched: 2 scheduled: 0 executed: 0 num_reg_dependent: 0 num_mem_ops: 0 event: 5606399
[cpu0_IFETCH] entry:  11 instr_id: 30405249 fetched: 2 scheduled: 0 executed: 0 num_reg_dependent: 0 num_mem_ops: 0 event: 5606400
[cpu0_IFETCH] entry:  12 instr_id: 30405250 fetched: 2 scheduled: 0 executed: 0 num_reg_dependent: 0 num_mem_ops: 1 event: 5606400
[cpu0_IFETCH] entry:  13 instr_id: 30405251 fetched: 2 scheduled: 0 executed: 0 num_reg_dependent: 0 num_mem_ops: 0 event: 5606400
[cpu0_IFETCH] entry:  14 instr_id: 30405252 fetched: 2 scheduled: 0 executed: 0 num_reg_dependent: 0 num_mem_ops: 0 event: 5606400
[cpu0_IFETCH] entry:  15 instr_id: 30405253 fetched: 2 scheduled: 0 executed: 0 num_reg_dependent: 0 num_mem_ops: 0 event: 5606400
[cpu0_IFETCH] entry:  16 instr_id: 30405254 fetched: 2 scheduled: 0 executed: 0 num_reg_dependent: 0 num_mem_ops: 1 event: 5606400
[cpu0_IFETCH] entry:  17 instr_id: 30405255 fetched: 2 scheduled: 0 executed: 0 num_reg_dependent: 0 num_mem_ops: 0 event: 5606401
[cpu0_IFETCH] entry:  18 instr_id: 30405256 fetched: 2 scheduled: 0 executed: 0 num_reg_dependent: 0 num_mem_ops: 1 event: 5606401
[cpu0_IFETCH] entry:  19 instr_id: 30405257 fetched: 2 scheduled: 0 executed: 0 num_reg_dependent: 0 num_mem_ops: 1 event: 5606401
[cpu0_IFETCH] entry:  20 instr_id: 30405258 fetched: 2 scheduled: 0 executed: 0 num_reg_dependent: 0 num_mem_ops: 0 event: 5606401
[cpu0_IFETCH] entry:  21 instr_id: 30405259 fetched: 2 scheduled: 0 executed: 0 num_reg_dependent: 0 num_mem_ops: 1 event: 5606401
[cpu0_IFETCH] entry:  22 instr_id: 30405260 fetched: 2 scheduled: 0 executed: 0 num_reg_dependent: 0 num_mem_ops: 1 event: 5606401
[cpu0_IFETCH] entry:  23 instr_id: 30405261 fetched: 2 scheduled: 0 executed: 0 num_reg_dependent: 0 num_mem_ops: 0 event: 5606402
[cpu0_IFETCH] entry:  24 instr_id: 30405262 fetched: 2 scheduled: 0 executed: 0 num_reg_dependent: 0 num_mem_ops: 1 event: 5606402
[cpu0_IFETCH] entry:  25 instr_id: 30405263 fetched: 2 scheduled: 0 executed: 0 num_reg_dependent: 0 num_mem_ops: 0 event: 5606402
[cpu0_IFETCH] entry:  26 instr_id: 30405264 fetched: 2 scheduled: 0 executed: 0 num_reg_dependent: 0 num_mem_ops: 1 event: 5606402
[cpu0_IFETCH] entry:  27 instr_id: 30405265 fetched: 2 scheduled: 0 executed: 0 num_reg_dependent: 0 num_mem_ops: 0 event: 5606402
[cpu0_IFETCH] entry:  28 instr_id: 30405266 fetched: 2 scheduled: 0 executed: 0 num_reg_dependent: 0 num_mem_ops: 0 event: 5606402
[cpu0_IFETCH] entry:  29 instr_id: 30405267 fetched: 2 scheduled: 0 executed: 0 num_reg_dependent: 0 num_mem_ops: 0 event: 5606403
[cpu0_IFETCH] entry:  30 instr_id: 30405268 fetched: 2 scheduled: 0 executed: 0 num_reg_dependent: 0 num_mem_ops: 0 event: 5606403
[cpu0_IFETCH] entry:  31 instr_id: 30405269 fetched: 2 scheduled: 0 executed: 0 num_reg_dependent: 0 num_mem_ops: 0 event: 5606403
[cpu0_IFETCH] entry:  32 instr_id: 30405270 fetched: 2 scheduled: 0 executed: 0 num_reg_dependent: 0 num_mem_ops: 0 event: 5606403
[cpu0_IFETCH] entry:  33 instr_id: 30405271 fetched: 2 scheduled: 0 executed: 0 num_reg_dependent: 0 num_mem_ops: 0 event: 5606403
[cpu0_IFETCH] entry:  34 instr_id: 30405272 fetched: 2 scheduled: 0 executed: 0 num_reg_dependent: 0 num_mem_ops: 0 event: 5606403
[cpu0_IFETCH] entry:  35 instr_id: 30405273 fetched: 2 scheduled: 0 executed: 0 num_reg_dependent: 0 num_mem_ops: 0 event: 5606404
[cpu0_IFETCH] entry:  36 instr_id: 30405274 fetched: 2 scheduled: 0 executed: 0 num_reg_dependent: 0 num_mem_ops: 1 event: 5606404
[cpu0_IFETCH] entry:  37 instr_id: 30405275 fetched: 2 scheduled: 0 executed: 0 num_reg_dependent: 0 num_mem_ops: 0 event: 5606404
[cpu0_IFETCH] entry:  38 instr_id: 30405276 fetched: 2 scheduled: 0 executed: 0 num_reg_dependent: 0 num_mem_ops: 0 event: 5606404
[cpu0_IFETCH] entry:  39 instr_id: 30405277 fetched: 2 scheduled: 0 executed: 0 num_reg_dependent: 0 num_mem_ops: 0 event: 5606404
[cpu0_IFETCH] entry:  40 instr_id: 30405278 fetched: 2 scheduled: 0 executed: 0 num_reg_dependent: 0 num_mem_ops: 1 event: 5606404
[cpu0_IFETCH] entry:  41 instr_id: 30405279 fetched: 2 scheduled: 0 executed: 0 num_reg_dependent: 0 num_mem_ops: 0 event: 5606405
[cpu0_IFETCH] entry:  42 instr_id: 30405280 fetched: 2 scheduled: 0 executed: 0 num_reg_dependent: 0 num_mem_ops: 0 event: 5606405
[cpu0_IFETCH] entry:  43 instr_id: 30405281 fetched: 2 scheduled: 0 executed: 0 num_reg_dependent: 0 num_mem_ops: 0 event: 5606405
[cpu0_IFETCH] entry:  44 instr_id: 30405282 fetched: 2 scheduled: 0 executed: 0 num_reg_dependent: 0 num_mem_ops: 0 event: 5606405
[cpu0_IFETCH] entry:  45 instr_id: 30405283 fetched: 2 scheduled: 0 executed: 0 num_reg_dependent: 0 num_mem_ops: 0 event: 5606405
[cpu0_IFETCH] entry:  46 instr_id: 30405284 fetched: 2 scheduled: 0 executed: 0 num_reg_dependent: 0 num_mem_ops: 0 event: 5606405
[cpu0_IFETCH] entry:  47 instr_id: 30405285 fetched: 2 scheduled: 0 executed: 0 num_reg_dependent: 0 num_mem_ops: 0 event: 5606406
[cpu0_IFETCH] entry:  48 instr_id: 30405286 fetched: 2 scheduled: 0 executed: 0 num_reg_dependent: 0 num_mem_ops: 0 event: 5606406
[cpu0_IFETCH] entry:  49 instr_id: 30405287 fetched: 2 scheduled: 0 executed: 0 num_reg_dependent: 0 num_mem_ops: 0 event: 5606406
[cpu0_IFETCH] entry:  50 instr_id: 30405288 fetched: 2 scheduled: 0 executed: 0 num_reg_dependent: 0 num_mem_ops: 1 event: 5606406
[cpu0_IFETCH] entry:  51 instr_id: 30405289 fetched: 2 scheduled: 0 executed: 0 num_reg_dependent: 0 num_mem_ops: 0 event: 5606406
[cpu0_IFETCH] entry:  52 instr_id: 30405290 fetched: 2 scheduled: 0 executed: 0 num_reg_dependent: 0 num_mem_ops: 0 event: 5606406
[cpu0_IFETCH] entry:  53 instr_id: 30405291 fetched: 2 scheduled: 0 executed: 0 num_reg_dependent: 0 num_mem_ops: 1 event: 5606407
[cpu0_IFETCH] entry:  54 instr_id: 30405292 fetched: 2 scheduled: 0 executed: 0 num_reg_dependent: 0 num_mem_ops: 0 event: 5606407
[cpu0_IFETCH] entry:  55 instr_id: 30405293 fetched: 2 scheduled: 0 executed: 0 num_reg_dependent: 0 num_mem_ops: 0 event: 5606407
[cpu0_IFETCH] entry:  56 instr_id: 30405294 fetched: 2 scheduled: 0 executed: 0 num_reg_dependent: 0 num_mem_ops: 0 event: 5606407
[cpu0_IFETCH] entry:  57 instr_id: 30405295 fetched: 2 scheduled: 0 executed: 0 num_reg_dependent: 0 num_mem_ops: 1 event: 5606407
[cpu0_IFETCH] entry:  58 instr_id: 30405296 fetched: 2 scheduled: 0 executed: 0 num_reg_dependent: 0 num_mem_ops: 0 event: 5606407
[cpu0_IFETCH] entry:  59 instr_id: 30405297 fetched: 2 scheduled: 0 executed: 0 num_reg_dependent: 0 num_mem_ops: 1 event: 5606408
[cpu0_IFETCH] entry:  60 instr_id: 30405298 fetched: 2 scheduled: 0 executed: 0 num_reg_dependent: 0 num_mem_ops: 1 event: 5606408
[cpu0_IFETCH] entry:  61 instr_id: 30405299 fetched: 2 scheduled: 0 executed: 0 num_reg_dependent: 0 num_mem_ops: 0 event: 5606408
[cpu0_IFETCH] entry:  62 instr_id: 30405300 fetched: 2 scheduled: 0 executed: 0 num_reg_dependent: 0 num_mem_ops: 1 event: 5606408
[cpu0_IFETCH] entry:  63 instr_id: 30405301 fetched: 2 scheduled: 0 executed: 0 num_reg_dependent: 0 num_mem_ops: 1 event: 5606408
[cpu0_IFETCH] entry:  64 instr_id: 30405302 fetched: 2 scheduled: 0 executed: 0 num_reg_dependent: 0 num_mem_ops: 0 event: 5606408
[cpu0_IFETCH] entry:  65 instr_id: 30405303 fetched: 2 scheduled: 0 executed: 0 num_reg_dependent: 0 num_mem_ops: 1 event: 5606409
[cpu0_IFETCH] entry:  66 instr_id: 30405304 fetched: 2 scheduled: 0 executed: 0 num_reg_dependent: 0 num_mem_ops: 0 event: 5606409
[cpu0_IFETCH] entry:  67 instr_id: 30405305 fetched: 2 scheduled: 0 executed: 0 num_reg_dependent: 0 num_mem_ops: 1 event: 5606409
[cpu0_IFETCH] entry:  68 instr_id: 30405306 fetched: 2 scheduled: 0 executed: 0 num_reg_dependent: 0 num_mem_ops: 0 event: 5606409
[cpu0_IFETCH] entry:  69 instr_id: 30405307 fetched: 2 scheduled: 0 executed: 0 num_reg_dependent: 0 num_mem_ops: 0 event: 5606409
[cpu0_IFETCH] entry:  70 instr_id: 30405308 fetched: 2 scheduled: 0 executed: 0 num_reg_dependent: 0 num_mem_ops: 0 event: 5606410
[cpu0_IFETCH] entry:  71 instr_id: 30405309 fetched: 2 scheduled: 0 executed: 0 num_reg_dependent: 0 num_mem_ops: 0 event: 5606410
[cpu0_IFETCH] entry:  72 instr_id: 30405310 fetched: 2 scheduled: 0 executed: 0 num_reg_dependent: 0 num_mem_ops: 0 event: 5606410
[cpu0_IFETCH] entry:  73 instr_id: 30405311 fetched: 2 scheduled: 0 executed: 0 num_reg_dependent: 0 num_mem_ops: 0 event: 5606410
[cpu0_IFETCH] entry:  74 instr_id: 30405312 fetched: 2 scheduled: 0 executed: 0 num_reg_dependent: 0 num_mem_ops: 0 event: 5606410
[cpu0_IFETCH] entry:  75 instr_id: 30405313 fetched: 2 scheduled: 0 executed: 0 num_reg_dependent: 0 num_mem_ops: 0 event: 5606410
[cpu0_IFETCH] entry:  76 instr_id: 30405314 fetched: 2 scheduled: 0 executed: 0 num_reg_dependent: 0 num_mem_ops: 0 event: 5606410
[cpu0_IFETCH] entry:  77 instr_id: 30405315 fetched: 2 scheduled: 0 executed: 0 num_reg_dependent: 0 num_mem_ops: 1 event: 5606411
[cpu0_IFETCH] entry:  78 instr_id: 30405316 fetched: 2 scheduled: 0 executed: 0 num_reg_dependent: 0 num_mem_ops: 0 event: 5606411
[cpu0_IFETCH] entry:  79 instr_id: 30405317 fetched: 2 scheduled: 0 executed: 0 num_reg_dependent: 0 num_mem_ops: 0 event: 5606411
[cpu0_IFETCH] entry:  80 instr_id: 30405318 fetched: 2 scheduled: 0 executed: 0 num_reg_dependent: 0 num_mem_ops: 0 event: 5606411
[cpu0_IFETCH] entry:  81 instr_id: 30405319 fetched: 2 scheduled: 0 executed: 0 num_reg_dependent: 0 num_mem_ops: 1 event: 5606411
[cpu0_IFETCH] entry:  82 instr_id: 30405320 fetched: 2 scheduled: 0 executed: 0 num_reg_dependent: 0 num_mem_ops: 0 event: 5606411
[cpu0_IFETCH] entry:  83 instr_id: 30405321 fetched: 2 scheduled: 0 executed: 0 num_reg_dependent: 0 num_mem_ops: 0 event: 5606412
[cpu0_IFETCH] entry:  84 instr_id: 30405322 fetched: 2 scheduled: 0 executed: 0 num_reg_dependent: 0 num_mem_ops: 0 event: 5606412
[cpu0_IFETCH] entry:  85 instr_id: 30405323 fetched: 2 scheduled: 0 executed: 0 num_reg_dependent: 0 num_mem_ops: 0 event: 5606412
[cpu0_IFETCH] entry:  86 instr_id: 30405324 fetched: 2 scheduled: 0 executed: 0 num_reg_dependent: 0 num_mem_ops: 0 event: 5606412
[cpu0_IFETCH] entry:  87 instr_id: 30405325 fetched: 2 scheduled: 0 executed: 0 num_reg_dependent: 0 num_mem_ops: 0 event: 5606412
[cpu0_IFETCH] entry:  88 instr_id: 30405326 fetched: 2 scheduled: 0 executed: 0 num_reg_dependent: 0 num_mem_ops: 0 event: 5606412
[cpu0_IFETCH] entry:  89 instr_id: 30405327 fetched: 2 scheduled: 0 executed: 0 num_reg_dependent: 0 num_mem_ops: 0 event: 5606413
[cpu0_IFETCH] entry:  90 instr_id: 30405328 fetched: 2 scheduled: 0 executed: 0 num_reg_dependent: 0 num_mem_ops: 0 event: 5606413
[cpu0_IFETCH] entry:  91 instr_id: 30405329 fetched: 2 scheduled: 0 executed: 0 num_reg_dependent: 0 num_mem_ops: 1 event: 5606413
[cpu0_IFETCH] entry:  92 instr_id: 30405330 fetched: 2 scheduled: 0 executed: 0 num_reg_dependent: 0 num_mem_ops: 0 event: 5606413
[cpu0_IFETCH] entry:  93 instr_id: 30405331 fetched: 2 scheduled: 0 executed: 0 num_reg_dependent: 0 num_mem_ops: 0 event: 5606413
[cpu0_IFETCH] entry:  94 instr_id: 30405332 fetched: 2 scheduled: 0 executed: 0 num_reg_dependent: 0 num_mem_ops: 1 event: 5606413
[cpu0_IFETCH] entry:  95 instr_id: 30405333 fetched: 2 scheduled: 0 executed: 0 num_reg_dependent: 0 num_mem_ops: 0 event: 5606414
[cpu0_IFETCH] entry:  96 instr_id: 30405334 fetched: 2 scheduled: 0 executed: 0 num_reg_dependent: 0 num_mem_ops: 0 event: 5606414
[cpu0_IFETCH] entry:  97 instr_id: 30405335 fetched: 2 scheduled: 0 executed: 0 num_reg_dependent: 0 num_mem_ops: 0 event: 5606414
[cpu0_IFETCH] entry:  98 instr_id: 30405336 fetched: 2 scheduled: 0 executed: 0 num_reg_dependent: 0 num_mem_ops: 1 event: 5606414
[cpu0_IFETCH] entry:  99 instr_id: 30405337 fetched: 2 scheduled: 0 executed: 0 num_reg_dependent: 0 num_mem_ops: 0 event: 5606414
[cpu0_IFETCH] entry: 100 instr_id: 30405338 fetched: 2 scheduled: 0 executed: 0 num_reg_dependent: 0 num_mem_ops: 1 event: 5606414
[cpu0_IFETCH] entry: 101 instr_id: 30405339 fetched: 2 scheduled: 0 executed: 0 num_reg_dependent: 0 num_mem_ops: 1 event: 5606415
[cpu0_IFETCH] entry: 102 instr_id: 30405340 fetched: 2 scheduled: 0 executed: 0 num_reg_dependent: 0 num_mem_ops: 0 event: 5606415
[cpu0_IFETCH] entry: 103 instr_id: 30405341 fetched: 2 scheduled: 0 executed: 0 num_reg_dependent: 0 num_mem_ops: 1 event: 5606415
[cpu0_IFETCH] entry: 104 instr_id: 30405342 fetched: 2 scheduled: 0 executed: 0 num_reg_dependent: 0 num_mem_ops: 1 event: 5606415
[cpu0_IFETCH] entry: 105 instr_id: 30405343 fetched: 2 scheduled: 0 executed: 0 num_reg_dependent: 0 num_mem_ops: 0 event: 5606415
[cpu0_IFETCH] entry: 106 instr_id: 30405344 fetched: 2 scheduled: 0 executed: 0 num_reg_dependent: 0 num_mem_ops: 1 event: 5606415
[cpu0_IFETCH] entry: 107 instr_id: 30405345 fetched: 2 scheduled: 0 executed: 0 num_reg_dependent: 0 num_mem_ops: 0 event: 5606416
[cpu0_IFETCH] entry: 108 instr_id: 30405346 fetched: 2 scheduled: 0 executed: 0 num_reg_dependent: 0 num_mem_ops: 1 event: 5606416
[cpu0_IFETCH] entry: 109 instr_id: 30405347 fetched: 2 scheduled: 0 executed: 0 num_reg_dependent: 0 num_mem_ops: 0 event: 5606416
[cpu0_IFETCH] entry: 110 instr_id: 30405348 fetched: 2 scheduled: 0 executed: 0 num_reg_dependent: 0 num_mem_ops: 0 event: 5606416
[cpu0_IFETCH] entry: 111 instr_id: 30405349 fetched: 2 scheduled: 0 executed: 0 num_reg_dependent: 0 num_mem_ops: 0 event: 5606417
[cpu0_IFETCH] entry: 112 instr_id: 30405350 fetched: 2 scheduled: 0 executed: 0 num_reg_dependent: 0 num_mem_ops: 0 event: 5606417
[cpu0_IFETCH] entry: 113 instr_id: 30405351 fetched: 2 scheduled: 0 executed: 0 num_reg_dependent: 0 num_mem_ops: 0 event: 5606417
[cpu0_IFETCH] entry: 114 instr_id: 30405352 fetched: 2 scheduled: 0 executed: 0 num_reg_dependent: 0 num_mem_ops: 0 event: 5606417
[cpu0_IFETCH] entry: 115 instr_id: 30405353 fetched: 2 scheduled: 0 executed: 0 num_reg_dependent: 0 num_mem_ops: 0 event: 5606417
[cpu0_IFETCH] entry: 116 instr_id: 30405354 fetched: 2 scheduled: 0 executed: 0 num_reg_dependent: 0 num_mem_ops: 0 event: 5606417
[cpu0_IFETCH] entry: 117 instr_id: 30405355 fetched: 2 scheduled: 0 executed: 0 num_reg_dependent: 0 num_mem_ops: 0 event: 5606417
[cpu0_IFETCH] entry: 118 instr_id: 30405356 fetched: 2 scheduled: 0 executed: 0 num_reg_dependent: 0 num_mem_ops: 1 event: 5606417
[cpu0_IFETCH] entry: 119 instr_id: 30405357 fetched: 2 scheduled: 0 executed: 0 num_reg_dependent: 0 num_mem_ops: 0 event: 5606418
[cpu0_IFETCH] entry: 120 instr_id: 30405358 fetched: 2 scheduled: 0 executed: 0 num_reg_dependent: 0 num_mem_ops: 0 event: 5606418
[cpu0_IFETCH] entry: 121 instr_id: 30405359 fetched: 2 scheduled: 0 executed: 0 num_reg_dependent: 0 num_mem_ops: 0 event: 5606418
[cpu0_IFETCH] entry: 122 instr_id: 30405360 fetched: 2 scheduled: 0 executed: 0 num_reg_dependent: 0 num_mem_ops: 1 event: 5606418
[cpu0_IFETCH] entry: 123 instr_id: 30405361 fetched: 2 scheduled: 0 executed: 0 num_reg_dependent: 0 num_mem_ops: 0 event: 5606418
[cpu0_IFETCH] entry: 124 instr_id: 30405362 fetched: 2 scheduled: 0 executed: 0 num_reg_dependent: 0 num_mem_ops: 0 event: 5606418
[cpu0_IFETCH] entry: 125 instr_id: 30405363 fetched: 2 scheduled: 0 executed: 0 num_reg_dependent: 0 num_mem_ops: 0 event: 5606419
[cpu0_IFETCH] entry: 126 instr_id: 30405364 fetched: 2 scheduled: 0 executed: 0 num_reg_dependent: 0 num_mem_ops: 0 event: 5606419
[cpu0_IFETCH] entry: 127 instr_id: 30405365 fetched: 2 scheduled: 0 executed: 0 num_reg_dependent: 0 num_mem_ops: 0 event: 5606419
[cpu0_IFETCH] entry: 128 instr_id: 30405366 fetched: 2 scheduled: 0 executed: 0 num_reg_dependent: 0 num_mem_ops: 0 event: 5606419
[cpu0_IFETCH] entry: 129 instr_id: 30405367 fetched: 2 scheduled: 0 executed: 0 num_reg_dependent: 0 num_mem_ops: 0 event: 5606419
[cpu0_IFETCH] entry: 130 instr_id: 30405368 fetched: 2 scheduled: 0 executed: 0 num_reg_dependent: 0 num_mem_ops: 0 event: 5606419
[cpu0_IFETCH] entry: 131 instr_id: 30405369 fetched: 2 scheduled: 0 executed: 0 num_reg_dependent: 0 num_mem_ops: 0 event: 5606420
[cpu0_IFETCH] entry: 132 instr_id: 30405370 fetched: 2 scheduled: 0 executed: 0 num_reg_dependent: 0 num_mem_ops: 1 event: 5606420
[cpu0_IFETCH] entry: 133 instr_id: 30405371 fetched: 2 scheduled: 0 executed: 0 num_reg_dependent: 0 num_mem_ops: 0 event: 5606420
[cpu0_IFETCH] entry: 134 instr_id: 30405372 fetched: 2 scheduled: 0 executed: 0 num_reg_dependent: 0 num_mem_ops: 0 event: 5606420
[cpu0_IFETCH] entry: 135 instr_id: 30405373 fetched: 2 scheduled: 0 executed: 0 num_reg_dependent: 0 num_mem_ops: 1 event: 5606420
[cpu0_IFETCH] entry: 136 instr_id: 30405374 fetched: 2 scheduled: 0 executed: 0 num_reg_dependent: 0 num_mem_ops: 0 event: 5606420
[cpu0_IFETCH] entry: 137 instr_id: 30405375 fetched: 2 scheduled: 0 executed: 0 num_reg_dependent: 0 num_mem_ops: 0 event: 5606421
[cpu0_IFETCH] entry: 138 instr_id: 30405376 fetched: 2 scheduled: 0 executed: 0 num_reg_dependent: 0 num_mem_ops: 0 event: 5606421
[cpu0_IFETCH] entry: 139 instr_id: 30405377 fetched: 2 scheduled: 0 executed: 0 num_reg_dependent: 0 num_mem_ops: 1 event: 5606421
[cpu0_IFETCH] entry: 140 instr_id: 30405378 fetched: 2 scheduled: 0 executed: 0 num_reg_dependent: 0 num_mem_ops: 0 event: 5606421
[cpu0_IFETCH] entry: 141 instr_id: 30405379 fetched: 2 scheduled: 0 executed: 0 num_reg_dependent: 0 num_mem_ops: 1 event: 5606421
[cpu0_IFETCH] entry: 142 instr_id: 30405380 fetched: 2 scheduled: 0 executed: 0 num_reg_dependent: 0 num_mem_ops: 1 event: 5606421
[cpu0_IFETCH] entry: 143 instr_id: 30405381 fetched: 2 scheduled: 0 executed: 0 num_reg_dependent: 0 num_mem_ops: 0 event: 5606422
[cpu0_IFETCH] entry: 144 instr_id: 30405382 fetched: 2 scheduled: 0 executed: 0 num_reg_dependent: 0 num_mem_ops: 1 event: 5606422
[cpu0_IFETCH] entry: 145 instr_id: 30405383 fetched: 2 scheduled: 0 executed: 0 num_reg_dependent: 0 num_mem_ops: 1 event: 5606422
[cpu0_IFETCH] entry: 146 instr_id: 30405384 fetched: 2 scheduled: 0 executed: 0 num_reg_dependent: 0 num_mem_ops: 0 event: 5606422
[cpu0_IFETCH] entry: 147 instr_id: 30405385 fetched: 2 scheduled: 0 executed: 0 num_reg_dependent: 0 num_mem_ops: 1 event: 5606422
[cpu0_IFETCH] entry: 148 instr_id: 30405386 fetched: 2 scheduled: 0 executed: 0 num_reg_dependent: 0 num_mem_ops: 0 event: 5606422
[cpu0_IFETCH] entry: 149 instr_id: 30405387 fetched: 2 scheduled: 0 executed: 0 num_reg_dependent: 0 num_mem_ops: 1 event: 5606423
[cpu0_IFETCH] entry: 150 instr_id: 30405388 fetched: 2 scheduled: 0 executed: 0 num_reg_dependent: 0 num_mem_ops: 0 event: 5606423
[cpu0_IFETCH] entry: 151 instr_id: 30405389 fetched: 2 scheduled: 0 executed: 0 num_reg_dependent: 0 num_mem_ops: 0 event: 5606423
[cpu0_IFETCH] entry: 152 instr_id: 30405390 fetched: 2 scheduled: 0 executed: 0 num_reg_dependent: 0 num_mem_ops: 0 event: 5606424
[cpu0_IFETCH] entry: 153 instr_id: 30405391 fetched: 2 scheduled: 0 executed: 0 num_reg_dependent: 0 num_mem_ops: 0 event: 5606424
[cpu0_IFETCH] entry: 154 instr_id: 30405392 fetched: 2 scheduled: 0 executed: 0 num_reg_dependent: 0 num_mem_ops: 0 event: 5606424
[cpu0_IFETCH] entry: 155 instr_id: 30405393 fetched: 2 scheduled: 0 executed: 0 num_reg_dependent: 0 num_mem_ops: 0 event: 5606424
[cpu0_IFETCH] entry: 156 instr_id: 30405394 fetched: 2 scheduled: 0 executed: 0 num_reg_dependent: 0 num_mem_ops: 0 event: 5606424
[cpu0_IFETCH] entry: 157 instr_id: 30405395 fetched: 2 scheduled: 0 executed: 0 num_reg_dependent: 0 num_mem_ops: 0 event: 5606424
[cpu0_IFETCH] entry: 158 instr_id: 30405396 fetched: 2 scheduled: 0 executed: 0 num_reg_dependent: 0 num_mem_ops: 0 event: 5606424
[cpu0_IFETCH] entry: 159 instr_id: 30405397 fetched: 2 scheduled: 0 executed: 0 num_reg_dependent: 0 num_mem_ops: 1 event: 5606424
[cpu0_IFETCH] entry: 160 instr_id: 30405398 fetched: 2 scheduled: 0 executed: 0 num_reg_dependent: 0 num_mem_ops: 0 event: 5606424
[cpu0_IFETCH] entry: 161 instr_id: 30405399 fetched: 2 scheduled: 0 executed: 0 num_reg_dependent: 0 num_mem_ops: 0 event: 5606425
[cpu0_IFETCH] entry: 162 instr_id: 30405400 fetched: 2 scheduled: 0 executed: 0 num_reg_dependent: 0 num_mem_ops: 0 event: 5606425
[cpu0_IFETCH] entry: 163 instr_id: 30405401 fetched: 2 scheduled: 0 executed: 0 num_reg_dependent: 0 num_mem_ops: 1 event: 5606425
[cpu0_IFETCH] entry: 164 instr_id: 30405402 fetched: 2 scheduled: 0 executed: 0 num_reg_dependent: 0 num_mem_ops: 0 event: 5606425
[cpu0_IFETCH] entry: 165 instr_id: 30405403 fetched: 2 scheduled: 0 executed: 0 num_reg_dependent: 0 num_mem_ops: 0 event: 5606425
[cpu0_IFETCH] entry: 166 instr_id: 30405404 fetched: 2 scheduled: 0 executed: 0 num_reg_dependent: 0 num_mem_ops: 0 event: 5606425
[cpu0_IFETCH] entry: 167 instr_id: 30405405 fetched: 2 scheduled: 0 executed: 0 num_reg_dependent: 0 num_mem_ops: 0 event: 5606426
[cpu0_IFETCH] entry: 168 instr_id: 30405406 fetched: 2 scheduled: 0 executed: 0 num_reg_dependent: 0 num_mem_ops: 0 event: 5606426
[cpu0_IFETCH] entry: 169 instr_id: 30405407 fetched: 2 scheduled: 0 executed: 0 num_reg_dependent: 0 num_mem_ops: 0 event: 5606426
[cpu0_IFETCH] entry: 170 instr_id: 30405408 fetched: 2 scheduled: 0 executed: 0 num_reg_dependent: 0 num_mem_ops: 0 event: 5606426
[cpu0_IFETCH] entry: 171 instr_id: 30405409 fetched: 2 scheduled: 0 executed: 0 num_reg_dependent: 0 num_mem_ops: 0 event: 5606426
[cpu0_IFETCH] entry: 172 instr_id: 30405410 fetched: 2 scheduled: 0 executed: 0 num_reg_dependent: 0 num_mem_ops: 0 event: 5606426
[cpu0_IFETCH] entry: 173 instr_id: 30405411 fetched: 2 scheduled: 0 executed: 0 num_reg_dependent: 0 num_mem_ops: 1 event: 5606427
[cpu0_IFETCH] entry: 174 instr_id: 30405412 fetched: 2 scheduled: 0 executed: 0 num_reg_dependent: 0 num_mem_ops: 0 event: 5606427
[cpu0_IFETCH] entry: 175 instr_id: 30405413 fetched: 2 scheduled: 0 executed: 0 num_reg_dependent: 0 num_mem_ops: 0 event: 5606427
[cpu0_IFETCH] entry: 176 instr_id: 30405414 fetched: 2 scheduled: 0 executed: 0 num_reg_dependent: 0 num_mem_ops: 1 event: 5606427
[cpu0_IFETCH] entry: 177 instr_id: 30405415 fetched: 2 scheduled: 0 executed: 0 num_reg_dependent: 0 num_mem_ops: 0 event: 5606427
[cpu0_IFETCH] entry: 178 instr_id: 30405416 fetched: 2 scheduled: 0 executed: 0 num_reg_dependent: 0 num_mem_ops: 0 event: 5606485
[cpu0_IFETCH] entry: 179 instr_id: 30405417 fetched: 2 scheduled: 0 executed: 0 num_reg_dependent: 0 num_mem_ops: 0 event: 5606485
[cpu0_IFETCH] entry: 180 instr_id: 30405418 fetched: 2 scheduled: 0 executed: 0 num_reg_dependent: 0 num_mem_ops: 1 event: 5606485
[cpu0_IFETCH] entry: 181 instr_id: 30405419 fetched: 2 scheduled: 0 executed: 0 num_reg_dependent: 0 num_mem_ops: 0 event: 5606485
[cpu0_IFETCH] entry: 182 instr_id: 30405420 fetched: 2 scheduled: 0 executed: 0 num_reg_dependent: 0 num_mem_ops: 1 event: 5606485
[cpu0_IFETCH] entry: 183 instr_id: 30405421 fetched: 2 scheduled: 0 executed: 0 num_reg_dependent: 0 num_mem_ops: 1 event: 5606486
[cpu0_IFETCH] entry: 184 instr_id: 30405422 fetched: 2 scheduled: 0 executed: 0 num_reg_dependent: 0 num_mem_ops: 0 event: 5606486
[cpu0_IFETCH] entry: 185 instr_id: 30405423 fetched: 2 scheduled: 0 executed: 0 num_reg_dependent: 0 num_mem_ops: 1 event: 5606486
[cpu0_IFETCH] entry: 186 instr_id: 30405424 fetched: 2 scheduled: 0 executed: 0 num_reg_dependent: 0 num_mem_ops: 1 event: 5606486
[cpu0_IFETCH] entry: 187 instr_id: 30405425 fetched: 2 scheduled: 0 executed: 0 num_reg_dependent: 0 num_mem_ops: 0 event: 5606487
[cpu0_IFETCH] entry: 188 instr_id: 30405426 fetched: 2 scheduled: 0 executed: 0 num_reg_dependent: 0 num_mem_ops: 1 event: 5606487
[cpu0_IFETCH] entry: 189 instr_id: 30405427 fetched: 2 scheduled: 0 executed: 0 num_reg_dependent: 0 num_mem_ops: 0 event: 5606487
[cpu0_IFETCH] entry: 190 instr_id: 30405428 fetched: 2 scheduled: 0 executed: 0 num_reg_dependent: 0 num_mem_ops: 1 event: 5606487
[cpu0_IFETCH] entry: 191 instr_id: 30405429 fetched: 2 scheduled: 0 executed: 0 num_reg_dependent: 0 num_mem_ops: 0 event: 5606487

[cpu0_DECODE] entry:   0 instr_id: 30405094 fetched: 2 scheduled: 0 executed: 0 num_reg_dependent: 0 num_mem_ops: 0 event: 5606405
[cpu0_DECODE] entry:   1 instr_id: 30405095 fetched: 2 scheduled: 0 executed: 0 num_reg_dependent: 0 num_mem_ops: 1 event: 5606405
[cpu0_DECODE] entry:   2 instr_id: 30405096 fetched: 2 scheduled: 0 executed: 0 num_reg_dependent: 0 num_mem_ops: 1 event: 5606405
[cpu0_DECODE] entry:   3 instr_id: 30405097 fetched: 2 scheduled: 0 executed: 0 num_reg_dependent: 0 num_mem_ops: 0 event: 5606405
[cpu0_DECODE] entry:   4 instr_id: 30405098 fetched: 2 scheduled: 0 executed: 0 num_reg_dependent: 0 num_mem_ops: 1 event: 5606405
[cpu0_DECODE] entry:   5 instr_id: 30405099 fetched: 2 scheduled: 0 executed: 0 num_reg_dependent: 0 num_mem_ops: 0 event: 5606406
[cpu0_DECODE] entry:   6 instr_id: 30405100 fetched: 2 scheduled: 0 executed: 0 num_reg_dependent: 0 num_mem_ops: 1 event: 5606406
[cpu0_DECODE] entry:   7 instr_id: 30405101 fetched: 2 scheduled: 0 executed: 0 num_reg_dependent: 0 num_mem_ops: 0 event: 5606406
[cpu0_DECODE] entry:   8 instr_id: 30405102 fetched: 2 scheduled: 0 executed: 0 num_reg_dependent: 0 num_mem_ops: 0 event: 5606406
[cpu0_DECODE] entry:   9 instr_id: 30405103 fetched: 2 scheduled: 0 executed: 0 num_reg_dependent: 0 num_mem_ops: 0 event: 5606406
[cpu0_DECODE] entry:  10 instr_id: 30405104 fetched: 2 scheduled: 0 executed: 0 num_reg_dependent: 0 num_mem_ops: 0 event: 5606406
[cpu0_DECODE] entry:  11 instr_id: 30405105 fetched: 2 scheduled: 0 executed: 0 num_reg_dependent: 0 num_mem_ops: 0 event: 5606407
[cpu0_DECODE] entry:  12 instr_id: 30405106 fetched: 2 scheduled: 0 executed: 0 num_reg_dependent: 0 num_mem_ops: 0 event: 5606407
[cpu0_DECODE] entry:  13 instr_id: 30405107 fetched: 2 scheduled: 0 executed: 0 num_reg_dependent: 0 num_mem_ops: 0 event: 5606407
[cpu0_DECODE] entry:  14 instr_id: 30405108 fetched: 2 scheduled: 0 executed: 0 num_reg_dependent: 0 num_mem_ops: 0 event: 5606407
[cpu0_DECODE] entry:  15 instr_id: 30405109 fetched: 2 scheduled: 0 executed: 0 num_reg_dependent: 0 num_mem_ops: 0 event: 5606407
[cpu0_DECODE] entry:  16 instr_id: 30405110 fetched: 2 scheduled: 0 executed: 0 num_reg_dependent: 0 num_mem_ops: 1 event: 5606407
[cpu0_DECODE] entry:  17 instr_id: 30405111 fetched: 2 scheduled: 0 executed: 0 num_reg_dependent: 0 num_mem_ops: 0 event: 5606408
[cpu0_DECODE] entry:  18 instr_id: 30405112 fetched: 2 scheduled: 0 executed: 0 num_reg_dependent: 0 num_mem_ops: 0 event: 5606408
[cpu0_DECODE] entry:  19 instr_id: 30405113 fetched: 2 scheduled: 0 executed: 0 num_reg_dependent: 0 num_mem_ops: 0 event: 5606408
[cpu0_DECODE] entry:  20 instr_id: 30405114 fetched: 2 scheduled: 0 executed: 0 num_reg_dependent: 0 num_mem_ops: 1 event: 5606408
[cpu0_DECODE] entry:  21 instr_id: 30405115 fetched: 2 scheduled: 0 executed: 0 num_reg_dependent: 0 num_mem_ops: 0 event: 5606408
[cpu0_DECODE] entry:  22 instr_id: 30405116 fetched: 2 scheduled: 0 executed: 0 num_reg_dependent: 0 num_mem_ops: 0 event: 5606408
[cpu0_DECODE] entry:  23 instr_id: 30405117 fetched: 2 scheduled: 0 executed: 0 num_reg_dependent: 0 num_mem_ops: 0 event: 5606409
[cpu0_DECODE] entry:  24 instr_id: 30405118 fetched: 2 scheduled: 0 executed: 0 num_reg_dependent: 0 num_mem_ops: 0 event: 5606409
[cpu0_DECODE] entry:  25 instr_id: 30405119 fetched: 2 scheduled: 0 executed: 0 num_reg_dependent: 0 num_mem_ops: 0 event: 5606409
[cpu0_DECODE] entry:  26 instr_id: 30405120 fetched: 2 scheduled: 0 executed: 0 num_reg_dependent: 0 num_mem_ops: 0 event: 5606409
[cpu0_DECODE] entry:  27 instr_id: 30405121 fetched: 2 scheduled: 0 executed: 0 num_reg_dependent: 0 num_mem_ops: 0 event: 5606409
[cpu0_DECODE] entry:  28 instr_id: 30405122 fetched: 2 scheduled: 0 executed: 0 num_reg_dependent: 0 num_mem_ops: 0 event: 5606409
[cpu0_DECODE] entry:  29 instr_id: 30405123 fetched: 2 scheduled: 0 executed: 0 num_reg_dependent: 0 num_mem_ops: 0 event: 5606410
[cpu0_DECODE] entry:  30 instr_id: 30405124 fetched: 2 scheduled: 0 executed: 0 num_reg_dependent: 0 num_mem_ops: 1 event: 5606410
[cpu0_DECODE] entry:  31 instr_id: 30405125 fetched: 2 scheduled: 0 executed: 0 num_reg_dependent: 0 num_mem_ops: 0 event: 5606410
[cpu0_DECODE] entry:  32 instr_id: 30405126 fetched: 2 scheduled: 0 executed: 0 num_reg_dependent: 0 num_mem_ops: 0 event: 5606410
[cpu0_DECODE] entry:  33 instr_id: 30405127 fetched: 2 scheduled: 0 executed: 0 num_reg_dependent: 0 num_mem_ops: 1 event: 5606410
[cpu0_DECODE] entry:  34 instr_id: 30405128 fetched: 2 scheduled: 0 executed: 0 num_reg_dependent: 0 num_mem_ops: 0 event: 5606410
[cpu0_DECODE] entry:  35 instr_id: 30405129 fetched: 2 scheduled: 0 executed: 0 num_reg_dependent: 0 num_mem_ops: 0 event: 5606411
[cpu0_DECODE] entry:  36 instr_id: 30405130 fetched: 2 scheduled: 0 executed: 0 num_reg_dependent: 0 num_mem_ops: 0 event: 5606411
[cpu0_DECODE] entry:  37 instr_id: 30405131 fetched: 2 scheduled: 0 executed: 0 num_reg_dependent: 0 num_mem_ops: 1 event: 5606411
[cpu0_DECODE] entry:  38 instr_id: 30405132 fetched: 2 scheduled: 0 executed: 0 num_reg_dependent: 0 num_mem_ops: 0 event: 5606411
[cpu0_DECODE] entry:  39 instr_id: 30405133 fetched: 2 scheduled: 0 executed: 0 num_reg_dependent: 0 num_mem_ops: 1 event: 5606411
[cpu0_DECODE] entry:  40 instr_id: 30405134 fetched: 2 scheduled: 0 executed: 0 num_reg_dependent: 0 num_mem_ops: 1 event: 5606411
[cpu0_DECODE] entry:  41 instr_id: 30405135 fetched: 2 scheduled: 0 executed: 0 num_reg_dependent: 0 num_mem_ops: 0 event: 5606412
[cpu0_DECODE] entry:  42 instr_id: 30405136 fetched: 2 scheduled: 0 executed: 0 num_reg_dependent: 0 num_mem_ops: 1 event: 5606412
[cpu0_DECODE] entry:  43 instr_id: 30405137 fetched: 2 scheduled: 0 executed: 0 num_reg_dependent: 0 num_mem_ops: 1 event: 5606412
[cpu0_DECODE] entry:  44 instr_id: 30405138 fetched: 2 scheduled: 0 executed: 0 num_reg_dependent: 0 num_mem_ops: 0 event: 5606412
[cpu0_DECODE] entry:  45 instr_id: 30405139 fetched: 2 scheduled: 0 executed: 0 num_reg_dependent: 0 num_mem_ops: 1 event: 5606412
[cpu0_DECODE] entry:  46 instr_id: 30405140 fetched: 2 scheduled: 0 executed: 0 num_reg_dependent: 0 num_mem_ops: 0 event: 5606412
[cpu0_DECODE] entry:  47 instr_id: 30405141 fetched: 2 scheduled: 0 executed: 0 num_reg_dependent: 0 num_mem_ops: 1 event: 5606413
[cpu0_DECODE] entry:  48 instr_id: 30405142 fetched: 2 scheduled: 0 executed: 0 num_reg_dependent: 0 num_mem_ops: 0 event: 5606413
[cpu0_DECODE] entry:  49 instr_id: 30405143 fetched: 2 scheduled: 0 executed: 0 num_reg_dependent: 0 num_mem_ops: 0 event: 5606413
[cpu0_DECODE] entry:  50 instr_id: 30405144 fetched: 2 scheduled: 0 executed: 0 num_reg_dependent: 0 num_mem_ops: 0 event: 5606413
[cpu0_DECODE] entry:  51 instr_id: 30405145 fetched: 2 scheduled: 0 executed: 0 num_reg_dependent: 0 num_mem_ops: 0 event: 5606413
[cpu0_DECODE] entry:  52 instr_id: 30405146 fetched: 2 scheduled: 0 executed: 0 num_reg_dependent: 0 num_mem_ops: 0 event: 5606413
[cpu0_DECODE] entry:  53 instr_id: 30405147 fetched: 2 scheduled: 0 executed: 0 num_reg_dependent: 0 num_mem_ops: 0 event: 5606414
[cpu0_DECODE] entry:  54 instr_id: 30405148 fetched: 2 scheduled: 0 executed: 0 num_reg_dependent: 0 num_mem_ops: 0 event: 5606414
[cpu0_DECODE] entry:  55 instr_id: 30405149 fetched: 2 scheduled: 0 executed: 0 num_reg_dependent: 0 num_mem_ops: 0 event: 5606414
[cpu0_DECODE] entry:  56 instr_id: 30405150 fetched: 2 scheduled: 0 executed: 0 num_reg_dependent: 0 num_mem_ops: 0 event: 5606414
[cpu0_DECODE] entry:  57 instr_id: 30405151 fetched: 2 scheduled: 0 executed: 0 num_reg_dependent: 0 num_mem_ops: 1 event: 5606414
[cpu0_DECODE] entry:  58 instr_id: 30405152 fetched: 2 scheduled: 0 executed: 0 num_reg_dependent: 0 num_mem_ops: 0 event: 5606414
[cpu0_DECODE] entry:  59 instr_id: 30405153 fetched: 2 scheduled: 0 executed: 0 num_reg_dependent: 0 num_mem_ops: 0 event: 5606415
[cpu0_DECODE] entry:  60 instr_id: 30405154 fetched: 2 scheduled: 0 executed: 0 num_reg_dependent: 0 num_mem_ops: 0 event: 5606415
[cpu0_DECODE] entry:  61 instr_id: 30405155 fetched: 2 scheduled: 0 executed: 0 num_reg_dependent: 0 num_mem_ops: 1 event: 5606415
[cpu0_DECODE] entry:  62 instr_id: 30405156 fetched: 2 scheduled: 0 executed: 0 num_reg_dependent: 0 num_mem_ops: 0 event: 5606415
[cpu0_DECODE] entry:  63 instr_id: 30405157 fetched: 2 scheduled: 0 executed: 0 num_reg_dependent: 0 num_mem_ops: 0 event: 5606415
[cpu0_DECODE] entry:  64 instr_id: 30405158 fetched: 2 scheduled: 0 executed: 0 num_reg_dependent: 0 num_mem_ops: 0 event: 5606415
[cpu0_DECODE] entry:  65 instr_id: 30405159 fetched: 2 scheduled: 0 executed: 0 num_reg_dependent: 0 num_mem_ops: 0 event: 5606416
[cpu0_DECODE] entry:  66 instr_id: 30405160 fetched: 2 scheduled: 0 executed: 0 num_reg_dependent: 0 num_mem_ops: 0 event: 5606416
[cpu0_DECODE] entry:  67 instr_id: 30405161 fetched: 2 scheduled: 0 executed: 0 num_reg_dependent: 0 num_mem_ops: 0 event: 5606416
[cpu0_DECODE] entry:  68 instr_id: 30405162 fetched: 2 scheduled: 0 executed: 0 num_reg_dependent: 0 num_mem_ops: 0 event: 5606416
[cpu0_DECODE] entry:  69 instr_id: 30405163 fetched: 2 scheduled: 0 executed: 0 num_reg_dependent: 0 num_mem_ops: 0 event: 5606416
[cpu0_DECODE] entry:  70 instr_id: 30405164 fetched: 2 scheduled: 0 executed: 0 num_reg_dependent: 0 num_mem_ops: 0 event: 5606416
[cpu0_DECODE] entry:  71 instr_id: 30405165 fetched: 2 scheduled: 0 executed: 0 num_reg_dependent: 0 num_mem_ops: 1 event: 5606417
[cpu0_DECODE] entry:  72 instr_id: 30405166 fetched: 2 scheduled: 0 executed: 0 num_reg_dependent: 0 num_mem_ops: 0 event: 5606417
[cpu0_DECODE] entry:  73 instr_id: 30405167 fetched: 2 scheduled: 0 executed: 0 num_reg_dependent: 0 num_mem_ops: 0 event: 5606417
[cpu0_DECODE] entry:  74 instr_id: 30405168 fetched: 2 scheduled: 0 executed: 0 num_reg_dependent: 0 num_mem_ops: 1 event: 5606417
[cpu0_DECODE] entry:  75 instr_id: 30405169 fetched: 2 scheduled: 0 executed: 0 num_reg_dependent: 0 num_mem_ops: 0 event: 5606417
[cpu0_DECODE] entry:  76 instr_id: 30405170 fetched: 2 scheduled: 0 executed: 0 num_reg_dependent: 0 num_mem_ops: 0 event: 5606417
[cpu0_DECODE] entry:  77 instr_id: 30405171 fetched: 2 scheduled: 0 executed: 0 num_reg_dependent: 0 num_mem_ops: 0 event: 5606418
[cpu0_DECODE] entry:  78 instr_id: 30405172 fetched: 2 scheduled: 0 executed: 0 num_reg_dependent: 0 num_mem_ops: 1 event: 5606418
[cpu0_DECODE] entry:  79 instr_id: 30405173 fetched: 2 scheduled: 0 executed: 0 num_reg_dependent: 0 num_mem_ops: 0 event: 5606418
[cpu0_DECODE] entry:  80 instr_id: 30405174 fetched: 2 scheduled: 0 executed: 0 num_reg_dependent: 0 num_mem_ops: 1 event: 5606418
[cpu0_DECODE] entry:  81 instr_id: 30405175 fetched: 2 scheduled: 0 executed: 0 num_reg_dependent: 0 num_mem_ops: 1 event: 5606418
[cpu0_DECODE] entry:  82 instr_id: 30405176 fetched: 2 scheduled: 0 executed: 0 num_reg_dependent: 0 num_mem_ops: 0 event: 5606418
[cpu0_DECODE] entry:  83 instr_id: 30405177 fetched: 2 scheduled: 0 executed: 0 num_reg_dependent: 0 num_mem_ops: 1 event: 5606419
[cpu0_DECODE] entry:  84 instr_id: 30405178 fetched: 2 scheduled: 0 executed: 0 num_reg_dependent: 0 num_mem_ops: 1 event: 5606419
[cpu0_DECODE] entry:  85 instr_id: 30405179 fetched: 2 scheduled: 0 executed: 0 num_reg_dependent: 0 num_mem_ops: 0 event: 5606419
[cpu0_DECODE] entry:  86 instr_id: 30405180 fetched: 2 scheduled: 0 executed: 0 num_reg_dependent: 0 num_mem_ops: 1 event: 5606419
[cpu0_DECODE] entry:  87 instr_id: 30405181 fetched: 2 scheduled: 0 executed: 0 num_reg_dependent: 0 num_mem_ops: 0 event: 5606419
[cpu0_DECODE] entry:  88 instr_id: 30405182 fetched: 2 scheduled: 0 executed: 0 num_reg_dependent: 0 num_mem_ops: 1 event: 5606419
[cpu0_DECODE] entry:  89 instr_id: 30405183 fetched: 2 scheduled: 0 executed: 0 num_reg_dependent: 0 num_mem_ops: 0 event: 5606420
[cpu0_DECODE] entry:  90 instr_id: 30405184 fetched: 2 scheduled: 0 executed: 0 num_reg_dependent: 0 num_mem_ops: 0 event: 5606420
[cpu0_DECODE] entry:  91 instr_id: 30405185 fetched: 2 scheduled: 0 executed: 0 num_reg_dependent: 0 num_mem_ops: 0 event: 5606420
[cpu0_DECODE] entry:  92 instr_id: 30405186 fetched: 2 scheduled: 0 executed: 0 num_reg_dependent: 0 num_mem_ops: 0 event: 5606420
[cpu0_DECODE] entry:  93 instr_id: 30405187 fetched: 2 scheduled: 0 executed: 0 num_reg_dependent: 0 num_mem_ops: 0 event: 5606420
[cpu0_DECODE] entry:  94 instr_id: 30405188 fetched: 2 scheduled: 0 executed: 0 num_reg_dependent: 0 num_mem_ops: 0 event: 5606420
[cpu0_DECODE] entry:  95 instr_id: 30405189 fetched: 2 scheduled: 0 executed: 0 num_reg_dependent: 0 num_mem_ops: 0 event: 5606421
[cpu0_DECODE] entry:  96 instr_id: 30405190 fetched: 2 scheduled: 0 executed: 0 num_reg_dependent: 0 num_mem_ops: 0 event: 5606421
[cpu0_DECODE] entry:  97 instr_id: 30405191 fetched: 2 scheduled: 0 executed: 0 num_reg_dependent: 0 num_mem_ops: 0 event: 5606421
[cpu0_DECODE] entry:  98 instr_id: 30405192 fetched: 2 scheduled: 0 executed: 0 num_reg_dependent: 0 num_mem_ops: 1 event: 5606421
[cpu0_DECODE] entry:  99 instr_id: 30405193 fetched: 2 scheduled: 0 executed: 0 num_reg_dependent: 0 num_mem_ops: 0 event: 5606421
[cpu0_DECODE] entry: 100 instr_id: 30405194 fetched: 2 scheduled: 0 executed: 0 num_reg_dependent: 0 num_mem_ops: 0 event: 5606421
[cpu0_DECODE] entry: 101 instr_id: 30405195 fetched: 2 scheduled: 0 executed: 0 num_reg_dependent: 0 num_mem_ops: 0 event: 5606422
[cpu0_DECODE] entry: 102 instr_id: 30405196 fetched: 2 scheduled: 0 executed: 0 num_reg_dependent: 0 num_mem_ops: 1 event: 5606422
[cpu0_DECODE] entry: 103 instr_id: 30405197 fetched: 2 scheduled: 0 executed: 0 num_reg_dependent: 0 num_mem_ops: 0 event: 5606422
[cpu0_DECODE] entry: 104 instr_id: 30405198 fetched: 2 scheduled: 0 executed: 0 num_reg_dependent: 0 num_mem_ops: 0 event: 5606422
[cpu0_DECODE] entry: 105 instr_id: 30405199 fetched: 2 scheduled: 0 executed: 0 num_reg_dependent: 0 num_mem_ops: 0 event: 5606422
[cpu0_DECODE] entry: 106 instr_id: 30405200 fetched: 2 scheduled: 0 executed: 0 num_reg_dependent: 0 num_mem_ops: 0 event: 5606422
[cpu0_DECODE] entry: 107 instr_id: 30405201 fetched: 2 scheduled: 0 executed: 0 num_reg_dependent: 0 num_mem_ops: 0 event: 5606423
[cpu0_DECODE] entry: 108 instr_id: 30405202 fetched: 2 scheduled: 0 executed: 0 num_reg_dependent: 0 num_mem_ops: 0 event: 5606423
[cpu0_DECODE] entry: 109 instr_id: 30405203 fetched: 2 scheduled: 0 executed: 0 num_reg_dependent: 0 num_mem_ops: 0 event: 5606423
[cpu0_DECODE] entry: 110 instr_id: 30405204 fetched: 2 scheduled: 0 executed: 0 num_reg_dependent: 0 num_mem_ops: 0 event: 5606423
[cpu0_DECODE] entry: 111 instr_id: 30405205 fetched: 2 scheduled: 0 executed: 0 num_reg_dependent: 0 num_mem_ops: 0 event: 5606423
[cpu0_DECODE] entry: 112 instr_id: 30405206 fetched: 2 scheduled: 0 executed: 0 num_reg_dependent: 0 num_mem_ops: 1 event: 5606423
[cpu0_DECODE] entry: 113 instr_id: 30405207 fetched: 2 scheduled: 0 executed: 0 num_reg_dependent: 0 num_mem_ops: 0 event: 5606424
[cpu0_DECODE] entry: 114 instr_id: 30405208 fetched: 2 scheduled: 0 executed: 0 num_reg_dependent: 0 num_mem_ops: 0 event: 5606424
[cpu0_DECODE] entry: 115 instr_id: 30405209 fetched: 2 scheduled: 0 executed: 0 num_reg_dependent: 0 num_mem_ops: 1 event: 5606424
[cpu0_DECODE] entry: 116 instr_id: 30405210 fetched: 2 scheduled: 0 executed: 0 num_reg_dependent: 0 num_mem_ops: 0 event: 5606424
[cpu0_DECODE] entry: 117 instr_id: 30405211 fetched: 2 scheduled: 0 executed: 0 num_reg_dependent: 0 num_mem_ops: 0 event: 5606424
[cpu0_DECODE] entry: 118 instr_id: 30405212 fetched: 2 scheduled: 0 executed: 0 num_reg_dependent: 0 num_mem_ops: 0 event: 5606424
[cpu0_DECODE] entry: 119 instr_id: 30405213 fetched: 2 scheduled: 0 executed: 0 num_reg_dependent: 0 num_mem_ops: 1 event: 5606425
[cpu0_DECODE] entry: 120 instr_id: 30405214 fetched: 2 scheduled: 0 executed: 0 num_reg_dependent: 0 num_mem_ops: 0 event: 5606425
[cpu0_DECODE] entry: 121 instr_id: 30405215 fetched: 2 scheduled: 0 executed: 0 num_reg_dependent: 0 num_mem_ops: 1 event: 5606425
[cpu0_DECODE] entry: 122 instr_id: 30405216 fetched: 2 scheduled: 0 executed: 0 num_reg_dependent: 0 num_mem_ops: 1 event: 5606425
[cpu0_DECODE] entry: 123 instr_id: 30405217 fetched: 2 scheduled: 0 executed: 0 num_reg_dependent: 0 num_mem_ops: 0 event: 5606425
[cpu0_DECODE] entry: 124 instr_id: 30405218 fetched: 2 scheduled: 0 executed: 0 num_reg_dependent: 0 num_mem_ops: 1 event: 5606425
[cpu0_DECODE] entry: 125 instr_id: 30405219 fetched: 2 scheduled: 0 executed: 0 num_reg_dependent: 0 num_mem_ops: 1 event: 5606426
[cpu0_DECODE] entry: 126 instr_id: 30405220 fetched: 2 scheduled: 0 executed: 0 num_reg_dependent: 0 num_mem_ops: 0 event: 5606426
[cpu0_DECODE] entry: 127 instr_id: 30405221 fetched: 2 scheduled: 0 executed: 0 num_reg_dependent: 0 num_mem_ops: 1 event: 5606426
[cpu0_DECODE] entry: 128 instr_id: 30405222 fetched: 2 scheduled: 0 executed: 0 num_reg_dependent: 0 num_mem_ops: 0 event: 5606426
[cpu0_DECODE] entry: 129 instr_id: 30405223 fetched: 2 scheduled: 0 executed: 0 num_reg_dependent: 0 num_mem_ops: 1 event: 5606426
[cpu0_DECODE] entry: 130 instr_id: 30405224 fetched: 2 scheduled: 0 executed: 0 num_reg_dependent: 0 num_mem_ops: 0 event: 5606484
[cpu0_DECODE] entry: 131 instr_id: 30405225 fetched: 2 scheduled: 0 executed: 0 num_reg_dependent: 0 num_mem_ops: 0 event: 5606484
[cpu0_DECODE] entry: 132 instr_id: 30405226 fetched: 2 scheduled: 0 executed: 0 num_reg_dependent: 0 num_mem_ops: 0 event: 5606484
[cpu0_DECODE] entry: 133 instr_id: 30405227 fetched: 2 scheduled: 0 executed: 0 num_reg_dependent: 0 num_mem_ops: 0 event: 5606484
[cpu0_DECODE] entry: 134 instr_id: 30405228 fetched: 2 scheduled: 0 executed: 0 num_reg_dependent: 0 num_mem_ops: 0 event: 5606484
[cpu0_DECODE] entry: 135 instr_id: 30405229 fetched: 2 scheduled: 0 executed: 0 num_reg_dependent: 0 num_mem_ops: 0 event: 5606485
[cpu0_DECODE] entry: 136 instr_id: 30405230 fetched: 2 scheduled: 0 executed: 0 num_reg_dependent: 0 num_mem_ops: 0 event: 5606485
[cpu0_DECODE] entry: 137 instr_id: 30405231 fetched: 2 scheduled: 0 executed: 0 num_reg_dependent: 0 num_mem_ops: 0 event: 5606485
[cpu0_DECODE] entry: 138 instr_id: 30405232 fetched: 2 scheduled: 0 executed: 0 num_reg_dependent: 0 num_mem_ops: 0 event: 5606485
[cpu0_DECODE] entry: 139 instr_id: 30405233 fetched: 2 scheduled: 0 executed: 0 num_reg_dependent: 0 num_mem_ops: 1 event: 5606486
[cpu0_DECODE] entry: 140 instr_id: 30405234 fetched: 2 scheduled: 0 executed: 0 num_reg_dependent: 0 num_mem_ops: 0 event: 5606486
[cpu0_DECODE] entry: 141 instr_id: 30405235 fetched: 2 scheduled: 0 executed: 0 num_reg_dependent: 0 num_mem_ops: 0 event: 5606486
[cpu0_DECODE] entry: 142 instr_id: 30405236 fetched: 2 scheduled: 0 executed: 0 num_reg_dependent: 0 num_mem_ops: 0 event: 5606486
[cpu0_DECODE] entry: 143 instr_id: 30405237 fetched: 2 scheduled: 0 executed: 0 num_reg_dependent: 0 num_mem_ops: 1 event: 5606486

[cpu0_DISPATCH] entry:   0 instr_id: 30405062 fetched: 2 scheduled: 0 executed: 0 num_reg_dependent: 0 num_mem_ops: 0 event: 5606424
[cpu0_DISPATCH] entry:   1 instr_id: 30405063 fetched: 2 scheduled: 0 executed: 0 num_reg_dependent: 0 num_mem_ops: 0 event: 5606425
[cpu0_DISPATCH] entry:   2 instr_id: 30405064 fetched: 2 scheduled: 0 executed: 0 num_reg_dependent: 0 num_mem_ops: 0 event: 5606425
[cpu0_DISPATCH] entry:   3 instr_id: 30405065 fetched: 2 scheduled: 0 executed: 0 num_reg_dependent: 0 num_mem_ops: 0 event: 5606425
[cpu0_DISPATCH] entry:   4 instr_id: 30405066 fetched: 2 scheduled: 0 executed: 0 num_reg_dependent: 0 num_mem_ops: 0 event: 5606425
[cpu0_DISPATCH] entry:   5 instr_id: 30405067 fetched: 2 scheduled: 0 executed: 0 num_reg_dependent: 0 num_mem_ops: 0 event: 5606425
[cpu0_DISPATCH] entry:   6 instr_id: 30405068 fetched: 2 scheduled: 0 executed: 0 num_reg_dependent: 0 num_mem_ops: 0 event: 5606425
[cpu0_DISPATCH] entry:   7 instr_id: 30405069 fetched: 2 scheduled: 0 executed: 0 num_reg_dependent: 0 num_mem_ops: 1 event: 5606426
[cpu0_DISPATCH] entry:   8 instr_id: 30405070 fetched: 2 scheduled: 0 executed: 0 num_reg_dependent: 0 num_mem_ops: 0 event: 5606426
[cpu0_DISPATCH] entry:   9 instr_id: 30405071 fetched: 2 scheduled: 0 executed: 0 num_reg_dependent: 0 num_mem_ops: 0 event: 5606426
[cpu0_DISPATCH] entry:  10 instr_id: 30405072 fetched: 2 scheduled: 0 executed: 0 num_reg_dependent: 0 num_mem_ops: 0 event: 5606426
[cpu0_DISPATCH] entry:  11 instr_id: 30405073 fetched: 2 scheduled: 0 executed: 0 num_reg_dependent: 0 num_mem_ops: 1 event: 5606426
[cpu0_DISPATCH] entry:  12 instr_id: 30405074 fetched: 2 scheduled: 0 executed: 0 num_reg_dependent: 0 num_mem_ops: 0 event: 5606426
[cpu0_DISPATCH] entry:  13 instr_id: 30405075 fetched: 2 scheduled: 0 executed: 0 num_reg_dependent: 0 num_mem_ops: 0 event: 5606427
[cpu0_DISPATCH] entry:  14 instr_id: 30405076 fetched: 2 scheduled: 0 executed: 0 num_reg_dependent: 0 num_mem_ops: 0 event: 5606427
[cpu0_DISPATCH] entry:  15 instr_id: 30405077 fetched: 2 scheduled: 0 executed: 0 num_reg_dependent: 0 num_mem_ops: 0 event: 5606427
[cpu0_DISPATCH] entry:  16 instr_id: 30405078 fetched: 2 scheduled: 0 executed: 0 num_reg_dependent: 0 num_mem_ops: 0 event: 5606427
[cpu0_DISPATCH] entry:  17 instr_id: 30405079 fetched: 2 scheduled: 0 executed: 0 num_reg_dependent: 0 num_mem_ops: 0 event: 5606427
[cpu0_DISPATCH] entry:  18 instr_id: 30405080 fetched: 2 scheduled: 0 executed: 0 num_reg_dependent: 0 num_mem_ops: 0 event: 5606485
[cpu0_DISPATCH] entry:  19 instr_id: 30405081 fetched: 2 scheduled: 0 executed: 0 num_reg_dependent: 0 num_mem_ops: 0 event: 5606485
[cpu0_DISPATCH] entry:  20 instr_id: 30405082 fetched: 2 scheduled: 0 executed: 0 num_reg_dependent: 0 num_mem_ops: 0 event: 5606485
[cpu0_DISPATCH] entry:  21 instr_id: 30405083 fetched: 2 scheduled: 0 executed: 0 num_reg_dependent: 0 num_mem_ops: 1 event: 5606485
[cpu0_DISPATCH] entry:  22 instr_id: 30405084 fetched: 2 scheduled: 0 executed: 0 num_reg_dependent: 0 num_mem_ops: 0 event: 5606485
[cpu0_DISPATCH] entry:  23 instr_id: 30405085 fetched: 2 scheduled: 0 executed: 0 num_reg_dependent: 0 num_mem_ops: 0 event: 5606486
[cpu0_DISPATCH] entry:  24 instr_id: 30405086 fetched: 2 scheduled: 0 executed: 0 num_reg_dependent: 0 num_mem_ops: 1 event: 5606486
[cpu0_DISPATCH] entry:  25 instr_id: 30405087 fetched: 2 scheduled: 0 executed: 0 num_reg_dependent: 0 num_mem_ops: 0 event: 5606486
[cpu0_DISPATCH] entry:  26 instr_id: 30405088 fetched: 2 scheduled: 0 executed: 0 num_reg_dependent: 0 num_mem_ops: 0 event: 5606486
[cpu0_DISPATCH] entry:  27 instr_id: 30405089 fetched: 2 scheduled: 0 executed: 0 num_reg_dependent: 0 num_mem_ops: 0 event: 5606487
[cpu0_DISPATCH] entry:  28 instr_id: 30405090 fetched: 2 scheduled: 0 executed: 0 num_reg_dependent: 0 num_mem_ops: 1 event: 5606487
[cpu0_DISPATCH] entry:  29 instr_id: 30405091 fetched: 2 scheduled: 0 executed: 0 num_reg_dependent: 0 num_mem_ops: 0 event: 5606487
[cpu0_DISPATCH] entry:  30 instr_id: 30405092 fetched: 2 scheduled: 0 executed: 0 num_reg_dependent: 0 num_mem_ops: 1 event: 5606487
[cpu0_DISPATCH] entry:  31 instr_id: 30405093 fetched: 2 scheduled: 0 executed: 0 num_reg_dependent: 0 num_mem_ops: 1 event: 5606487

[cpu0_ROB] entry:   0 instr_id: 30404550 fetched: 2 scheduled: 2 executed: 1 num_reg_dependent: 0 num_mem_ops: 1 event: 5606360
[cpu0_ROB] entry:   1 instr_id: 30404551 fetched: 2 scheduled: 2 executed: 0 num_reg_dependent: 1 num_mem_ops: 0 event: 5606358
[cpu0_ROB] entry:   2 instr_id: 30404552 fetched: 2 scheduled: 2 executed: 2 num_reg_dependent: 0 num_mem_ops: 0 event: 5606359
[cpu0_ROB] entry:   3 instr_id: 30404553 fetched: 2 scheduled: 2 executed: 0 num_reg_dependent: 1 num_mem_ops: 0 event: 5606358
[cpu0_ROB] entry:   4 instr_id: 30404554 fetched: 2 scheduled: 2 executed: 2 num_reg_dependent: 0 num_mem_ops: 0 event: 5606360
[cpu0_ROB] entry:   5 instr_id: 30404555 fetched: 2 scheduled: 2 executed: 2 num_reg_dependent: 0 num_mem_ops: 0 event: 5606366
[cpu0_ROB] entry:   6 instr_id: 30404556 fetched: 2 scheduled: 2 executed: 2 num_reg_dependent: 0 num_mem_ops: 0 event: 5606360
[cpu0_ROB] entry:   7 instr_id: 30404557 fetched: 2 scheduled: 2 executed: 1 num_reg_dependent: 0 num_mem_ops: 1 event: 5606361
[cpu0_ROB] entry:   8 instr_id: 30404558 fetched: 2 scheduled: 2 executed: 0 num_reg_dependent: 1 num_mem_ops: 0 event: 5606360
[cpu0_ROB] entry:   9 instr_id: 30404559 fetched: 2 scheduled: 2 executed: 0 num_reg_dependent: 1 num_mem_ops: 0 event: 5606360
[cpu0_ROB] entry:  10 instr_id: 30404560 fetched: 2 scheduled: 2 executed: 1 num_reg_dependent: 0 num_mem_ops: 1 event: 5606361
[cpu0_ROB] entry:  11 instr_id: 30404561 fetched: 2 scheduled: 2 executed: 0 num_reg_dependent: 1 num_mem_ops: 0 event: 5606360
[cpu0_ROB] entry:  12 instr_id: 30404562 fetched: 2 scheduled: 2 executed: 0 num_reg_dependent: 1 num_mem_ops: 0 event: 5606361
[cpu0_ROB] entry:  13 instr_id: 30404563 fetched: 2 scheduled: 2 executed: 1 num_reg_dependent: 0 num_mem_ops: 1 event: 5606362
[cpu0_ROB] entry:  14 instr_id: 30404564 fetched: 2 scheduled: 2 executed: 0 num_reg_dependent: 1 num_mem_ops: 0 event: 5606361
[cpu0_ROB] entry:  15 instr_id: 30404565 fetched: 2 scheduled: 2 executed: 0 num_reg_dependent: 1 num_mem_ops: 0 event: 5606361
[cpu0_ROB] entry:  16 instr_id: 30404566 fetched: 2 scheduled: 2 executed: 2 num_reg_dependent: 0 num_mem_ops: 0 event: 5606362
[cpu0_ROB] entry:  17 instr_id: 30404567 fetched: 2 scheduled: 2 executed: 2 num_reg_dependent: 0 num_mem_ops: 0 event: 5606362
[cpu0_ROB] entry:  18 instr_id: 30404568 fetched: 2 scheduled: 2 executed: 2 num_reg_dependent: 0 num_mem_ops: 0 event: 5606363
[cpu0_ROB] entry:  19 instr_id: 30404569 fetched: 2 scheduled: 2 executed: 2 num_reg_dependent: 0 num_mem_ops: 0 event: 5606367
[cpu0_ROB] entry:  20 instr_id: 30404570 fetched: 2 scheduled: 2 executed: 2 num_reg_dependent: 0 num_mem_ops: 0 event: 5606363
[cpu0_ROB] entry:  21 instr_id: 30404571 fetched: 2 scheduled: 2 executed: 2 num_reg_dependent: 0 num_mem_ops: 0 event: 5606364
[cpu0_ROB] entry:  22 instr_id: 30404572 fetched: 2 scheduled: 2 executed: 2 num_reg_dependent: 0 num_mem_ops: 0 event: 5606365
[cpu0_ROB] entry:  23 instr_id: 30404573 fetched: 2 scheduled: 2 executed: 2 num_reg_dependent: 0 num_mem_ops: 0 event: 5606366
[cpu0_ROB] entry:  24 instr_id: 30404574 fetched: 2 scheduled: 2 executed: 2 num_reg_dependent: 0 num_mem_ops: 0 event: 5606368
[cpu0_ROB] entry:  25 instr_id: 30404575 fetched: 2 scheduled: 2 executed: 2 num_reg_dependent: 0 num_mem_ops: 0 event: 5606366
[cpu0_ROB] entry:  26 instr_id: 30404576 fetched: 2 scheduled: 2 executed: 2 num_reg_dependent: 0 num_mem_ops: 0 event: 5606366
[cpu0_ROB] entry:  27 instr_id: 30404577 fetched: 2 scheduled: 2 executed: 2 num_reg_dependent: 0 num_mem_ops: 0 event: 5606367
[cpu0_ROB] entry:  28 instr_id: 30404578 fetched: 2 scheduled: 2 executed: 2 num_reg_dependent: 0 num_mem_ops: 0 event: 5606367
[cpu0_ROB] entry:  29 instr_id: 30404579 fetched: 2 scheduled: 2 executed: 2 num_reg_dependent: 0 num_mem_ops: 0 event: 5606369
[cpu0_ROB] entry:  30 instr_id: 30404580 fetched: 2 scheduled: 2 executed: 2 num_reg_dependent: 0 num_mem_ops: 0 event: 5606366
[cpu0_ROB] entry:  31 instr_id: 30404581 fetched: 2 scheduled: 2 executed: 2 num_reg_dependent: 0 num_mem_ops: 0 event: 5606367
[cpu0_ROB] entry:  32 instr_id: 30404582 fetched: 2 scheduled: 2 executed: 2 num_reg_dependent: 0 num_mem_ops: 0 event: 5606507
[cpu0_ROB] entry:  33 instr_id: 30404583 fetched: 2 scheduled: 2 executed: 2 num_reg_dependent: 0 num_mem_ops: 0 event: 5606507
[cpu0_ROB] entry:  34 instr_id: 30404584 fetched: 2 scheduled: 2 executed: 2 num_reg_dependent: 0 num_mem_ops: 0 event: 5606507
[cpu0_ROB] entry:  35 instr_id: 30404585 fetched: 2 scheduled: 2 executed: 2 num_reg_dependent: 0 num_mem_ops: 0 event: 5606507
[cpu0_ROB] entry:  36 instr_id: 30404586 fetched: 2 scheduled: 2 executed: 2 num_reg_dependent: 0 num_mem_ops: 0 event: 5606508
[cpu0_ROB] entry:  37 instr_id: 30404587 fetched: 2 scheduled: 2 executed: 2 num_reg_dependent: 0 num_mem_ops: 0 event: 5606508
[cpu0_ROB] entry:  38 instr_id: 30404588 fetched: 2 scheduled: 2 executed: 2 num_reg_dependent: 0 num_mem_ops: 0 event: 5606368
[cpu0_ROB] entry:  39 instr_id: 30404589 fetched: 2 scheduled: 2 executed: 2 num_reg_dependent: 0 num_mem_ops: 0 event: 5606370
[cpu0_ROB] entry:  40 instr_id: 30404590 fetched: 2 scheduled: 2 executed: 2 num_reg_dependent: 0 num_mem_ops: 0 event: 5606368
[cpu0_ROB] entry:  41 instr_id: 30404591 fetched: 2 scheduled: 2 executed: 2 num_reg_dependent: 0 num_mem_ops: 0 event: 5606369
[cpu0_ROB] entry:  42 instr_id: 30404592 fetched: 2 scheduled: 2 executed: 2 num_reg_dependent: 0 num_mem_ops: 0 event: 5606509
[cpu0_ROB] entry:  43 instr_id: 30404593 fetched: 2 scheduled: 2 executed: 2 num_reg_dependent: 0 num_mem_ops: 0 event: 5606369
[cpu0_ROB] entry:  44 instr_id: 30404594 fetched: 2 scheduled: 2 executed: 2 num_reg_dependent: 0 num_mem_ops: 0 event: 5606510
[cpu0_ROB] entry:  45 instr_id: 30404595 fetched: 2 scheduled: 2 executed: 2 num_reg_dependent: 0 num_mem_ops: 0 event: 5606370
[cpu0_ROB] entry:  46 instr_id: 30404596 fetched: 2 scheduled: 2 executed: 2 num_reg_dependent: 0 num_mem_ops: 0 event: 5606371
[cpu0_ROB] entry:  47 instr_id: 30404597 fetched: 2 scheduled: 2 executed: 2 num_reg_dependent: 0 num_mem_ops: 0 event: 5606370
[cpu0_ROB] entry:  48 instr_id: 30404598 fetched: 2 scheduled: 2 executed: 2 num_reg_dependent: 0 num_mem_ops: 0 event: 5606371
[cpu0_ROB] entry:  49 instr_id: 30404599 fetched: 2 scheduled: 2 executed: 2 num_reg_dependent: 0 num_mem_ops: 0 event: 5606509
[cpu0_ROB] entry:  50 instr_id: 30404600 fetched: 2 scheduled: 2 executed: 2 num_reg_dependent: 0 num_mem_ops: 0 event: 5606510
[cpu0_ROB] entry:  51 instr_id: 30404601 fetched: 2 scheduled: 2 executed: 2 num_reg_dependent: 0 num_mem_ops: 0 event: 5606371
[cpu0_ROB] entry:  52 instr_id: 30404602 fetched: 2 scheduled: 2 executed: 2 num_reg_dependent: 0 num_mem_ops: 0 event: 5606509
[cpu0_ROB] entry:  53 instr_id: 30404603 fetched: 2 scheduled: 2 executed: 2 num_reg_dependent: 0 num_mem_ops: 0 event: 5606510
[cpu0_ROB] entry:  54 instr_id: 30404604 fetched: 2 scheduled: 2 executed: 2 num_reg_dependent: 0 num_mem_ops: 0 event: 5606372
[cpu0_ROB] entry:  55 instr_id: 30404605 fetched: 2 scheduled: 2 executed: 2 num_reg_dependent: 0 num_mem_ops: 0 event: 5606509
[cpu0_ROB] entry:  56 instr_id: 30404606 fetched: 2 scheduled: 2 executed: 2 num_reg_dependent: 0 num_mem_ops: 0 event: 5606510
[cpu0_ROB] entry:  57 instr_id: 30404607 fetched: 2 scheduled: 2 executed: 2 num_reg_dependent: 0 num_mem_ops: 0 event: 5606373
[cpu0_ROB] entry:  58 instr_id: 30404608 fetched: 2 scheduled: 2 executed: 2 num_reg_dependent: 0 num_mem_ops: 0 event: 5606374
[cpu0_ROB] entry:  59 instr_id: 30404609 fetched: 2 scheduled: 2 executed: 2 num_reg_dependent: 0 num_mem_ops: 0 event: 5606375
[cpu0_ROB] entry:  60 instr_id: 30404610 fetched: 2 scheduled: 2 executed: 2 num_reg_dependent: 0 num_mem_ops: 0 event: 5606376
[cpu0_ROB] entry:  61 instr_id: 30404611 fetched: 2 scheduled: 2 executed: 2 num_reg_dependent: 0 num_mem_ops: 0 event: 5606377
[cpu0_ROB] entry:  62 instr_id: 30404612 fetched: 2 scheduled: 2 executed: 2 num_reg_dependent: 0 num_mem_ops: 0 event: 5606379
[cpu0_ROB] entry:  63 instr_id: 30404613 fetched: 2 scheduled: 2 executed: 2 num_reg_dependent: 0 num_mem_ops: 0 event: 5606381
[cpu0_ROB] entry:  64 instr_id: 30404614 fetched: 2 scheduled: 2 executed: 2 num_reg_dependent: 0 num_mem_ops: 0 event: 5606382
[cpu0_ROB] entry:  65 instr_id: 30404615 fetched: 2 scheduled: 2 executed: 2 num_reg_dependent: 0 num_mem_ops: 0 event: 5606383
[cpu0_ROB] entry:  66 instr_id: 30404616 fetched: 2 scheduled: 2 executed: 2 num_reg_dependent: 0 num_mem_ops: 0 event: 5606382
[cpu0_ROB] entry:  67 instr_id: 30404617 fetched: 2 scheduled: 2 executed: 2 num_reg_dependent: 0 num_mem_ops: 0 event: 5606382
[cpu0_ROB] entry:  68 instr_id: 30404618 fetched: 2 scheduled: 2 executed: 2 num_reg_dependent: 0 num_mem_ops: 0 event: 5606383
[cpu0_ROB] entry:  69 instr_id: 30404619 fetched: 2 scheduled: 2 executed: 2 num_reg_dependent: 0 num_mem_ops: 0 event: 5606384
[cpu0_ROB] entry:  70 instr_id: 30404620 fetched: 2 scheduled: 2 executed: 2 num_reg_dependent: 0 num_mem_ops: 0 event: 5606385
[cpu0_ROB] entry:  71 instr_id: 30404621 fetched: 2 scheduled: 2 executed: 2 num_reg_dependent: 0 num_mem_ops: 0 event: 5606382
[cpu0_ROB] entry:  72 instr_id: 30404622 fetched: 2 scheduled: 2 executed: 2 num_reg_dependent: 0 num_mem_ops: 0 event: 5606384
[cpu0_ROB] entry:  73 instr_id: 30404623 fetched: 2 scheduled: 2 executed: 2 num_reg_dependent: 0 num_mem_ops: 0 event: 5606509
[cpu0_ROB] entry:  74 instr_id: 30404624 fetched: 2 scheduled: 2 executed: 2 num_reg_dependent: 0 num_mem_ops: 0 event: 5606509
[cpu0_ROB] entry:  75 instr_id: 30404625 fetched: 2 scheduled: 2 executed: 2 num_reg_dependent: 0 num_mem_ops: 0 event: 5606509
[cpu0_ROB] entry:  76 instr_id: 30404626 fetched: 2 scheduled: 2 executed: 2 num_reg_dependent: 0 num_mem_ops: 0 event: 5606509
[cpu0_ROB] entry:  77 instr_id: 30404627 fetched: 2 scheduled: 2 executed: 2 num_reg_dependent: 0 num_mem_ops: 0 event: 5606510
[cpu0_ROB] entry:  78 instr_id: 30404628 fetched: 2 scheduled: 2 executed: 2 num_reg_dependent: 0 num_mem_ops: 0 event: 5606510
[cpu0_ROB] entry:  79 instr_id: 30404629 fetched: 2 scheduled: 2 executed: 2 num_reg_dependent: 0 num_mem_ops: 0 event: 5606381
[cpu0_ROB] entry:  80 instr_id: 30404630 fetched: 2 scheduled: 2 executed: 2 num_reg_dependent: 0 num_mem_ops: 0 event: 5606386
[cpu0_ROB] entry:  81 instr_id: 30404631 fetched: 2 scheduled: 2 executed: 2 num_reg_dependent: 0 num_mem_ops: 0 event: 5606381
[cpu0_ROB] entry:  82 instr_id: 30404632 fetched: 2 scheduled: 2 executed: 2 num_reg_dependent: 0 num_mem_ops: 0 event: 5606382
[cpu0_ROB] entry:  83 instr_id: 30404633 fetched: 2 scheduled: 2 executed: 2 num_reg_dependent: 0 num_mem_ops: 0 event: 5606511
[cpu0_ROB] entry:  84 instr_id: 30404634 fetched: 2 scheduled: 2 executed: 2 num_reg_dependent: 0 num_mem_ops: 0 event: 5606381
[cpu0_ROB] entry:  85 instr_id: 30404635 fetched: 2 scheduled: 2 executed: 2 num_reg_dependent: 0 num_mem_ops: 0 event: 5606512
[cpu0_ROB] entry:  86 instr_id: 30404636 fetched: 2 scheduled: 2 executed: 2 num_reg_dependent: 0 num_mem_ops: 0 event: 5606382
[cpu0_ROB] entry:  87 instr_id: 30404637 fetched: 2 scheduled: 2 executed: 2 num_reg_dependent: 0 num_mem_ops: 0 event: 5606387
[cpu0_ROB] entry:  88 instr_id: 30404638 fetched: 2 scheduled: 2 executed: 2 num_reg_dependent: 0 num_mem_ops: 0 event: 5606383
[cpu0_ROB] entry:  89 instr_id: 30404639 fetched: 2 scheduled: 2 executed: 2 num_reg_dependent: 0 num_mem_ops: 0 event: 5606384
[cpu0_ROB] entry:  90 instr_id: 30404640 fetched: 2 scheduled: 2 executed: 2 num_reg_dependent: 0 num_mem_ops: 0 event: 5606511
[cpu0_ROB] entry:  91 instr_id: 30404641 fetched: 2 scheduled: 2 executed: 2 num_reg_dependent: 0 num_mem_ops: 0 event: 5606512
[cpu0_ROB] entry:  92 instr_id: 30404642 fetched: 2 scheduled: 2 executed: 2 num_reg_dependent: 0 num_mem_ops: 0 event: 5606383
[cpu0_ROB] entry:  93 instr_id: 30404643 fetched: 2 scheduled: 2 executed: 2 num_reg_dependent: 0 num_mem_ops: 0 event: 5606511
[cpu0_ROB] entry:  94 instr_id: 30404644 fetched: 2 scheduled: 2 executed: 2 num_reg_dependent: 0 num_mem_ops: 0 event: 5606512
[cpu0_ROB] entry:  95 instr_id: 30404645 fetched: 2 scheduled: 2 executed: 2 num_reg_dependent: 0 num_mem_ops: 0 event: 5606384
[cpu0_ROB] entry:  96 instr_id: 30404646 fetched: 2 scheduled: 2 executed: 2 num_reg_dependent: 0 num_mem_ops: 0 event: 5606511
[cpu0_ROB] entry:  97 instr_id: 30404647 fetched: 2 scheduled: 2 executed: 2 num_reg_dependent: 0 num_mem_ops: 0 event: 5606512
[cpu0_ROB] entry:  98 instr_id: 30404648 fetched: 2 scheduled: 2 executed: 2 num_reg_dependent: 0 num_mem_ops: 0 event: 5606383
[cpu0_ROB] entry:  99 instr_id: 30404649 fetched: 2 scheduled: 2 executed: 2 num_reg_dependent: 0 num_mem_ops: 0 event: 5606383
[cpu0_ROB] entry: 100 instr_id: 30404650 fetched: 2 scheduled: 2 executed: 2 num_reg_dependent: 0 num_mem_ops: 0 event: 5606384
[cpu0_ROB] entry: 101 instr_id: 30404651 fetched: 2 scheduled: 2 executed: 2 num_reg_dependent: 0 num_mem_ops: 0 event: 5606388
[cpu0_ROB] entry: 102 instr_id: 30404652 fetched: 2 scheduled: 2 executed: 2 num_reg_dependent: 0 num_mem_ops: 0 event: 5606384
[cpu0_ROB] entry: 103 instr_id: 30404653 fetched: 2 scheduled: 2 executed: 2 num_reg_dependent: 0 num_mem_ops: 0 event: 5606385
[cpu0_ROB] entry: 104 instr_id: 30404654 fetched: 2 scheduled: 2 executed: 2 num_reg_dependent: 0 num_mem_ops: 0 event: 5606386
[cpu0_ROB] entry: 105 instr_id: 30404655 fetched: 2 scheduled: 2 executed: 2 num_reg_dependent: 0 num_mem_ops: 0 event: 5606387
[cpu0_ROB] entry: 106 instr_id: 30404656 fetched: 2 scheduled: 2 executed: 2 num_reg_dependent: 0 num_mem_ops: 0 event: 5606389
[cpu0_ROB] entry: 107 instr_id: 30404657 fetched: 2 scheduled: 2 executed: 2 num_reg_dependent: 0 num_mem_ops: 0 event: 5606387
[cpu0_ROB] entry: 108 instr_id: 30404658 fetched: 2 scheduled: 2 executed: 2 num_reg_dependent: 0 num_mem_ops: 0 event: 5606387
[cpu0_ROB] entry: 109 instr_id: 30404659 fetched: 2 scheduled: 2 executed: 2 num_reg_dependent: 0 num_mem_ops: 0 event: 5606388
[cpu0_ROB] entry: 110 instr_id: 30404660 fetched: 2 scheduled: 2 executed: 2 num_reg_dependent: 0 num_mem_ops: 0 event: 5606388
[cpu0_ROB] entry: 111 instr_id: 30404661 fetched: 2 scheduled: 2 executed: 2 num_reg_dependent: 0 num_mem_ops: 0 event: 5606390
[cpu0_ROB] entry: 112 instr_id: 30404662 fetched: 2 scheduled: 2 executed: 2 num_reg_dependent: 0 num_mem_ops: 0 event: 5606387
[cpu0_ROB] entry: 113 instr_id: 30404663 fetched: 2 scheduled: 2 executed: 2 num_reg_dependent: 0 num_mem_ops: 0 event: 5606388
[cpu0_ROB] entry: 114 instr_id: 30404664 fetched: 2 scheduled: 2 executed: 2 num_reg_dependent: 0 num_mem_ops: 0 event: 5606514
[cpu0_ROB] entry: 115 instr_id: 30404665 fetched: 2 scheduled: 2 executed: 2 num_reg_dependent: 0 num_mem_ops: 0 event: 5606514
[cpu0_ROB] entry: 116 instr_id: 30404666 fetched: 2 scheduled: 2 executed: 2 num_reg_dependent: 0 num_mem_ops: 0 event: 5606514
[cpu0_ROB] entry: 117 instr_id: 30404667 fetched: 2 scheduled: 2 executed: 2 num_reg_dependent: 0 num_mem_ops: 0 event: 5606514
[cpu0_ROB] entry: 118 instr_id: 30404668 fetched: 2 scheduled: 2 executed: 2 num_reg_dependent: 0 num_mem_ops: 0 event: 5606515
[cpu0_ROB] entry: 119 instr_id: 30404669 fetched: 2 scheduled: 2 executed: 2 num_reg_dependent: 0 num_mem_ops: 0 event: 5606515
[cpu0_ROB] entry: 120 instr_id: 30404670 fetched: 2 scheduled: 2 executed: 2 num_reg_dependent: 0 num_mem_ops: 0 event: 5606386
[cpu0_ROB] entry: 121 instr_id: 30404671 fetched: 2 scheduled: 2 executed: 2 num_reg_dependent: 0 num_mem_ops: 0 event: 5606391
[cpu0_ROB] entry: 122 instr_id: 30404672 fetched: 2 scheduled: 2 executed: 2 num_reg_dependent: 0 num_mem_ops: 0 event: 5606386
[cpu0_ROB] entry: 123 instr_id: 30404673 fetched: 2 scheduled: 2 executed: 2 num_reg_dependent: 0 num_mem_ops: 0 event: 5606387
[cpu0_ROB] entry: 124 instr_id: 30404674 fetched: 2 scheduled: 2 executed: 2 num_reg_dependent: 0 num_mem_ops: 0 event: 5606516
[cpu0_ROB] entry: 125 instr_id: 30404675 fetched: 2 scheduled: 2 executed: 2 num_reg_dependent: 0 num_mem_ops: 0 event: 5606386
[...]
[cpu0_ROB] entry: 446 instr_id: 30404996 fetched: 2 scheduled: 2 executed: 2 num_reg_dependent: 0 num_mem_ops: 0 event: 5606573
[cpu0_ROB] entry: 447 instr_id: 30404997 fetched: 2 scheduled: 2 executed: 2 num_reg_dependent: 0 num_mem_ops: 0 event: 5606573
[cpu0_ROB] entry: 448 instr_id: 30404998 fetched: 2 scheduled: 2 executed: 2 num_reg_dependent: 0 num_mem_ops: 0 event: 5606520
[cpu0_ROB] entry: 449 instr_id: 30404999 fetched: 2 scheduled: 2 executed: 2 num_reg_dependent: 0 num_mem_ops: 0 event: 5606524
[cpu0_ROB] entry: 450 instr_id: 30405000 fetched: 2 scheduled: 2 executed: 2 num_reg_dependent: 0 num_mem_ops: 0 event: 5606520
[cpu0_ROB] entry: 451 instr_id: 30405001 fetched: 2 scheduled: 2 executed: 2 num_reg_dependent: 0 num_mem_ops: 0 event: 5606521
[cpu0_ROB] entry: 452 instr_id: 30405002 fetched: 2 scheduled: 2 executed: 2 num_reg_dependent: 0 num_mem_ops: 0 event: 5606574
[cpu0_ROB] entry: 453 instr_id: 30405003 fetched: 2 scheduled: 2 executed: 2 num_reg_dependent: 0 num_mem_ops: 0 event: 5606520
[cpu0_ROB] entry: 454 instr_id: 30405004 fetched: 2 scheduled: 2 executed: 2 num_reg_dependent: 0 num_mem_ops: 0 event: 5606575
[cpu0_ROB] entry: 455 instr_id: 30405005 fetched: 2 scheduled: 2 executed: 2 num_reg_dependent: 0 num_mem_ops: 0 event: 5606521
[cpu0_ROB] entry: 456 instr_id: 30405006 fetched: 2 scheduled: 2 executed: 2 num_reg_dependent: 0 num_mem_ops: 0 event: 5606525
[cpu0_ROB] entry: 457 instr_id: 30405007 fetched: 2 scheduled: 2 executed: 2 num_reg_dependent: 0 num_mem_ops: 0 event: 5606521
[cpu0_ROB] entry: 458 instr_id: 30405008 fetched: 2 scheduled: 2 executed: 2 num_reg_dependent: 0 num_mem_ops: 0 event: 5606522
[cpu0_ROB] entry: 459 instr_id: 30405009 fetched: 2 scheduled: 2 executed: 2 num_reg_dependent: 0 num_mem_ops: 0 event: 5606574
[cpu0_ROB] entry: 460 instr_id: 30405010 fetched: 2 scheduled: 2 executed: 2 num_reg_dependent: 0 num_mem_ops: 0 event: 5606575
[cpu0_ROB] entry: 461 instr_id: 30405011 fetched: 2 scheduled: 2 executed: 2 num_reg_dependent: 0 num_mem_ops: 0 event: 5606522
[cpu0_ROB] entry: 462 instr_id: 30405012 fetched: 2 scheduled: 2 executed: 2 num_reg_dependent: 0 num_mem_ops: 0 event: 5606574
[cpu0_ROB] entry: 463 instr_id: 30405013 fetched: 2 scheduled: 2 executed: 2 num_reg_dependent: 0 num_mem_ops: 0 event: 5606575
[cpu0_ROB] entry: 464 instr_id: 30405014 fetched: 2 scheduled: 2 executed: 2 num_reg_dependent: 0 num_mem_ops: 0 event: 5606523
[cpu0_ROB] entry: 465 instr_id: 30405015 fetched: 2 scheduled: 2 executed: 2 num_reg_dependent: 0 num_mem_ops: 0 event: 5606574
[cpu0_ROB] entry: 466 instr_id: 30405016 fetched: 2 scheduled: 2 executed: 2 num_reg_dependent: 0 num_mem_ops: 0 event: 5606575
[cpu0_ROB] entry: 467 instr_id: 30405017 fetched: 2 scheduled: 2 executed: 2 num_reg_dependent: 0 num_mem_ops: 0 event: 5606523
[cpu0_ROB] entry: 468 instr_id: 30405018 fetched: 2 scheduled: 2 executed: 2 num_reg_dependent: 0 num_mem_ops: 0 event: 5606523
[cpu0_ROB] entry: 469 instr_id: 30405019 fetched: 2 scheduled: 2 executed: 2 num_reg_dependent: 0 num_mem_ops: 0 event: 5606524
[cpu0_ROB] entry: 470 instr_id: 30405020 fetched: 2 scheduled: 2 executed: 2 num_reg_dependent: 0 num_mem_ops: 0 event: 5606526
[cpu0_ROB] entry: 471 instr_id: 30405021 fetched: 2 scheduled: 2 executed: 2 num_reg_dependent: 0 num_mem_ops: 0 event: 5606524
[cpu0_ROB] entry: 472 instr_id: 30405022 fetched: 2 scheduled: 2 executed: 2 num_reg_dependent: 0 num_mem_ops: 0 event: 5606525
[cpu0_ROB] entry: 473 instr_id: 30405023 fetched: 2 scheduled: 2 executed: 2 num_reg_dependent: 0 num_mem_ops: 0 event: 5606526
[cpu0_ROB] entry: 474 instr_id: 30405024 fetched: 2 scheduled: 2 executed: 2 num_reg_dependent: 0 num_mem_ops: 0 event: 5606527
[cpu0_ROB] entry: 475 instr_id: 30405025 fetched: 2 scheduled: 2 executed: 2 num_reg_dependent: 0 num_mem_ops: 0 event: 5606528
[cpu0_ROB] entry: 476 instr_id: 30405026 fetched: 2 scheduled: 2 executed: 2 num_reg_dependent: 0 num_mem_ops: 0 event: 5606527
[cpu0_ROB] entry: 477 instr_id: 30405027 fetched: 2 scheduled: 2 executed: 2 num_reg_dependent: 0 num_mem_ops: 0 event: 5606527
[cpu0_ROB] entry: 478 instr_id: 30405028 fetched: 2 scheduled: 2 executed: 2 num_reg_dependent: 0 num_mem_ops: 0 event: 5606528
[cpu0_ROB] entry: 479 instr_id: 30405029 fetched: 2 scheduled: 2 executed: 2 num_reg_dependent: 0 num_mem_ops: 0 event: 5606528
[cpu0_ROB] entry: 480 instr_id: 30405030 fetched: 2 scheduled: 2 executed: 2 num_reg_dependent: 0 num_mem_ops: 0 event: 5606529
[cpu0_ROB] entry: 481 instr_id: 30405031 fetched: 2 scheduled: 2 executed: 2 num_reg_dependent: 0 num_mem_ops: 0 event: 5606527
[cpu0_ROB] entry: 482 instr_id: 30405032 fetched: 2 scheduled: 2 executed: 2 num_reg_dependent: 0 num_mem_ops: 0 event: 5606528
[cpu0_ROB] entry: 483 instr_id: 30405033 fetched: 2 scheduled: 2 executed: 2 num_reg_dependent: 0 num_mem_ops: 0 event: 5606571
[cpu0_ROB] entry: 484 instr_id: 30405034 fetched: 2 scheduled: 2 executed: 2 num_reg_dependent: 0 num_mem_ops: 0 event: 5606571
[cpu0_ROB] entry: 485 instr_id: 30405035 fetched: 2 scheduled: 2 executed: 2 num_reg_dependent: 0 num_mem_ops: 0 event: 5606571
[cpu0_ROB] entry: 486 instr_id: 30405036 fetched: 2 scheduled: 2 executed: 2 num_reg_dependent: 0 num_mem_ops: 0 event: 5606571
[cpu0_ROB] entry: 487 instr_id: 30405037 fetched: 2 scheduled: 2 executed: 2 num_reg_dependent: 0 num_mem_ops: 0 event: 5606572
[cpu0_ROB] entry: 488 instr_id: 30405038 fetched: 2 scheduled: 2 executed: 2 num_reg_dependent: 0 num_mem_ops: 0 event: 5606572
[cpu0_ROB] entry: 489 instr_id: 30405039 fetched: 2 scheduled: 2 executed: 2 num_reg_dependent: 0 num_mem_ops: 0 event: 5606526
[cpu0_ROB] entry: 490 instr_id: 30405040 fetched: 2 scheduled: 2 executed: 2 num_reg_dependent: 0 num_mem_ops: 0 event: 5606530
[cpu0_ROB] entry: 491 instr_id: 30405041 fetched: 2 scheduled: 2 executed: 2 num_reg_dependent: 0 num_mem_ops: 0 event: 5606526
[cpu0_ROB] entry: 492 instr_id: 30405042 fetched: 2 scheduled: 2 executed: 2 num_reg_dependent: 0 num_mem_ops: 0 event: 5606527
[cpu0_ROB] entry: 493 instr_id: 30405043 fetched: 2 scheduled: 2 executed: 2 num_reg_dependent: 0 num_mem_ops: 0 event: 5606579
[cpu0_ROB] entry: 494 instr_id: 30405044 fetched: 2 scheduled: 2 executed: 2 num_reg_dependent: 0 num_mem_ops: 0 event: 5606528
[cpu0_ROB] entry: 495 instr_id: 30405045 fetched: 2 scheduled: 2 executed: 2 num_reg_dependent: 0 num_mem_ops: 0 event: 5606580
[cpu0_ROB] entry: 496 instr_id: 30405046 fetched: 2 scheduled: 2 executed: 2 num_reg_dependent: 0 num_mem_ops: 0 event: 5606529
[cpu0_ROB] entry: 497 instr_id: 30405047 fetched: 2 scheduled: 2 executed: 2 num_reg_dependent: 0 num_mem_ops: 0 event: 5606531
[cpu0_ROB] entry: 498 instr_id: 30405048 fetched: 2 scheduled: 2 executed: 2 num_reg_dependent: 0 num_mem_ops: 0 event: 5606529
[cpu0_ROB] entry: 499 instr_id: 30405049 fetched: 2 scheduled: 2 executed: 2 num_reg_dependent: 0 num_mem_ops: 0 event: 5606530
[cpu0_ROB] entry: 500 instr_id: 30405050 fetched: 2 scheduled: 2 executed: 2 num_reg_dependent: 0 num_mem_ops: 0 event: 5606579
[cpu0_ROB] entry: 501 instr_id: 30405051 fetched: 2 scheduled: 2 executed: 2 num_reg_dependent: 0 num_mem_ops: 0 event: 5606580
[cpu0_ROB] entry: 502 instr_id: 30405052 fetched: 2 scheduled: 2 executed: 2 num_reg_dependent: 0 num_mem_ops: 0 event: 5606529
[cpu0_ROB] entry: 503 instr_id: 30405053 fetched: 2 scheduled: 2 executed: 2 num_reg_dependent: 0 num_mem_ops: 0 event: 5606579
[cpu0_ROB] entry: 504 instr_id: 30405054 fetched: 2 scheduled: 2 executed: 2 num_reg_dependent: 0 num_mem_ops: 0 event: 5606580
[cpu0_ROB] entry: 505 instr_id: 30405055 fetched: 2 scheduled: 2 executed: 2 num_reg_dependent: 0 num_mem_ops: 0 event: 5606530
[cpu0_ROB] entry: 506 instr_id: 30405056 fetched: 2 scheduled: 2 executed: 2 num_reg_dependent: 0 num_mem_ops: 0 event: 5606579
[cpu0_ROB] entry: 507 instr_id: 30405057 fetched: 2 scheduled: 2 executed: 2 num_reg_dependent: 0 num_mem_ops: 0 event: 5606580
[cpu0_ROB] entry: 508 instr_id: 30405058 fetched: 2 scheduled: 2 executed: 2 num_reg_dependent: 0 num_mem_ops: 0 event: 5606531
[cpu0_ROB] entry: 509 instr_id: 30405059 fetched: 2 scheduled: 2 executed: 2 num_reg_dependent: 0 num_mem_ops: 0 event: 5606531
[cpu0_ROB] entry: 510 instr_id: 30405060 fetched: 2 scheduled: 2 executed: 2 num_reg_dependent: 0 num_mem_ops: 0 event: 5606532
[cpu0_ROB] entry: 511 instr_id: 30405061 fetched: 2 scheduled: 2 executed: 2 num_reg_dependent: 0 num_mem_ops: 0 event: 5606533

[cpu0_LQ] entry:   0 empty
[cpu0_LQ] entry:   1 empty
[cpu0_LQ] entry:   2 empty
[cpu0_LQ] entry:   3 empty
[cpu0_LQ] entry:   4 empty
[cpu0_LQ] entry:   5 empty
[cpu0_LQ] entry:   6 empty
[cpu0_LQ] entry:   7 empty
[cpu0_LQ] entry:   8 empty
[cpu0_LQ] entry:   9 instr_id: 30404557 address: 0xc256d548 fetch_issued: true event_cycle: 5606361 waits on -
[cpu0_LQ] entry:  10 empty
[cpu0_LQ] entry:  11 instr_id: 30404560 address: 0xc256d540 fetch_issued: true event_cycle: 5606361 waits on -
[cpu0_LQ] entry:  12 empty
[cpu0_LQ] entry:  13 empty
[cpu0_LQ] entry:  14 empty
[cpu0_LQ] entry:  15 empty
[cpu0_LQ] entry:  16 empty
[cpu0_LQ] entry:  17 empty
[cpu0_LQ] entry:  18 empty
[cpu0_LQ] entry:  19 instr_id: 30404550 address: 0xc256d540 fetch_issued: true event_cycle: 5606360 waits on -
[cpu0_LQ] entry:  20 instr_id: 30404563 address: 0xc256d548 fetch_issued: true event_cycle: 5606362 waits on -
[cpu0_LQ] entry:  21 empty
[cpu0_LQ] entry:  22 empty
[cpu0_LQ] entry:  23 empty
[cpu0_LQ] entry:  24 empty
[cpu0_LQ] entry:  25 empty
[cpu0_LQ] entry:  26 empty
[cpu0_LQ] entry:  27 empty
[cpu0_LQ] entry:  28 empty
[cpu0_LQ] entry:  29 empty
[cpu0_LQ] entry:  30 empty
[cpu0_LQ] entry:  31 empty
[cpu0_LQ] entry:  32 empty
[cpu0_LQ] entry:  33 empty
[cpu0_LQ] entry:  34 empty
[cpu0_LQ] entry:  35 empty
[cpu0_LQ] entry:  36 empty
[cpu0_LQ] entry:  37 empty
[cpu0_LQ] entry:  38 empty
[cpu0_LQ] entry:  39 empty
[cpu0_LQ] entry:  40 empty
[cpu0_LQ] entry:  41 empty
[cpu0_LQ] entry:  42 empty
[cpu0_LQ] entry:  43 empty
[cpu0_LQ] entry:  44 empty
[cpu0_LQ] entry:  45 empty
[cpu0_LQ] entry:  46 empty
[cpu0_LQ] entry:  47 empty
[cpu0_LQ] entry:  48 empty
[cpu0_LQ] entry:  49 empty
[cpu0_LQ] entry:  50 empty
[cpu0_LQ] entry:  51 empty
[cpu0_LQ] entry:  52 empty
[cpu0_LQ] entry:  53 empty
[cpu0_LQ] entry:  54 empty
[cpu0_LQ] entry:  55 empty
[cpu0_LQ] entry:  56 empty
[cpu0_LQ] entry:  57 empty
[cpu0_LQ] entry:  58 empty
[cpu0_LQ] entry:  59 empty
[cpu0_LQ] entry:  60 empty
[cpu0_LQ] entry:  61 empty
[cpu0_LQ] entry:  62 empty
[cpu0_LQ] entry:  63 empty
[cpu0_LQ] entry:  64 empty
[cpu0_LQ] entry:  65 empty
[cpu0_LQ] entry:  66 empty
[cpu0_LQ] entry:  67 empty
[cpu0_LQ] entry:  68 empty
[cpu0_LQ] entry:  69 empty
[cpu0_LQ] entry:  70 empty
[cpu0_LQ] entry:  71 empty
[cpu0_LQ] entry:  72 empty
[cpu0_LQ] entry:  73 empty
[cpu0_LQ] entry:  74 empty
[cpu0_LQ] entry:  75 empty
[cpu0_LQ] entry:  76 empty
[cpu0_LQ] entry:  77 empty
[cpu0_LQ] entry:  78 empty
[cpu0_LQ] entry:  79 empty
[cpu0_LQ] entry:  80 empty
[cpu0_LQ] entry:  81 empty
[cpu0_LQ] entry:  82 empty
[cpu0_LQ] entry:  83 empty
[cpu0_LQ] entry:  84 empty
[cpu0_LQ] entry:  85 empty
[cpu0_LQ] entry:  86 empty
[cpu0_LQ] entry:  87 empty
[cpu0_LQ] entry:  88 empty
[cpu0_LQ] entry:  89 empty
[cpu0_LQ] entry:  90 empty
[cpu0_LQ] entry:  91 empty
[cpu0_LQ] entry:  92 empty
[cpu0_LQ] entry:  93 empty
[cpu0_LQ] entry:  94 empty
[cpu0_LQ] entry:  95 empty
[cpu0_LQ] entry:  96 empty
[cpu0_LQ] entry:  97 empty
[cpu0_LQ] entry:  98 empty
[cpu0_LQ] entry:  99 empty
[cpu0_LQ] entry: 100 empty
[cpu0_LQ] entry: 101 empty
[cpu0_LQ] entry: 102 empty
[cpu0_LQ] entry: 103 empty
[cpu0_LQ] entry: 104 empty
[cpu0_LQ] entry: 105 empty
[cpu0_LQ] entry: 106 empty
[cpu0_LQ] entry: 107 empty
[cpu0_LQ] entry: 108 empty
[cpu0_LQ] entry: 109 empty
[cpu0_LQ] entry: 110 empty
[cpu0_LQ] entry: 111 empty
[cpu0_LQ] entry: 112 empty
[cpu0_LQ] entry: 113 empty
[cpu0_LQ] entry: 114 empty
[cpu0_LQ] entry: 115 empty
[cpu0_LQ] entry: 116 empty
[cpu0_LQ] entry: 117 empty
[cpu0_LQ] entry: 118 empty
[cpu0_LQ] entry: 119 empty
[cpu0_LQ] entry: 120 empty
[cpu0_LQ] entry: 121 empty
[cpu0_LQ] entry: 122 empty
[cpu0_LQ] entry: 123 empty
[cpu0_LQ] entry: 124 empty
[cpu0_LQ] entry: 125 empty
[cpu0_LQ] entry: 126 empty
[cpu0_LQ] entry: 127 empty
[cpu0_LQ] entry: 128 empty
[cpu0_LQ] entry: 129 empty
[cpu0_LQ] entry: 130 empty
[cpu0_LQ] entry: 131 empty
[cpu0_LQ] entry: 132 empty
[cpu0_LQ] entry: 133 empty
[cpu0_LQ] entry: 134 empty
[cpu0_LQ] entry: 135 empty
[cpu0_LQ] entry: 136 empty
[cpu0_LQ] entry: 137 empty
[cpu0_LQ] entry: 138 empty
[cpu0_LQ] entry: 139 empty
[cpu0_LQ] entry: 140 empty
[cpu0_LQ] entry: 141 empty
[cpu0_LQ] entry: 142 empty
[cpu0_LQ] entry: 143 empty
[cpu0_LQ] entry: 144 empty
[cpu0_LQ] entry: 145 empty
[cpu0_LQ] entry: 146 empty
[cpu0_LQ] entry: 147 empty
[cpu0_LQ] entry: 148 empty
[cpu0_LQ] entry: 149 empty
[cpu0_LQ] entry: 150 empty
[cpu0_LQ] entry: 151 empty
[cpu0_LQ] entry: 152 empty
[cpu0_LQ] entry: 153 empty
[cpu0_LQ] entry: 154 empty
[cpu0_LQ] entry: 155 empty
[cpu0_LQ] entry: 156 empty
[cpu0_LQ] entry: 157 empty
[cpu0_LQ] entry: 158 empty
[cpu0_LQ] entry: 159 empty
[cpu0_LQ] entry: 160 empty
[cpu0_LQ] entry: 161 empty
[cpu0_LQ] entry: 162 empty
[cpu0_LQ] entry: 163 empty
[cpu0_LQ] entry: 164 empty
[cpu0_LQ] entry: 165 empty
[cpu0_LQ] entry: 166 empty
[cpu0_LQ] entry: 167 empty
[cpu0_LQ] entry: 168 empty
[cpu0_LQ] entry: 169 empty
[cpu0_LQ] entry: 170 empty
[cpu0_LQ] entry: 171 empty
[cpu0_LQ] entry: 172 empty
[cpu0_LQ] entry: 173 empty
[cpu0_LQ] entry: 174 empty
[cpu0_LQ] entry: 175 empty
[cpu0_LQ] entry: 176 empty
[cpu0_LQ] entry: 177 empty
[cpu0_LQ] entry: 178 empty
[cpu0_LQ] entry: 179 empty
[cpu0_LQ] entry: 180 empty
[cpu0_LQ] entry: 181 empty
[cpu0_LQ] entry: 182 empty
[cpu0_LQ] entry: 183 empty
[cpu0_LQ] entry: 184 empty
[cpu0_LQ] entry: 185 empty
[cpu0_LQ] entry: 186 empty
[cpu0_LQ] entry: 187 empty
[cpu0_LQ] entry: 188 empty
[cpu0_LQ] entry: 189 empty
[cpu0_LQ] entry: 190 empty
[cpu0_LQ] entry: 191 empty

[cpu0_SQ] entry:   0 instr_id: 30404553 address: 0xc25ed540 fetch_issued: true event_cycle: 5606345 LQ waiting: []
[cpu0_SQ] entry:   1 instr_id: 30404559 address: 0xc25ed548 fetch_issued: true event_cycle: 5606346 LQ waiting: []
[cpu0_SQ] entry:   2 instr_id: 30404562 address: 0xc256d540 fetch_issued: true event_cycle: 5606346 LQ waiting: []
[cpu0_SQ] entry:   3 instr_id: 30404565 address: 0xc256d548 fetch_issued: true event_cycle: 5606347 LQ waiting: []
[cpu0_SQ] entry:   4 instr_id: 30404594 address: 0xc26ed540 fetch_issued: true event_cycle: 5606510 LQ waiting: []
[cpu0_SQ] entry:   5 instr_id: 30404600 address: 0xc26ed548 fetch_issued: true event_cycle: 5606510 LQ waiting: []
[cpu0_SQ] entry:   6 instr_id: 30404603 address: 0xc266d540 fetch_issued: true event_cycle: 5606510 LQ waiting: []
[cpu0_SQ] entry:   7 instr_id: 30404606 address: 0xc266d548 fetch_issued: true event_cycle: 5606510 LQ waiting: []
[cpu0_SQ] entry:   8 instr_id: 30404635 address: 0xc27ed540 fetch_issued: true event_cycle: 5606512 LQ waiting: []
[cpu0_SQ] entry:   9 instr_id: 30404641 address: 0xc27ed548 fetch_issued: true event_cycle: 5606512 LQ waiting: []
[cpu0_SQ] entry:  10 instr_id: 30404644 address: 0xc276d540 fetch_issued: true event_cycle: 5606512 LQ waiting: []
[cpu0_SQ] entry:  11 instr_id: 30404647 address: 0xc276d548 fetch_issued: true event_cycle: 5606512 LQ waiting: []
[cpu0_SQ] entry:  12 instr_id: 30404676 address: 0xc28ed540 fetch_issued: true event_cycle: 5606517 LQ waiting: []
[cpu0_SQ] entry:  13 instr_id: 30404682 address: 0xc28ed548 fetch_issued: true event_cycle: 5606517 LQ waiting: []
[cpu0_SQ] entry:  14 instr_id: 30404685 address: 0xc286d540 fetch_issued: true event_cycle: 5606517 LQ waiting: []
[cpu0_SQ] entry:  15 instr_id: 30404688 address: 0xc286d548 fetch_issued: true event_cycle: 5606517 LQ waiting: []
[cpu0_SQ] entry:  16 instr_id: 30404717 address: 0xc29ed540 fetch_issued: true event_cycle: 5606522 LQ waiting: []
[cpu0_SQ] entry:  17 instr_id: 30404723 address: 0xc29ed548 fetch_issued: true event_cycle: 5606522 LQ waiting: []
[cpu0_SQ] entry:  18 instr_id: 30404726 address: 0xc296d540 fetch_issued: true event_cycle: 5606522 LQ waiting: []
[cpu0_SQ] entry:  19 instr_id: 30404729 address: 0xc296d548 fetch_issued: true event_cycle: 5606522 LQ waiting: []
[cpu0_SQ] entry:  20 instr_id: 30404758 address: 0xc2aed540 fetch_issued: true event_cycle: 5606538 LQ waiting: []
[cpu0_SQ] entry:  21 instr_id: 30404764 address: 0xc2aed548 fetch_issued: true event_cycle: 5606538 LQ waiting: []
[cpu0_SQ] entry:  22 instr_id: 30404767 address: 0xc2a6d540 fetch_issued: true event_cycle: 5606538 LQ waiting: []
[cpu0_SQ] entry:  23 instr_id: 30404770 address: 0xc2a6d548 fetch_issued: true event_cycle: 5606538 LQ waiting: []
[cpu0_SQ] entry:  24 instr_id: 30404799 address: 0xc2bed540 fetch_issued: true event_cycle: 5606540 LQ waiting: []
[cpu0_SQ] entry:  25 instr_id: 30404805 address: 0xc2bed548 fetch_issued: true event_cycle: 5606540 LQ waiting: []
[cpu0_SQ] entry:  26 instr_id: 30404808 address: 0xc2b6d540 fetch_issued: true event_cycle: 5606540 LQ waiting: []
[cpu0_SQ] entry:  27 instr_id: 30404811 address: 0xc2b6d548 fetch_issued: true event_cycle: 5606540 LQ waiting: []
[cpu0_SQ] entry:  28 instr_id: 30404840 address: 0xc2ced540 fetch_issued: true event_cycle: 5606546 LQ waiting: []
[cpu0_SQ] entry:  29 instr_id: 30404846 address: 0xc2ced548 fetch_issued: true event_cycle: 5606546 LQ waiting: []
[cpu0_SQ] entry:  30 instr_id: 30404849 address: 0xc2c6d540 fetch_issued: true event_cycle: 5606546 LQ waiting: []
[cpu0_SQ] entry:  31 instr_id: 30404852 address: 0xc2c6d548 fetch_issued: true event_cycle: 5606546 LQ waiting: []
[cpu0_SQ] entry:  32 instr_id: 30404881 address: 0xc2ded540 fetch_issued: true event_cycle: 5606551 LQ waiting: []
[cpu0_SQ] entry:  33 instr_id: 30404887 address: 0xc2ded548 fetch_issued: true event_cycle: 5606551 LQ waiting: []
[cpu0_SQ] entry:  34 instr_id: 30404890 address: 0xc2d6d540 fetch_issued: true event_cycle: 5606551 LQ waiting: []
[cpu0_SQ] entry:  35 instr_id: 30404893 address: 0xc2d6d548 fetch_issued: true event_cycle: 5606551 LQ waiting: []
[cpu0_SQ] entry:  36 instr_id: 30404922 address: 0xc2eed540 fetch_issued: true event_cycle: 5606567 LQ waiting: []
[cpu0_SQ] entry:  37 instr_id: 30404928 address: 0xc2eed548 fetch_issued: true event_cycle: 5606567 LQ waiting: []
[cpu0_SQ] entry:  38 instr_id: 30404931 address: 0xc2e6d540 fetch_issued: true event_cycle: 5606567 LQ waiting: []
[cpu0_SQ] entry:  39 instr_id: 30404934 address: 0xc2e6d548 fetch_issued: true event_cycle: 5606567 LQ waiting: []
[cpu0_SQ] entry:  40 instr_id: 30404963 address: 0xc2fed540 fetch_issued: true event_cycle: 5606569 LQ waiting: []
[cpu0_SQ] entry:  41 instr_id: 30404969 address: 0xc2fed548 fetch_issued: true event_cycle: 5606569 LQ waiting: []
[cpu0_SQ] entry:  42 instr_id: 30404972 address: 0xc2f6d540 fetch_issued: true event_cycle: 5606569 LQ waiting: []
[cpu0_SQ] entry:  43 instr_id: 30404975 address: 0xc2f6d548 fetch_issued: true event_cycle: 5606569 LQ waiting: []
[cpu0_SQ] entry:  44 instr_id: 30405004 address: 0xc30ed540 fetch_issued: true event_cycle: 5606575 LQ waiting: []
[cpu0_SQ] entry:  45 instr_id: 30405010 address: 0xc30ed548 fetch_issued: true event_cycle: 5606575 LQ waiting: []
[cpu0_SQ] entry:  46 instr_id: 30405013 address: 0xc306d540 fetch_issued: true event_cycle: 5606575 LQ waiting: []
[cpu0_SQ] entry:  47 instr_id: 30405016 address: 0xc306d548 fetch_issued: true event_cycle: 5606575 LQ waiting: []
[cpu0_SQ] entry:  48 instr_id: 30405045 address: 0xc31ed540 fetch_issued: true event_cycle: 5606580 LQ waiting: []
[cpu0_SQ] entry:  49 instr_id: 30405051 address: 0xc31ed548 fetch_issued: true event_cycle: 5606580 LQ waiting: []
[cpu0_SQ] entry:  50 instr_id: 30405054 address: 0xc316d540 fetch_issued: true event_cycle: 5606580 LQ waiting: []
[cpu0_SQ] entry:  51 instr_id: 30405057 address: 0xc316d54