WARNING: physical memory size is smaller than virtual memory size.

*** ChampSim Multicore Out-of-Order Simulator ***
Warmup Instructions: 30000000
Simulation Instructions: 100000000
Number of CPUs: 1
Page size: 4096

BTB:
Basic BTB sets: 1024 ways: 8
Indirect:
history lengths: 0 0 10 16 27 44 60 96 109 219 449 487 714 1313 2146 3881 
ITTAGE tables: 64768 bytes;Region table: 240 bytes;IUM: 384 bytes;Total Storage= 65392 bytes;
RAS:
RAS size: 64
[LLC] INSTR Demand IPV: 1 2 2 1 4 Prefetch IPV: 1 2 1 1 4
[LLC] DATA  Demand IPV: 1 1 1 2 4 Prefetch IPV: 1 1 2 2 4
Berti Prefetcher
CPU 0 Entangling prefetcher
Off-chip DRAM Size: 8 GiB Channels: 2 Width: 64-bit Data Race: 6400 MT/s
[DUEL] Epoch ended. INSTR misses = 27, DATA misses = 19. Winner = DATA
[DUEL] Epoch ended. INSTR misses = 114, DATA misses = 113. Winner = DATA
[DUEL] Epoch ended. INSTR misses = 45, DATA misses = 32. Winner = DATA
[DUEL] Epoch ended. INSTR misses = 43, DATA misses = 20. Winner = DATA
[DUEL] Epoch ended. INSTR misses = 6, DATA misses = 4. Winner = DATA
[DUEL] Epoch ended. INSTR misses = 25, DATA misses = 10. Winner = DATA
[DUEL] Epoch ended. INSTR misses = 33, DATA misses = 26. Winner = DATA
[DUEL] Epoch ended. INSTR misses = 17, DATA misses = 17. Winner = INSTR
[DUEL] Epoch ended. INSTR misses = 27, DATA misses = 16. Winner = DATA
[DUEL] Epoch ended. INSTR misses = 61, DATA misses = 64. Winner = INSTR
[DUEL] Epoch ended. INSTR misses = 27, DATA misses = 23. Winner = DATA
[DUEL] Epoch ended. INSTR misses = 1, DATA misses = 2. Winner = INSTR
[DUEL] Epoch ended. INSTR misses = 34, DATA misses = 34. Winner = INSTR
[DUEL] Epoch ended. INSTR misses = 100, DATA misses = 83. Winner = DATA
[DUEL] Epoch ended. INSTR misses = 20, DATA misses = 34. Winner = INSTR
[DUEL] Epoch ended. INSTR misses = 4, DATA misses = 1. Winner = DATA
[DUEL] Epoch ended. INSTR misses = 18, DATA misses = 16. Winner = DATA
[DUEL] Epoch ended. INSTR misses = 2, DATA misses = 3. Winner = INSTR
[DUEL] Epoch ended. INSTR misses = 11, DATA misses = 9. Winner = DATA
[DUEL] Epoch ended. INSTR misses = 0, DATA misses = 0. Winner = INSTR
[DUEL] Epoch ended. INSTR misses = 7, DATA misses = 6. Winner = DATA
[DUEL] Epoch ended. INSTR misses = 21, DATA misses = 19. Winner = DATA
[DUEL] Epoch ended. INSTR misses = 103, DATA misses = 94. Winner = DATA
[DUEL] Epoch ended. INSTR misses = 16, DATA misses = 16. Winner = INSTR
[DUEL] Epoch ended. INSTR misses = 30, DATA misses = 27. Winner = DATA
[DUEL] Epoch ended. INSTR misses = 7, DATA misses = 11. Winner = INSTR
[DUEL] Epoch ended. INSTR misses = 17, DATA misses = 17. Winner = INSTR
[DUEL] Epoch ended. INSTR misses = 5, DATA misses = 4. Winner = DATA
[DUEL] Epoch ended. INSTR misses = 14, DATA misses = 3. Winner = DATA
[DUEL] Epoch ended. INSTR misses = 12, DATA misses = 5. Winner = DATA
[DUEL] Epoch ended. INSTR misses = 5, DATA misses = 8. Winner = INSTR
[DUEL] Epoch ended. INSTR misses = 26, DATA misses = 18. Winner = DATA
[DUEL] Epoch ended. INSTR misses = 3, DATA misses = 1. Winner = DATA
[DUEL] Epoch ended. INSTR misses = 29, DATA misses = 18. Winner = DATA
[DUEL] Epoch ended. INSTR misses = 27, DATA misses = 23. Winner = DATA
[DUEL] Epoch ended. INSTR misses = 2, DATA misses = 0. Winner = DATA
[DUEL] Epoch ended. INSTR misses = 99, DATA misses = 82. Winner = DATA
[DUEL] Epoch ended. INSTR misses = 100, DATA misses = 106. Winner = INSTR
[DUEL] Epoch ended. INSTR misses = 116, DATA misses = 138. Winner = INSTR
Heartbeat CPU 0 instructions: 10000008 cycles: 2013730 heartbeat IPC: 4.966 cumulative IPC: 4.966 (Simulation time: 00 hr 00 min 28 sec)
[DUEL] Epoch ended. INSTR misses = 91, DATA misses = 137. Winner = INSTR
[DUEL] Epoch ended. INSTR misses = 62, DATA misses = 53. Winner = DATA
[DUEL] Epoch ended. INSTR misses = 45, DATA misses = 54. Winner = INSTR
[DUEL] Epoch ended. INSTR misses = 117, DATA misses = 113. Winner = DATA
[DUEL] Epoch ended. INSTR misses = 121, DATA misses = 98. Winner = DATA
[DUEL] Epoch ended. INSTR misses = 86, DATA misses = 83. Winner = DATA
[DUEL] Epoch ended. INSTR misses = 82, DATA misses = 72. Winner = DATA
[DUEL] Epoch ended. INSTR misses = 83, DATA misses = 60. Winner = DATA
[DUEL] Epoch ended. INSTR misses = 40, DATA misses = 40. Winner = INSTR
[DUEL] Epoch ended. INSTR misses = 85, DATA misses = 75. Winner = DATA
[DUEL] Epoch ended. INSTR misses = 102, DATA misses = 87. Winner = DATA
[DUEL] Epoch ended. INSTR misses = 73, DATA misses = 66. Winner = DATA
[DUEL] Epoch ended. INSTR misses = 63, DATA misses = 57. Winner = DATA
[DUEL] Epoch ended. INSTR misses = 29, DATA misses = 40. Winner = INSTR
[DUEL] Epoch ended. INSTR misses = 30, DATA misses = 60. Winner = INSTR
[DUEL] Epoch ended. INSTR misses = 40, DATA misses = 44. Winner = INSTR
[DUEL] Epoch ended. INSTR misses = 26, DATA misses = 23. Winner = DATA
[DUEL] Epoch ended. INSTR misses = 19, DATA misses = 10. Winner = DATA
[DUEL] Epoch ended. INSTR misses = 3, DATA misses = 2. Winner = DATA
[DUEL] Epoch ended. INSTR misses = 7, DATA misses = 3. Winner = DATA
[DUEL] Epoch ended. INSTR misses = 12, DATA misses = 5. Winner = DATA
[DUEL] Epoch ended. INSTR misses = 26, DATA misses = 16. Winner = DATA
[DUEL] Epoch ended. INSTR misses = 7, DATA misses = 9. Winner = INSTR
[DUEL] Epoch ended. INSTR misses = 22, DATA misses = 26. Winner = INSTR
[DUEL] Epoch ended. INSTR misses = 5, DATA misses = 1. Winner = DATA
[DUEL] Epoch ended. INSTR misses = 11, DATA misses = 1. Winner = DATA
[DUEL] Epoch ended. INSTR misses = 5, DATA misses = 12. Winner = INSTR
[DUEL] Epoch ended. INSTR misses = 7, DATA misses = 7. Winner = INSTR
[DUEL] Epoch ended. INSTR misses = 31, DATA misses = 24. Winner = DATA
[DUEL] Epoch ended. INSTR misses = 20, DATA misses = 8. Winner = DATA
[DUEL] Epoch ended. INSTR misses = 16, DATA misses = 7. Winner = DATA
[DUEL] Epoch ended. INSTR misses = 19, DATA misses = 15. Winner = DATA
[DUEL] Epoch ended. INSTR misses = 16, DATA misses = 19. Winner = INSTR
[DUEL] Epoch ended. INSTR misses = 9, DATA misses = 7. Winner = DATA
[DUEL] Epoch ended. INSTR misses = 15, DATA misses = 7. Winner = DATA
[DUEL] Epoch ended. INSTR misses = 44, DATA misses = 34. Winner = DATA
[DUEL] Epoch ended. INSTR misses = 27, DATA misses = 23. Winner = DATA
[DUEL] Epoch ended. INSTR misses = 18, DATA misses = 12. Winner = DATA
Heartbeat CPU 0 instructions: 20000002 cycles: 3914791 heartbeat IPC: 5.26 cumulative IPC: 5.109 (Simulation time: 00 hr 00 min 58 sec)
[DUEL] Epoch ended. INSTR misses = 92, DATA misses = 84. Winner = DATA
[DUEL] Epoch ended. INSTR misses = 64, DATA misses = 77. Winner = INSTR
[DUEL] Epoch ended. INSTR misses = 43, DATA misses = 41. Winner = DATA
[DUEL] Epoch ended. INSTR misses = 98, DATA misses = 88. Winner = DATA
[DUEL] Epoch ended. INSTR misses = 37, DATA misses = 19. Winner = DATA
[DUEL] Epoch ended. INSTR misses = 30, DATA misses = 25. Winner = DATA
[DUEL] Epoch ended. INSTR misses = 11, DATA misses = 8. Winner = DATA
[DUEL] Epoch ended. INSTR misses = 1, DATA misses = 4. Winner = INSTR
[DUEL] Epoch ended. INSTR misses = 4, DATA misses = 9. Winner = INSTR
[DUEL] Epoch ended. INSTR misses = 62, DATA misses = 63. Winner = INSTR
[DUEL] Epoch ended. INSTR misses = 15, DATA misses = 15. Winner = INSTR
[DUEL] Epoch ended. INSTR misses = 22, DATA misses = 22. Winner = INSTR
[DUEL] Epoch ended. INSTR misses = 7, DATA misses = 5. Winner = DATA
[DUEL] Epoch ended. INSTR misses = 3, DATA misses = 3. Winner = INSTR
[DUEL] Epoch ended. INSTR misses = 33, DATA misses = 45. Winner = INSTR
[DUEL] Epoch ended. INSTR misses = 27, DATA misses = 29. Winner = INSTR
[DUEL] Epoch ended. INSTR misses = 83, DATA misses = 90. Winner = INSTR
[DUEL] Epoch ended. INSTR misses = 91, DATA misses = 82. Winner = DATA
[DUEL] Epoch ended. INSTR misses = 49, DATA misses = 45. Winner = DATA
[DUEL] Epoch ended. INSTR misses = 3, DATA misses = 1. Winner = DATA
[DUEL] Epoch ended. INSTR misses = 10, DATA misses = 18. Winner = INSTR
[DUEL] Epoch ended. INSTR misses = 1, DATA misses = 0. Winner = DATA
[DUEL] Epoch ended. INSTR misses = 1, DATA misses = 1. Winner = INSTR
[DUEL] Epoch ended. INSTR misses = 10, DATA misses = 13. Winner = INSTR
[DUEL] Epoch ended. INSTR misses = 23, DATA misses = 23. Winner = INSTR
[DUEL] Epoch ended. INSTR misses = 0, DATA misses = 0. Winner = INSTR
[DUEL] Epoch ended. INSTR misses = 91, DATA misses = 105. Winner = INSTR
[DUEL] Epoch ended. INSTR misses = 104, DATA misses = 90. Winner = DATA
[DUEL] Epoch ended. INSTR misses = 80, DATA misses = 96. Winner = INSTR
[DUEL] Epoch ended. INSTR misses = 1, DATA misses = 4. Winner = INSTR
[DUEL] Epoch ended. INSTR misses = 29, DATA misses = 13. Winner = DATA
[DUEL] Epoch ended. INSTR misses = 11, DATA misses = 20. Winner = INSTR
[DUEL] Epoch ended. INSTR misses = 21, DATA misses = 14. Winner = DATA
[DUEL] Epoch ended. INSTR misses = 7, DATA misses = 4. Winner = DATA
[DUEL] Epoch ended. INSTR misses = 22, DATA misses = 4. Winner = DATA
[DUEL] Epoch ended. INSTR misses = 9, DATA misses = 7. Winner = DATA
[DUEL] Epoch ended. INSTR misses = 2, DATA misses = 3. Winner = INSTR
[DUEL] Epoch ended. INSTR misses = 3, DATA misses = 5. Winner = INSTR
[DUEL] Epoch ended. INSTR misses = 17, DATA misses = 8. Winner = DATA
Heartbeat CPU 0 instructions: 30000010 cycles: 5813371 heartbeat IPC: 5.267 cumulative IPC: 5.161 (Simulation time: 00 hr 01 min 28 sec)
Warmup finished CPU 0 instructions: 30000010 cycles: 5813372 cumulative IPC: 5.161 (Simulation time: 00 hr 01 min 28 sec)
Warmup complete CPU 0 instructions: 30000010 cycles: 5813372 cumulative IPC: 5.161 (Simulation time: 00 hr 01 min 28 sec)
[DUEL] Epoch ended. INSTR misses = 4, DATA misses = 6. Winner = INSTR
[DUEL] Epoch ended. INSTR misses = 5, DATA misses = 13. Winner = INSTR
[DUEL] Epoch ended. INSTR misses = 223, DATA misses = 210. Winner = DATA
[DUEL] Epoch ended. INSTR misses = 55, DATA misses = 56. Winner = INSTR
[DUEL] Epoch ended. INSTR misses = 48, DATA misses = 56. Winner = INSTR
[DUEL] Epoch ended. INSTR misses = 6, DATA misses = 9. Winner = INSTR
[DUEL] Epoch ended. INSTR misses = 4, DATA misses = 1. Winner = DATA
[DUEL] Epoch ended. INSTR misses = 5, DATA misses = 14. Winner = INSTR
[DUEL] Epoch ended. INSTR misses = 24, DATA misses = 15. Winner = DATA
[DUEL] Epoch ended. INSTR misses = 64, DATA misses = 101. Winner = INSTR
[DUEL] Epoch ended. INSTR misses = 108, DATA misses = 97. Winner = DATA
[DUEL] Epoch ended. INSTR misses = 94, DATA misses = 102. Winner = INSTR
[DUEL] Epoch ended. INSTR misses = 0, DATA misses = 0. Winner = INSTR
[DUEL] Epoch ended. INSTR misses = 7, DATA misses = 16. Winner = INSTR
[DUEL] Epoch ended. INSTR misses = 0, DATA misses = 0. Winner = INSTR
[DUEL] Epoch ended. INSTR misses = 1, DATA misses = 1. Winner = INSTR
[DUEL] Epoch ended. INSTR misses = 10, DATA misses = 12. Winner = INSTR
[DUEL] Epoch ended. INSTR misses = 12, DATA misses = 14. Winner = INSTR
[DUEL] Epoch ended. INSTR misses = 6, DATA misses = 7. Winner = INSTR
[DUEL] Epoch ended. INSTR misses = 50, DATA misses = 58. Winner = INSTR
[DUEL] Epoch ended. INSTR misses = 162, DATA misses = 128. Winner = DATA
[DUEL] Epoch ended. INSTR misses = 98, DATA misses = 124. Winner = INSTR
[DUEL] Epoch ended. INSTR misses = 12, DATA misses = 8. Winner = DATA
[DUEL] Epoch ended. INSTR misses = 26, DATA misses = 11. Winner = DATA
[DUEL] Epoch ended. INSTR misses = 13, DATA misses = 20. Winner = INSTR
[DUEL] Epoch ended. INSTR misses = 16, DATA misses = 12. Winner = DATA
[DUEL] Epoch ended. INSTR misses = 5, DATA misses = 6. Winner = INSTR
[DUEL] Epoch ended. INSTR misses = 12, DATA misses = 0. Winner = DATA
[DUEL] Epoch ended. INSTR misses = 16, DATA misses = 9. Winner = DATA
[DUEL] Epoch ended. INSTR misses = 1, DATA misses = 5. Winner = INSTR
[DUEL] Epoch ended. INSTR misses = 5, DATA misses = 7. Winner = INSTR
[DUEL] Epoch ended. INSTR misses = 5, DATA misses = 3. Winner = DATA
[DUEL] Epoch ended. INSTR misses = 12, DATA misses = 7. Winner = DATA
[DUEL] Epoch ended. INSTR misses = 3, DATA misses = 7. Winner = INSTR
[DUEL] Epoch ended. INSTR misses = 25, DATA misses = 17. Winner = DATA
[DUEL] Epoch ended. INSTR misses = 45, DATA misses = 37. Winner = DATA
[DUEL] Epoch ended. INSTR misses = 44, DATA misses = 62. Winner = INSTR
[DUEL] Epoch ended. INSTR misses = 14, DATA misses = 9. Winner = DATA
[DUEL] Epoch ended. INSTR misses = 4, DATA misses = 1. Winner = DATA
Heartbeat CPU 0 instructions: 40000003 cycles: 16980433 heartbeat IPC: 0.8955 cumulative IPC: 0.8955 (Simulation time: 00 hr 02 min 45 sec)
[DUEL] Epoch ended. INSTR misses = 5, DATA misses = 13. Winner = INSTR
[DUEL] Epoch ended. INSTR misses = 0, DATA misses = 0. Winner = INSTR
[DUEL] Epoch ended. INSTR misses = 71, DATA misses = 99. Winner = INSTR
[DUEL] Epoch ended. INSTR misses = 100, DATA misses = 106. Winner = INSTR
[DUEL] Epoch ended. INSTR misses = 113, DATA misses = 126. Winner = INSTR
[DUEL] Epoch ended. INSTR misses = 1, DATA misses = 0. Winner = DATA
[DUEL] Epoch ended. INSTR misses = 7, DATA misses = 16. Winner = INSTR
[DUEL] Epoch ended. INSTR misses = 0, DATA misses = 0. Winner = INSTR
[DUEL] Epoch ended. INSTR misses = 1, DATA misses = 1. Winner = INSTR
[DUEL] Epoch ended. INSTR misses = 9, DATA misses = 12. Winner = INSTR
[DUEL] Epoch ended. INSTR misses = 1, DATA misses = 0. Winner = DATA
[DUEL] Epoch ended. INSTR misses = 16, DATA misses = 21. Winner = INSTR
[DUEL] Epoch ended. INSTR misses = 16, DATA misses = 16. Winner = INSTR
[DUEL] Epoch ended. INSTR misses = 158, DATA misses = 164. Winner = INSTR
[DUEL] Epoch ended. INSTR misses = 122, DATA misses = 131. Winner = INSTR
[DUEL] Epoch ended. INSTR misses = 14, DATA misses = 8. Winner = DATA
[DUEL] Epoch ended. INSTR misses = 21, DATA misses = 11. Winner = DATA
[DUEL] Epoch ended. INSTR misses = 26, DATA misses = 30. Winner = INSTR
[DUEL] Epoch ended. INSTR misses = 18, DATA misses = 14. Winner = DATA
[DUEL] Epoch ended. INSTR misses = 3, DATA misses = 2. Winner = DATA
[DUEL] Epoch ended. INSTR misses = 13, DATA misses = 3. Winner = DATA
[DUEL] Epoch ended. INSTR misses = 12, DATA misses = 10. Winner = DATA
[DUEL] Epoch ended. INSTR misses = 3, DATA misses = 4. Winner = INSTR
[DUEL] Epoch ended. INSTR misses = 4, DATA misses = 3. Winner = DATA
[DUEL] Epoch ended. INSTR misses = 7, DATA misses = 4. Winner = DATA
[DUEL] Epoch ended. INSTR misses = 12, DATA misses = 9. Winner = DATA
[DUEL] Epoch ended. INSTR misses = 2, DATA misses = 6. Winner = INSTR
[DUEL] Epoch ended. INSTR misses = 77, DATA misses = 89. Winner = INSTR
[DUEL] Epoch ended. INSTR misses = 138, DATA misses = 131. Winner = DATA
[DUEL] Epoch ended. INSTR misses = 53, DATA misses = 48. Winner = DATA
[DUEL] Epoch ended. INSTR misses = 47, DATA misses = 61. Winner = INSTR
[DUEL] Epoch ended. INSTR misses = 7, DATA misses = 4. Winner = DATA
[DUEL] Epoch ended. INSTR misses = 5, DATA misses = 1. Winner = DATA
[DUEL] Epoch ended. INSTR misses = 4, DATA misses = 11. Winner = INSTR
[DUEL] Epoch ended. INSTR misses = 16, DATA misses = 11. Winner = DATA
[DUEL] Epoch ended. INSTR misses = 75, DATA misses = 104. Winner = INSTR
[DUEL] Epoch ended. INSTR misses = 107, DATA misses = 102. Winner = DATA
[DUEL] Epoch ended. INSTR misses = 88, DATA misses = 103. Winner = INSTR
[DUEL] Epoch ended. INSTR misses = 0, DATA misses = 1. Winner = INSTR
Heartbeat CPU 0 instructions: 50000001 cycles: 27905028 heartbeat IPC: 0.9154 cumulative IPC: 0.9053 (Simulation time: 00 hr 04 min 02 sec)
[DUEL] Epoch ended. INSTR misses = 5, DATA misses = 16. Winner = INSTR
[DUEL] Epoch ended. INSTR misses = 0, DATA misses = 0. Winner = INSTR
[DUEL] Epoch ended. INSTR misses = 2, DATA misses = 1. Winner = DATA
[DUEL] Epoch ended. INSTR misses = 8, DATA misses = 12. Winner = INSTR
[DUEL] Epoch ended. INSTR misses = 10, DATA misses = 8. Winner = DATA
[DUEL] Epoch ended. INSTR misses = 6, DATA misses = 13. Winner = INSTR
[DUEL] Epoch ended. INSTR misses = 26, DATA misses = 30. Winner = INSTR
[DUEL] Epoch ended. INSTR misses = 164, DATA misses = 160. Winner = DATA
[DUEL] Epoch ended. INSTR misses = 105, DATA misses = 124. Winner = INSTR
[DUEL] Epoch ended. INSTR misses = 13, DATA misses = 9. Winner = DATA
[DUEL] Epoch ended. INSTR misses = 35, DATA misses = 17. Winner = DATA
[DUEL] Epoch ended. INSTR misses = 14, DATA misses = 29. Winner = INSTR
[DUEL] Epoch ended. INSTR misses = 18, DATA misses = 9. Winner = DATA
[DUEL] Epoch ended. INSTR misses = 6, DATA misses = 4. Winner = DATA
[DUEL] Epoch ended. INSTR misses = 10, DATA misses = 0. Winner = DATA
[DUEL] Epoch ended. INSTR misses = 12, DATA misses = 7. Winner = DATA
[DUEL] Epoch ended. INSTR misses = 1, DATA misses = 4. Winner = INSTR
[DUEL] Epoch ended. INSTR misses = 5, DATA misses = 6. Winner = INSTR
[DUEL] Epoch ended. INSTR misses = 4, DATA misses = 4. Winner = INSTR
[DUEL] Epoch ended. INSTR misses = 11, DATA misses = 8. Winner = DATA
[DUEL] Epoch ended. INSTR misses = 2, DATA misses = 6. Winner = INSTR
[DUEL] Epoch ended. INSTR misses = 14, DATA misses = 16. Winner = INSTR
[DUEL] Epoch ended. INSTR misses = 41, DATA misses = 39. Winner = DATA
[DUEL] Epoch ended. INSTR misses = 39, DATA misses = 63. Winner = INSTR
[DUEL] Epoch ended. INSTR misses = 14, DATA misses = 10. Winner = DATA
[DUEL] Epoch ended. INSTR misses = 5, DATA misses = 1. Winner = DATA
[DUEL] Epoch ended. INSTR misses = 3, DATA misses = 11. Winner = INSTR
[DUEL] Epoch ended. INSTR misses = 0, DATA misses = 0. Winner = INSTR
[DUEL] Epoch ended. INSTR misses = 60, DATA misses = 94. Winner = INSTR
[DUEL] Epoch ended. INSTR misses = 96, DATA misses = 104. Winner = INSTR
[DUEL] Epoch ended. INSTR misses = 109, DATA misses = 120. Winner = INSTR
[DUEL] Epoch ended. INSTR misses = 1, DATA misses = 0. Winner = DATA
[DUEL] Epoch ended. INSTR misses = 5, DATA misses = 15. Winner = INSTR
[DUEL] Epoch ended. INSTR misses = 0, DATA misses = 0. Winner = INSTR
[DUEL] Epoch ended. INSTR misses = 2, DATA misses = 2. Winner = INSTR
[DUEL] Epoch ended. INSTR misses = 8, DATA misses = 12. Winner = INSTR
[DUEL] Epoch ended. INSTR misses = 1, DATA misses = 0. Winner = DATA
[DUEL] Epoch ended. INSTR misses = 14, DATA misses = 21. Winner = INSTR
[DUEL] Epoch ended. INSTR misses = 18, DATA misses = 16. Winner = DATA
Heartbeat CPU 0 instructions: 60000001 cycles: 36811616 heartbeat IPC: 1.123 cumulative IPC: 0.9678 (Simulation time: 00 hr 05 min 04 sec)
[DUEL] Epoch ended. INSTR misses = 158, DATA misses = 180. Winner = INSTR
[DUEL] Epoch ended. INSTR misses = 120, DATA misses = 144. Winner = INSTR
[DUEL] Epoch ended. INSTR misses = 14, DATA misses = 8. Winner = DATA
[DUEL] Epoch ended. INSTR misses = 16, DATA misses = 10. Winner = DATA
[DUEL] Epoch ended. INSTR misses = 12, DATA misses = 17. Winner = INSTR
[DUEL] Epoch ended. INSTR misses = 15, DATA misses = 14. Winner = DATA
[DUEL] Epoch ended. INSTR misses = 5, DATA misses = 2. Winner = DATA
[DUEL] Epoch ended. INSTR misses = 14, DATA misses = 3. Winner = DATA
[DUEL] Epoch ended. INSTR misses = 6, DATA misses = 8. Winner = INSTR
[DUEL] Epoch ended. INSTR misses = 8, DATA misses = 4. Winner = DATA
[DUEL] Epoch ended. INSTR misses = 3, DATA misses = 2. Winner = DATA
[DUEL] Epoch ended. INSTR misses = 7, DATA misses = 6. Winner = DATA
[DUEL] Epoch ended. INSTR misses = 13, DATA misses = 9. Winner = DATA
[DUEL] Epoch ended. INSTR misses = 1, DATA misses = 3. Winner = INSTR
[DUEL] Epoch ended. INSTR misses = 72, DATA misses = 84. Winner = INSTR
[DUEL] Epoch ended. INSTR misses = 154, DATA misses = 139. Winner = DATA
[DUEL] Epoch ended. INSTR misses = 39, DATA misses = 41. Winner = INSTR
[DUEL] Epoch ended. INSTR misses = 42, DATA misses = 45. Winner = INSTR
[DUEL] Epoch ended. INSTR misses = 33, DATA misses = 44. Winner = INSTR
[DUEL] Epoch ended. INSTR misses = 5, DATA misses = 2. Winner = DATA
[DUEL] Epoch ended. INSTR misses = 3, DATA misses = 11. Winner = INSTR
[DUEL] Epoch ended. INSTR misses = 0, DATA misses = 0. Winner = INSTR
[DUEL] Epoch ended. INSTR misses = 45, DATA misses = 77. Winner = INSTR
[DUEL] Epoch ended. INSTR misses = 87, DATA misses = 118. Winner = INSTR
[DUEL] Epoch ended. INSTR misses = 133, DATA misses = 112. Winner = DATA
[DUEL] Epoch ended. INSTR misses = 2, DATA misses = 12. Winner = INSTR
[DUEL] Epoch ended. INSTR misses = 0, DATA misses = 0. Winner = INSTR
[DUEL] Epoch ended. INSTR misses = 6, DATA misses = 17. Winner = INSTR
[DUEL] Epoch ended. INSTR misses = 1, DATA misses = 0. Winner = DATA
[DUEL] Epoch ended. INSTR misses = 8, DATA misses = 12. Winner = INSTR
[DUEL] Epoch ended. INSTR misses = 0, DATA misses = 0. Winner = INSTR
[DUEL] Epoch ended. INSTR misses = 15, DATA misses = 21. Winner = INSTR
[DUEL] Epoch ended. INSTR misses = 16, DATA misses = 16. Winner = INSTR
[DUEL] Epoch ended. INSTR misses = 113, DATA misses = 125. Winner = INSTR
[DUEL] Epoch ended. INSTR misses = 142, DATA misses = 146. Winner = INSTR
[DUEL] Epoch ended. INSTR misses = 28, DATA misses = 30. Winner = INSTR
[DUEL] Epoch ended. INSTR misses = 17, DATA misses = 7. Winner = DATA
[DUEL] Epoch ended. INSTR misses = 9, DATA misses = 11. Winner = INSTR
[DUEL] Epoch ended. INSTR misses = 12, DATA misses = 16. Winner = INSTR
Heartbeat CPU 0 instructions: 70000001 cycles: 46931957 heartbeat IPC: 0.9881 cumulative IPC: 0.9728 (Simulation time: 00 hr 06 min 14 sec)
[DUEL] Epoch ended. INSTR misses = 7, DATA misses = 7. Winner = INSTR
[DUEL] Epoch ended. INSTR misses = 17, DATA misses = 3. Winner = DATA
[DUEL] Epoch ended. INSTR misses = 12, DATA misses = 5. Winner = DATA
[DUEL] Epoch ended. INSTR misses = 9, DATA misses = 6. Winner = DATA
[DUEL] Epoch ended. INSTR misses = 1, DATA misses = 3. Winner = INSTR
[DUEL] Epoch ended. INSTR misses = 11, DATA misses = 9. Winner = DATA
[DUEL] Epoch ended. INSTR misses = 13, DATA misses = 9. Winner = DATA
[DUEL] Epoch ended. INSTR misses = 0, DATA misses = 0. Winner = INSTR
[DUEL] Epoch ended. INSTR misses = 39, DATA misses = 49. Winner = INSTR
[DUEL] Epoch ended. INSTR misses = 200, DATA misses = 194. Winner = DATA
[DUEL] Epoch ended. INSTR misses = 43, DATA misses = 36. Winner = DATA
[DUEL] Epoch ended. INSTR misses = 35, DATA misses = 45. Winner = INSTR
[DUEL] Epoch ended. INSTR misses = 4, DATA misses = 3. Winner = DATA
[DUEL] Epoch ended. INSTR misses = 4, DATA misses = 11. Winner = INSTR
[DUEL] Epoch ended. INSTR misses = 0, DATA misses = 0. Winner = INSTR
[DUEL] Epoch ended. INSTR misses = 29, DATA misses = 41. Winner = INSTR
[DUEL] Epoch ended. INSTR misses = 118, DATA misses = 117. Winner = DATA
[DUEL] Epoch ended. INSTR misses = 94, DATA misses = 96. Winner = INSTR
[DUEL] Epoch ended. INSTR misses = 38, DATA misses = 43. Winner = INSTR
[DUEL] Epoch ended. INSTR misses = 0, DATA misses = 0. Winner = INSTR
[DUEL] Epoch ended. INSTR misses = 6, DATA misses = 15. Winner = INSTR
[DUEL] Epoch ended. INSTR misses = 1, DATA misses = 1. Winner = INSTR
[DUEL] Epoch ended. INSTR misses = 8, DATA misses = 12. Winner = INSTR
[DUEL] Epoch ended. INSTR misses = 0, DATA misses = 1. Winner = INSTR
[DUEL] Epoch ended. INSTR misses = 15, DATA misses = 21. Winner = INSTR
[DUEL] Epoch ended. INSTR misses = 0, DATA misses = 0. Winner = INSTR
[DUEL] Epoch ended. INSTR misses = 113, DATA misses = 125. Winner = INSTR
[DUEL] Epoch ended. INSTR misses = 130, DATA misses = 136. Winner = INSTR
[DUEL] Epoch ended. INSTR misses = 54, DATA misses = 53. Winner = DATA
[DUEL] Epoch ended. INSTR misses = 14, DATA misses = 5. Winner = DATA
[DUEL] Epoch ended. INSTR misses = 11, DATA misses = 9. Winner = DATA
[DUEL] Epoch ended. INSTR misses = 9, DATA misses = 19. Winner = INSTR
[DUEL] Epoch ended. INSTR misses = 11, DATA misses = 7. Winner = DATA
[DUEL] Epoch ended. INSTR misses = 10, DATA misses = 3. Winner = DATA
[DUEL] Epoch ended. INSTR misses = 13, DATA misses = 0. Winner = DATA
[DUEL] Epoch ended. INSTR misses = 7, DATA misses = 6. Winner = DATA
[DUEL] Epoch ended. INSTR misses = 2, DATA misses = 5. Winner = INSTR
[DUEL] Epoch ended. INSTR misses = 6, DATA misses = 8. Winner = INSTR
[DUEL] Epoch ended. INSTR misses = 14, DATA misses = 9. Winner = DATA
Heartbeat CPU 0 instructions: 80000003 cycles: 56534169 heartbeat IPC: 1.041 cumulative IPC: 0.9858 (Simulation time: 00 hr 07 min 21 sec)
[DUEL] Epoch ended. INSTR misses = 2, DATA misses = 0. Winner = DATA
[DUEL] Epoch ended. INSTR misses = 11, DATA misses = 23. Winner = INSTR
[DUEL] Epoch ended. INSTR misses = 181, DATA misses = 177. Winner = DATA
[DUEL] Epoch ended. INSTR misses = 68, DATA misses = 58. Winner = DATA
[DUEL] Epoch ended. INSTR misses = 20, DATA misses = 28. Winner = INSTR
[DUEL] Epoch ended. INSTR misses = 33, DATA misses = 45. Winner = INSTR
[DUEL] Epoch ended. INSTR misses = 5, DATA misses = 1. Winner = DATA
[DUEL] Epoch ended. INSTR misses = 3, DATA misses = 9. Winner = INSTR
[DUEL] Epoch ended. INSTR misses = 0, DATA misses = 0. Winner = INSTR
[DUEL] Epoch ended. INSTR misses = 49, DATA misses = 72. Winner = INSTR
[DUEL] Epoch ended. INSTR misses = 102, DATA misses = 103. Winner = INSTR
[DUEL] Epoch ended. INSTR misses = 117, DATA misses = 127. Winner = INSTR
[DUEL] Epoch ended. INSTR misses = 2, DATA misses = 1. Winner = DATA
[DUEL] Epoch ended. INSTR misses = 2, DATA misses = 1. Winner = DATA
[DUEL] Epoch ended. INSTR misses = 4, DATA misses = 16. Winner = INSTR
[DUEL] Epoch ended. INSTR misses = 1, DATA misses = 0. Winner = DATA
[DUEL] Epoch ended. INSTR misses = 8, DATA misses = 12. Winner = INSTR
[DUEL] Epoch ended. INSTR misses = 0, DATA misses = 0. Winner = INSTR
[DUEL] Epoch ended. INSTR misses = 16, DATA misses = 21. Winner = INSTR
[DUEL] Epoch ended. INSTR misses = 16, DATA misses = 16. Winner = INSTR
[DUEL] Epoch ended. INSTR misses = 112, DATA misses = 114. Winner = INSTR
[DUEL] Epoch ended. INSTR misses = 153, DATA misses = 141. Winner = DATA
[DUEL] Epoch ended. INSTR misses = 16, DATA misses = 15. Winner = DATA
[DUEL] Epoch ended. INSTR misses = 16, DATA misses = 5. Winner = DATA
[DUEL] Epoch ended. INSTR misses = 11, DATA misses = 13. Winner = INSTR
[DUEL] Epoch ended. INSTR misses = 13, DATA misses = 18. Winner = INSTR
[DUEL] Epoch ended. INSTR misses = 8, DATA misses = 4. Winner = DATA
[DUEL] Epoch ended. INSTR misses = 15, DATA misses = 3. Winner = DATA
[DUEL] Epoch ended. INSTR misses = 8, DATA misses = 1. Winner = DATA
[DUEL] Epoch ended. INSTR misses = 8, DATA misses = 7. Winner = DATA
[DUEL] Epoch ended. INSTR misses = 2, DATA misses = 4. Winner = INSTR
[DUEL] Epoch ended. INSTR misses = 7, DATA misses = 7. Winner = INSTR
[DUEL] Epoch ended. INSTR misses = 14, DATA misses = 9. Winner = DATA
[DUEL] Epoch ended. INSTR misses = 0, DATA misses = 0. Winner = INSTR
[DUEL] Epoch ended. INSTR misses = 48, DATA misses = 58. Winner = INSTR
[DUEL] Epoch ended. INSTR misses = 170, DATA misses = 153. Winner = DATA
[DUEL] Epoch ended. INSTR misses = 43, DATA misses = 45. Winner = INSTR
[DUEL] Epoch ended. INSTR misses = 53, DATA misses = 43. Winner = DATA
[DUEL] Epoch ended. INSTR misses = 36, DATA misses = 46. Winner = INSTR
Heartbeat CPU 0 instructions: 90000001 cycles: 66740936 heartbeat IPC: 0.9797 cumulative IPC: 0.9848 (Simulation time: 00 hr 08 min 34 sec)
[DUEL] Epoch ended. INSTR misses = 5, DATA misses = 2. Winner = DATA
[DUEL] Epoch ended. INSTR misses = 3, DATA misses = 9. Winner = INSTR
[DUEL] Epoch ended. INSTR misses = 0, DATA misses = 0. Winner = INSTR
[DUEL] Epoch ended. INSTR misses = 43, DATA misses = 75. Winner = INSTR
[DUEL] Epoch ended. INSTR misses = 93, DATA misses = 124. Winner = INSTR
[DUEL] Epoch ended. INSTR misses = 127, DATA misses = 111. Winner = DATA
[DUEL] Epoch ended. INSTR misses = 11, DATA misses = 11. Winner = INSTR
[DUEL] Epoch ended. INSTR misses = 0, DATA misses = 2. Winner = INSTR
[DUEL] Epoch ended. INSTR misses = 6, DATA misses = 16. Winner = INSTR
[DUEL] Epoch ended. INSTR misses = 1, DATA misses = 0. Winner = DATA
[DUEL] Epoch ended. INSTR misses = 8, DATA misses = 12. Winner = INSTR
[DUEL] Epoch ended. INSTR misses = 0, DATA misses = 0. Winner = INSTR
[DUEL] Epoch ended. INSTR misses = 15, DATA misses = 20. Winner = INSTR
[DUEL] Epoch ended. INSTR misses = 0, DATA misses = 0. Winner = INSTR
[DUEL] Epoch ended. INSTR misses = 126, DATA misses = 132. Winner = INSTR
[DUEL] Epoch ended. INSTR misses = 137, DATA misses = 136. Winner = DATA
[DUEL] Epoch ended. INSTR misses = 27, DATA misses = 28. Winner = INSTR
[DUEL] Epoch ended. INSTR misses = 18, DATA misses = 8. Winner = DATA
[DUEL] Epoch ended. INSTR misses = 9, DATA misses = 10. Winner = INSTR
[DUEL] Epoch ended. INSTR misses = 13, DATA misses = 16. Winner = INSTR
[DUEL] Epoch ended. INSTR misses = 7, DATA misses = 7. Winner = INSTR
[DUEL] Epoch ended. INSTR misses = 13, DATA misses = 2. Winner = DATA
[DUEL] Epoch ended. INSTR misses = 10, DATA misses = 6. Winner = DATA
[DUEL] Epoch ended. INSTR misses = 8, DATA misses = 6. Winner = DATA
[DUEL] Epoch ended. INSTR misses = 1, DATA misses = 2. Winner = INSTR
[DUEL] Epoch ended. INSTR misses = 7, DATA misses = 9. Winner = INSTR
[DUEL] Epoch ended. INSTR misses = 13, DATA misses = 9. Winner = DATA
[DUEL] Epoch ended. INSTR misses = 1, DATA misses = 0. Winner = DATA
[DUEL] Epoch ended. INSTR misses = 17, DATA misses = 30. Winner = INSTR
[DUEL] Epoch ended. INSTR misses = 239, DATA misses = 222. Winner = DATA
[DUEL] Epoch ended. INSTR misses = 57, DATA misses = 50. Winner = DATA
[DUEL] Epoch ended. INSTR misses = 33, DATA misses = 49. Winner = INSTR
[DUEL] Epoch ended. INSTR misses = 5, DATA misses = 5. Winner = INSTR
[DUEL] Epoch ended. INSTR misses = 4, DATA misses = 9. Winner = INSTR
[DUEL] Epoch ended. INSTR misses = 0, DATA misses = 0. Winner = INSTR
[DUEL] Epoch ended. INSTR misses = 25, DATA misses = 38. Winner = INSTR
[DUEL] Epoch ended. INSTR misses = 125, DATA misses = 122. Winner = DATA
[DUEL] Epoch ended. INSTR misses = 96, DATA misses = 99. Winner = INSTR
[DUEL] Epoch ended. INSTR misses = 33, DATA misses = 41. Winner = INSTR
Heartbeat CPU 0 instructions: 100000001 cycles: 76825149 heartbeat IPC: 0.9916 cumulative IPC: 0.9858 (Simulation time: 00 hr 09 min 46 sec)
[DUEL] Epoch ended. INSTR misses = 0, DATA misses = 0. Winner = INSTR
[DUEL] Epoch ended. INSTR misses = 6, DATA misses = 17. Winner = INSTR
[DUEL] Epoch ended. INSTR misses = 1, DATA misses = 0. Winner = DATA
[DUEL] Epoch ended. INSTR misses = 8, DATA misses = 12. Winner = INSTR
[DUEL] Epoch ended. INSTR misses = 0, DATA misses = 0. Winner = INSTR
*** Reached end of trace: (0, "../traces/secret_traces/compute_fp/compute_fp_104.champsimtrace.xz")
[DUEL] Epoch ended. INSTR misses = 24, DATA misses = 21. Winner = DATA
[DUEL] Epoch ended. INSTR misses = 106, DATA misses = 111. Winner = INSTR
[DUEL] Epoch ended. INSTR misses = 105, DATA misses = 91. Winner = DATA
[DUEL] Epoch ended. INSTR misses = 56, DATA misses = 43. Winner = DATA
[DUEL] Epoch ended. INSTR misses = 33, DATA misses = 27. Winner = DATA
[DUEL] Epoch ended. INSTR misses = 10, DATA misses = 4. Winner = DATA
[DUEL] Epoch ended. INSTR misses = 59, DATA misses = 33. Winner = DATA
[DUEL] Epoch ended. INSTR misses = 12, DATA misses = 13. Winner = INSTR
[DUEL] Epoch ended. INSTR misses = 39, DATA misses = 21. Winner = DATA
[DUEL] Epoch ended. INSTR misses = 30, DATA misses = 42. Winner = INSTR
[DUEL] Epoch ended. INSTR misses = 20, DATA misses = 16. Winner = DATA
[DUEL] Epoch ended. INSTR misses = 4, DATA misses = 8. Winner = INSTR
[DUEL] Epoch ended. INSTR misses = 24, DATA misses = 24. Winner = INSTR
[DUEL] Epoch ended. INSTR misses = 82, DATA misses = 97. Winner = INSTR
[DUEL] Epoch ended. INSTR misses = 67, DATA misses = 85. Winner = INSTR
[DUEL] Epoch ended. INSTR misses = 1, DATA misses = 0. Winner = DATA
[DUEL] Epoch ended. INSTR misses = 5, DATA misses = 15. Winner = INSTR
[DUEL] Epoch ended. INSTR misses = 1, DATA misses = 0. Winner = DATA
[DUEL] Epoch ended. INSTR misses = 8, DATA misses = 12. Winner = INSTR
[DUEL] Epoch ended. INSTR misses = 0, DATA misses = 0. Winner = INSTR
[DUEL] Epoch ended. INSTR misses = 6, DATA misses = 6. Winner = INSTR
[DUEL] Epoch ended. INSTR misses = 0, DATA misses = 0. Winner = INSTR
[DUEL] Epoch ended. INSTR misses = 131, DATA misses = 119. Winner = DATA
[DUEL] Epoch ended. INSTR misses = 14, DATA misses = 10. Winner = DATA
[DUEL] Epoch ended. INSTR misses = 22, DATA misses = 13. Winner = DATA
[DUEL] Epoch ended. INSTR misses = 15, DATA misses = 12. Winner = DATA
[DUEL] Epoch ended. INSTR misses = 11, DATA misses = 10. Winner = DATA
[DUEL] Epoch ended. INSTR misses = 6, DATA misses = 6. Winner = INSTR
[DUEL] Epoch ended. INSTR misses = 10, DATA misses = 5. Winner = DATA
[DUEL] Epoch ended. INSTR misses = 8, DATA misses = 5. Winner = DATA
[DUEL] Epoch ended. INSTR misses = 7, DATA misses = 6. Winner = DATA
[DUEL] Epoch ended. INSTR misses = 17, DATA misses = 6. Winner = DATA
[DUEL] Epoch ended. INSTR misses = 6, DATA misses = 5. Winner = DATA
[DUEL] Epoch ended. INSTR misses = 4, DATA misses = 13. Winner = INSTR
Heartbeat CPU 0 instructions: 110000002 cycles: 85925241 heartbeat IPC: 1.099 cumulative IPC: 0.9986 (Simulation time: 00 hr 10 min 51 sec)
[DUEL] Epoch ended. INSTR misses = 65, DATA misses = 45. Winner = DATA
[DUEL] Epoch ended. INSTR misses = 1, DATA misses = 0. Winner = DATA
[DUEL] Epoch ended. INSTR misses = 85, DATA misses = 59. Winner = DATA
[DUEL] Epoch ended. INSTR misses = 163, DATA misses = 172. Winner = INSTR
[DUEL] Epoch ended. INSTR misses = 163, DATA misses = 203. Winner = INSTR
[DUEL] Epoch ended. INSTR misses = 163, DATA misses = 236. Winner = INSTR
[DUEL] Epoch ended. INSTR misses = 51, DATA misses = 55. Winner = INSTR
[DUEL] Epoch ended. INSTR misses = 69, DATA misses = 64. Winner = DATA
[DUEL] Epoch ended. INSTR misses = 74, DATA misses = 80. Winner = INSTR
[DUEL] Epoch ended. INSTR misses = 107, DATA misses = 98. Winner = DATA
[DUEL] Epoch ended. INSTR misses = 98, DATA misses = 111. Winner = INSTR
[DUEL] Epoch ended. INSTR misses = 88, DATA misses = 77. Winner = DATA
[DUEL] Epoch ended. INSTR misses = 73, DATA misses = 64. Winner = DATA
[DUEL] Epoch ended. INSTR misses = 43, DATA misses = 39. Winner = DATA
[DUEL] Epoch ended. INSTR misses = 93, DATA misses = 66. Winner = DATA
[DUEL] Epoch ended. INSTR misses = 91, DATA misses = 92. Winner = INSTR
[DUEL] Epoch ended. INSTR misses = 93, DATA misses = 108. Winner = INSTR
[DUEL] Epoch ended. INSTR misses = 52, DATA misses = 43. Winner = DATA
[DUEL] Epoch ended. INSTR misses = 44, DATA misses = 76. Winner = INSTR
[DUEL] Epoch ended. INSTR misses = 23, DATA misses = 38. Winner = INSTR
[DUEL] Epoch ended. INSTR misses = 24, DATA misses = 54. Winner = INSTR
[DUEL] Epoch ended. INSTR misses = 29, DATA misses = 35. Winner = INSTR
[DUEL] Epoch ended. INSTR misses = 11, DATA misses = 11. Winner = INSTR
[DUEL] Epoch ended. INSTR misses = 3, DATA misses = 1. Winner = DATA
[DUEL] Epoch ended. INSTR misses = 7, DATA misses = 3. Winner = DATA
[DUEL] Epoch ended. INSTR misses = 18, DATA misses = 7. Winner = DATA
[DUEL] Epoch ended. INSTR misses = 12, DATA misses = 10. Winner = DATA
[DUEL] Epoch ended. INSTR misses = 6, DATA misses = 7. Winner = INSTR
[DUEL] Epoch ended. INSTR misses = 24, DATA misses = 21. Winner = DATA
[DUEL] Epoch ended. INSTR misses = 6, DATA misses = 5. Winner = DATA
[DUEL] Epoch ended. INSTR misses = 0, DATA misses = 0. Winner = INSTR
[DUEL] Epoch ended. INSTR misses = 7, DATA misses = 21. Winner = INSTR
[DUEL] Epoch ended. INSTR misses = 2, DATA misses = 7. Winner = INSTR
[DUEL] Epoch ended. INSTR misses = 28, DATA misses = 16. Winner = DATA
[DUEL] Epoch ended. INSTR misses = 14, DATA misses = 9. Winner = DATA
[DUEL] Epoch ended. INSTR misses = 12, DATA misses = 15. Winner = INSTR
[DUEL] Epoch ended. INSTR misses = 9, DATA misses = 7. Winner = DATA
[DUEL] Epoch ended. INSTR misses = 21, DATA misses = 24. Winner = INSTR
[DUEL] Epoch ended. INSTR misses = 7, DATA misses = 8. Winner = INSTR
Heartbeat CPU 0 instructions: 120000004 cycles: 104700310 heartbeat IPC: 0.5326 cumulative IPC: 0.9101 (Simulation time: 00 hr 12 min 44 sec)
[DUEL] Epoch ended. INSTR misses = 14, DATA misses = 9. Winner = DATA
[DUEL] Epoch ended. INSTR misses = 40, DATA misses = 29. Winner = DATA
[DUEL] Epoch ended. INSTR misses = 22, DATA misses = 23. Winner = INSTR
[DUEL] Epoch ended. INSTR misses = 13, DATA misses = 15. Winner = INSTR
[DUEL] Epoch ended. INSTR misses = 88, DATA misses = 68. Winner = DATA
[DUEL] Epoch ended. INSTR misses = 67, DATA misses = 82. Winner = INSTR
[DUEL] Epoch ended. INSTR misses = 39, DATA misses = 51. Winner = INSTR
[DUEL] Epoch ended. INSTR misses = 81, DATA misses = 73. Winner = DATA
[DUEL] Epoch ended. INSTR misses = 38, DATA misses = 24. Winner = DATA
[DUEL] Epoch ended. INSTR misses = 18, DATA misses = 19. Winner = INSTR
[DUEL] Epoch ended. INSTR misses = 5, DATA misses = 2. Winner = DATA
[DUEL] Epoch ended. INSTR misses = 1, DATA misses = 4. Winner = INSTR
[DUEL] Epoch ended. INSTR misses = 4, DATA misses = 10. Winner = INSTR
[DUEL] Epoch ended. INSTR misses = 54, DATA misses = 62. Winner = INSTR
[DUEL] Epoch ended. INSTR misses = 29, DATA misses = 22. Winner = DATA
[DUEL] Epoch ended. INSTR misses = 23, DATA misses = 21. Winner = DATA
[DUEL] Epoch ended. INSTR misses = 3, DATA misses = 2. Winner = DATA
[DUEL] Epoch ended. INSTR misses = 4, DATA misses = 5. Winner = INSTR
[DUEL] Epoch ended. INSTR misses = 33, DATA misses = 37. Winner = INSTR
[DUEL] Epoch ended. INSTR misses = 35, DATA misses = 35. Winner = INSTR
[DUEL] Epoch ended. INSTR misses = 108, DATA misses = 135. Winner = INSTR
[DUEL] Epoch ended. INSTR misses = 117, DATA misses = 87. Winner = DATA
[DUEL] Epoch ended. INSTR misses = 65, DATA misses = 80. Winner = INSTR
[DUEL] Epoch ended. INSTR misses = 0, DATA misses = 1. Winner = INSTR
[DUEL] Epoch ended. INSTR misses = 8, DATA misses = 16. Winner = INSTR
[DUEL] Epoch ended. INSTR misses = 1, DATA misses = 0. Winner = DATA
[DUEL] Epoch ended. INSTR misses = 0, DATA misses = 1. Winner = INSTR
[DUEL] Epoch ended. INSTR misses = 17, DATA misses = 13. Winner = DATA
[DUEL] Epoch ended. INSTR misses = 23, DATA misses = 23. Winner = INSTR
[DUEL] Epoch ended. INSTR misses = 0, DATA misses = 0. Winner = INSTR
[DUEL] Epoch ended. INSTR misses = 99, DATA misses = 98. Winner = DATA
[DUEL] Epoch ended. INSTR misses = 139, DATA misses = 119. Winner = DATA
[DUEL] Epoch ended. INSTR misses = 98, DATA misses = 107. Winner = INSTR
[DUEL] Epoch ended. INSTR misses = 1, DATA misses = 0. Winner = DATA
[DUEL] Epoch ended. INSTR misses = 32, DATA misses = 17. Winner = DATA
[DUEL] Epoch ended. INSTR misses = 10, DATA misses = 14. Winner = INSTR
[DUEL] Epoch ended. INSTR misses = 20, DATA misses = 13. Winner = DATA
[DUEL] Epoch ended. INSTR misses = 7, DATA misses = 4. Winner = DATA
[DUEL] Epoch ended. INSTR misses = 14, DATA misses = 1. Winner = DATA
Heartbeat CPU 0 instructions: 130000001 cycles: 116746487 heartbeat IPC: 0.8301 cumulative IPC: 0.9014 (Simulation time: 00 hr 14 min 07 sec)
Simulation finished CPU 0 instructions: 100000008 cycles: 110933119 cumulative IPC: 0.9014 (Simulation time: 00 hr 14 min 07 sec)
Simulation complete CPU 0 instructions: 100000008 cycles: 110933119 cumulative IPC: 0.9014 (Simulation time: 00 hr 14 min 07 sec)

ChampSim completed all CPUs

=== Simulation ===
CPU 0 runs ../traces/secret_traces/compute_fp/compute_fp_104.champsimtrace.xz
Region of Interest Statistics

CPU 0 cumulative IPC: 0.9014 instructions: 100000008 cycles: 110933119
CPU 0 Branch Prediction Accuracy: 93.94% MPKI: 11.67 Average ROB Occupancy at Mispredict: 38.71
Branch type MPKI
BRANCH_DIRECT_JUMP: 0.00871
BRANCH_INDIRECT: 0.158
BRANCH_CONDITIONAL: 11.5
BRANCH_DIRECT_CALL: 0.0221
BRANCH_INDIRECT_CALL: 0.00278
BRANCH_RETURN: 0.0123

LLC TOTAL        ACCESS:    5471578 HIT:    2103647 MISS:    3367931
LLC LOAD         ACCESS:    1050039 HIT:     353217 MISS:     696822
LLC RFO          ACCESS:     551258 HIT:     214657 MISS:     336601
LLC PREFETCH     ACCESS:    2573943 HIT:     797620 MISS:    1776323
LLC WRITE        ACCESS:    1261924 HIT:     735110 MISS:     526814
LLC TRANSLATION  ACCESS:      34414 HIT:       3043 MISS:      31371
LLC PREFETCH REQUESTED:          0 ISSUED:          0 USEFUL:          0 USELESS:          0
LLC AVERAGE MISS LATENCY: 333.3 cycles
cpu0_DTLB TOTAL        ACCESS:   26284604 HIT:   25463868 MISS:     820736
cpu0_DTLB LOAD         ACCESS:   26284604 HIT:   25463868 MISS:     820736
cpu0_DTLB RFO          ACCESS:          0 HIT:          0 MISS:          0
cpu0_DTLB PREFETCH     ACCESS:          0 HIT:          0 MISS:          0
cpu0_DTLB WRITE        ACCESS:          0 HIT:          0 MISS:          0
cpu0_DTLB TRANSLATION  ACCESS:          0 HIT:          0 MISS:          0
cpu0_DTLB PREFETCH REQUESTED:          0 ISSUED:          0 USEFUL:          0 USELESS:          0
cpu0_DTLB AVERAGE MISS LATENCY: 21.76 cycles
cpu0_ITLB TOTAL        ACCESS:     133453 HIT:     131790 MISS:       1663
cpu0_ITLB LOAD         ACCESS:     133453 HIT:     131790 MISS:       1663
cpu0_ITLB RFO          ACCESS:          0 HIT:          0 MISS:          0
cpu0_ITLB PREFETCH     ACCESS:          0 HIT:          0 MISS:          0
cpu0_ITLB WRITE        ACCESS:          0 HIT:          0 MISS:          0
cpu0_ITLB TRANSLATION  ACCESS:          0 HIT:          0 MISS:          0
cpu0_ITLB PREFETCH REQUESTED:          0 ISSUED:          0 USEFUL:          0 USELESS:          0
cpu0_ITLB AVERAGE MISS LATENCY: 70.59 cycles
cpu0_L1D TOTAL        ACCESS:   48316799 HIT:   36963385 MISS:   11353414
cpu0_L1D LOAD         ACCESS:   16892424 HIT:   12628815 MISS:    4263609
cpu0_L1D RFO          ACCESS:          0 HIT:          0 MISS:          0
cpu0_L1D PREFETCH     ACCESS:   24207805 HIT:   19283619 MISS:    4924186
cpu0_L1D WRITE        ACCESS:    7118241 HIT:    5023177 MISS:    2095064
cpu0_L1D TRANSLATION  ACCESS:      98329 HIT:      27774 MISS:      70555
cpu0_L1D PREFETCH REQUESTED:  106247011 ISSUED:   24207793 USEFUL:     873936 USELESS:     163035
cpu0_L1D AVERAGE MISS LATENCY: 53.88 cycles
cpu0_L1I TOTAL        ACCESS:     193973 HIT:     153536 MISS:      40437
cpu0_L1I LOAD         ACCESS:      65026 HIT:      54274 MISS:      10752
cpu0_L1I RFO          ACCESS:          0 HIT:          0 MISS:          0
cpu0_L1I PREFETCH     ACCESS:     128947 HIT:      99262 MISS:      29685
cpu0_L1I WRITE        ACCESS:          0 HIT:          0 MISS:          0
cpu0_L1I TRANSLATION  ACCESS:          0 HIT:          0 MISS:          0
cpu0_L1I PREFETCH REQUESTED:     178887 ISSUED:     128947 USEFUL:      16902 USELESS:      10557
cpu0_L1I AVERAGE MISS LATENCY: 135.8 cycles
cpu0_L2C TOTAL        ACCESS:   17020962 HIT:   10094856 MISS:    6926106
cpu0_L2C LOAD         ACCESS:    2806320 HIT:    1541084 MISS:    1265236
cpu0_L2C RFO          ACCESS:     848195 HIT:     290427 MISS:     557768
cpu0_L2C PREFETCH     ACCESS:   11292027 HIT:    6223446 MISS:    5068581
cpu0_L2C WRITE        ACCESS:    2004465 HIT:    2004358 MISS:        107
cpu0_L2C TRANSLATION  ACCESS:      69955 HIT:      35541 MISS:      34414
cpu0_L2C PREFETCH REQUESTED:    7625468 ISSUED:    6869855 USEFUL:     812568 USELESS:     697171
cpu0_L2C AVERAGE MISS LATENCY: 169.8 cycles
cpu0_STLB TOTAL        ACCESS:     525547 HIT:     428104 MISS:      97443
cpu0_STLB LOAD         ACCESS:     525547 HIT:     428104 MISS:      97443
cpu0_STLB RFO          ACCESS:          0 HIT:          0 MISS:          0
cpu0_STLB PREFETCH     ACCESS:          0 HIT:          0 MISS:          0
cpu0_STLB WRITE        ACCESS:          0 HIT:          0 MISS:          0
cpu0_STLB TRANSLATION  ACCESS:          0 HIT:          0 MISS:          0
cpu0_STLB PREFETCH REQUESTED:          0 ISSUED:          0 USEFUL:          0 USELESS:          0
cpu0_STLB AVERAGE MISS LATENCY: 170 cycles

DRAM Statistics

Channel 0 RQ ROW_BUFFER_HIT:     475865
  ROW_BUFFER_MISS:     951295
 AVG DBUS CONGESTED CYCLE: 3.932
WQ ROW_BUFFER_HIT: Channel 0 
  ROW_BUFFER_MISS:      23600
  FULL:     312968

Channel 1 RQ ROW_BUFFER_HIT:     470041
  ROW_BUFFER_MISS:     942573
 AVG DBUS CONGESTED CYCLE: 3.929
WQ ROW_BUFFER_HIT: Channel 1 
  ROW_BUFFER_MISS:      24029
  FULL:     312371
BERTI TO_L1: 64322577 TO_L2: 63949122 TO_L2_BC_MSHR: 23409480
BERTI AVG_LAT: 122.172 NUM_TRACK_LATENCY: 5000936 NUM_CANT_TRACK_LATENCY: 789
BERTI CROSS_PAGE 18600270 NO_CROSS_PAGE: 109671429
BERTI FOUND_BERTI: 27508732 NO_FOUND_BERTI: 4433309
BERTI AVERAGE_ISSUED: 3.86519
CPU 0 L1I Entangling prefetcher final stats
IP accesses: 4512 114480 725 / 81018
IP misses: 4512 114480 713 / 26744
IP hits: 0 0 0 / 0
IP late: 5aed 16bb40 22 / 5575
IP wrong: 2172 85c80 26 / 10520
miss rate: 0.3301
coverage: 0
coverage_late: 0.208458
accuracy: 0
accuracy_late: 0.346381
discarded: 0
evicts entangled j table: 0
evicts entangled k table: 1575
max bb size: 65
formats: 449 0 1368 777 300 695 0 
hist_lookups: 1217 1303 982 830 730 655 571 447 337 266 208 138 89 55 19 0 0 3610 
hist_lookups_evict: 0 %
hist_lookups_shortlat: 31.5092 %
bb_found_hist: 0 15216 6825 3061 1283 667 282 117 109 37 21 7 12 14 3 0 18 0 0 0 0 0 0 0 0 0 0 0 0 0 0 0 0 0 0 0 0 0 0 0 0 0 0 0 0 0 0 0 0 2 0 0 0 0 0 0 0 0 0 0 0 0 0 0 
bb_found_summary: 51273 27674 1.85275
entangled_found_hist: 0 8779 5446 9708 2304 348 91 0 
entangled_found_summary: 60297 26676 2.26035
bb_ent_found_hist: 0 19776 11034 5376 2346 1461 783 297 227 64 66 6 0 8 0 0 1 0 0 0 0 0 0 0 0 0 0 0 0 0 0 0 0 0 0 0 0 0 0 0 0 0 0 0 0 0 0 0 0 3 0 0 0 0 0 0 0 0 0 0 0 0 0 0 
bb_ent_found_summary: 84823 41448 2.0465
