WARNING: physical memory size is smaller than virtual memory size.

*** ChampSim Multicore Out-of-Order Simulator ***
Warmup Instructions: 30000000
Simulation Instructions: 100000000
Number of CPUs: 1
Page size: 4096

BTB:
Basic BTB sets: 1024 ways: 8
Indirect:
history lengths: 0 0 10 16 27 44 60 96 109 219 449 487 714 1313 2146 3881 
ITTAGE tables: 64768 bytes;Region table: 240 bytes;IUM: 384 bytes;Total Storage= 65392 bytes;
RAS:
RAS size: 64
[LLC] INSTR Demand IPV: 1 2 2 1 4 Prefetch IPV: 1 2 1 1 4
[LLC] DATA  Demand IPV: 1 1 1 2 4 Prefetch IPV: 1 1 2 2 4
Berti Prefetcher
CPU 0 Entangling prefetcher
Off-chip DRAM Size: 8 GiB Channels: 2 Width: 64-bit Data Race: 6400 MT/s
[DUEL] Epoch ended. INSTR misses = 23, DATA misses = 6. Winner = DATA
[DUEL] Epoch ended. INSTR misses = 122, DATA misses = 101. Winner = DATA
[DUEL] Epoch ended. INSTR misses = 24, DATA misses = 34. Winner = INSTR
[DUEL] Epoch ended. INSTR misses = 74, DATA misses = 17. Winner = DATA
[DUEL] Epoch ended. INSTR misses = 136, DATA misses = 16. Winner = DATA
[DUEL] Epoch ended. INSTR misses = 130, DATA misses = 16. Winner = DATA
[DUEL] Epoch ended. INSTR misses = 117, DATA misses = 0. Winner = DATA
[DUEL] Epoch ended. INSTR misses = 128, DATA misses = 16. Winner = DATA
[DUEL] Epoch ended. INSTR misses = 176, DATA misses = 58. Winner = DATA
[DUEL] Epoch ended. INSTR misses = 167, DATA misses = 60. Winner = DATA
[DUEL] Epoch ended. INSTR misses = 120, DATA misses = 13. Winner = DATA
[DUEL] Epoch ended. INSTR misses = 164, DATA misses = 63. Winner = DATA
[DUEL] Epoch ended. INSTR misses = 159, DATA misses = 46. Winner = DATA
[DUEL] Epoch ended. INSTR misses = 129, DATA misses = 16. Winner = DATA
[DUEL] Epoch ended. INSTR misses = 132, DATA misses = 16. Winner = DATA
[DUEL] Epoch ended. INSTR misses = 141, DATA misses = 30. Winner = DATA
[DUEL] Epoch ended. INSTR misses = 143, DATA misses = 32. Winner = DATA
[DUEL] Epoch ended. INSTR misses = 140, DATA misses = 32. Winner = DATA
[DUEL] Epoch ended. INSTR misses = 138, DATA misses = 32. Winner = DATA
[DUEL] Epoch ended. INSTR misses = 179, DATA misses = 74. Winner = DATA
[DUEL] Epoch ended. INSTR misses = 145, DATA misses = 32. Winner = DATA
[DUEL] Epoch ended. INSTR misses = 155, DATA misses = 48. Winner = DATA
[DUEL] Epoch ended. INSTR misses = 133, DATA misses = 16. Winner = DATA
[DUEL] Epoch ended. INSTR misses = 164, DATA misses = 63. Winner = DATA
[DUEL] Epoch ended. INSTR misses = 136, DATA misses = 16. Winner = DATA
[DUEL] Epoch ended. INSTR misses = 157, DATA misses = 48. Winner = DATA
[DUEL] Epoch ended. INSTR misses = 141, DATA misses = 37. Winner = DATA
[DUEL] Epoch ended. INSTR misses = 139, DATA misses = 26. Winner = DATA
[DUEL] Epoch ended. INSTR misses = 119, DATA misses = 0. Winner = DATA
[DUEL] Epoch ended. INSTR misses = 156, DATA misses = 47. Winner = DATA
[DUEL] Epoch ended. INSTR misses = 133, DATA misses = 16. Winner = DATA
[DUEL] Epoch ended. INSTR misses = 130, DATA misses = 15. Winner = DATA
[DUEL] Epoch ended. INSTR misses = 119, DATA misses = 0. Winner = DATA
[DUEL] Epoch ended. INSTR misses = 147, DATA misses = 45. Winner = DATA
[DUEL] Epoch ended. INSTR misses = 157, DATA misses = 46. Winner = DATA
[DUEL] Epoch ended. INSTR misses = 119, DATA misses = 0. Winner = DATA
[DUEL] Epoch ended. INSTR misses = 162, DATA misses = 46. Winner = DATA
[DUEL] Epoch ended. INSTR misses = 66, DATA misses = 61. Winner = DATA
[DUEL] Epoch ended. INSTR misses = 75, DATA misses = 78. Winner = INSTR
Heartbeat CPU 0 instructions: 10000005 cycles: 1716404 heartbeat IPC: 5.826 cumulative IPC: 5.826 (Simulation time: 00 hr 00 min 28 sec)
[DUEL] Epoch ended. INSTR misses = 121, DATA misses = 0. Winner = DATA
[DUEL] Epoch ended. INSTR misses = 150, DATA misses = 42. Winner = DATA
[DUEL] Epoch ended. INSTR misses = 193, DATA misses = 78. Winner = DATA
[DUEL] Epoch ended. INSTR misses = 118, DATA misses = 0. Winner = DATA
[DUEL] Epoch ended. INSTR misses = 135, DATA misses = 32. Winner = DATA
[DUEL] Epoch ended. INSTR misses = 198, DATA misses = 94. Winner = DATA
[DUEL] Epoch ended. INSTR misses = 149, DATA misses = 32. Winner = DATA
[DUEL] Epoch ended. INSTR misses = 161, DATA misses = 64. Winner = DATA
[DUEL] Epoch ended. INSTR misses = 133, DATA misses = 15. Winner = DATA
[DUEL] Epoch ended. INSTR misses = 151, DATA misses = 43. Winner = DATA
[DUEL] Epoch ended. INSTR misses = 117, DATA misses = 0. Winner = DATA
[DUEL] Epoch ended. INSTR misses = 140, DATA misses = 31. Winner = DATA
[DUEL] Epoch ended. INSTR misses = 122, DATA misses = 0. Winner = DATA
[DUEL] Epoch ended. INSTR misses = 132, DATA misses = 16. Winner = DATA
[DUEL] Epoch ended. INSTR misses = 146, DATA misses = 29. Winner = DATA
[DUEL] Epoch ended. INSTR misses = 133, DATA misses = 14. Winner = DATA
[DUEL] Epoch ended. INSTR misses = 139, DATA misses = 31. Winner = DATA
[DUEL] Epoch ended. INSTR misses = 142, DATA misses = 31. Winner = DATA
[DUEL] Epoch ended. INSTR misses = 140, DATA misses = 31. Winner = DATA
[DUEL] Epoch ended. INSTR misses = 169, DATA misses = 59. Winner = DATA
[DUEL] Epoch ended. INSTR misses = 130, DATA misses = 16. Winner = DATA
[DUEL] Epoch ended. INSTR misses = 128, DATA misses = 16. Winner = DATA
[DUEL] Epoch ended. INSTR misses = 160, DATA misses = 46. Winner = DATA
[DUEL] Epoch ended. INSTR misses = 133, DATA misses = 16. Winner = DATA
[DUEL] Epoch ended. INSTR misses = 167, DATA misses = 48. Winner = DATA
[DUEL] Epoch ended. INSTR misses = 145, DATA misses = 31. Winner = DATA
[DUEL] Epoch ended. INSTR misses = 135, DATA misses = 32. Winner = DATA
[DUEL] Epoch ended. INSTR misses = 152, DATA misses = 48. Winner = DATA
[DUEL] Epoch ended. INSTR misses = 149, DATA misses = 31. Winner = DATA
[DUEL] Epoch ended. INSTR misses = 150, DATA misses = 47. Winner = DATA
[DUEL] Epoch ended. INSTR misses = 172, DATA misses = 64. Winner = DATA
[DUEL] Epoch ended. INSTR misses = 128, DATA misses = 16. Winner = DATA
[DUEL] Epoch ended. INSTR misses = 147, DATA misses = 32. Winner = DATA
[DUEL] Epoch ended. INSTR misses = 160, DATA misses = 48. Winner = DATA
[DUEL] Epoch ended. INSTR misses = 130, DATA misses = 32. Winner = DATA
[DUEL] Epoch ended. INSTR misses = 145, DATA misses = 26. Winner = DATA
[DUEL] Epoch ended. INSTR misses = 172, DATA misses = 60. Winner = DATA
[DUEL] Epoch ended. INSTR misses = 108, DATA misses = 0. Winner = DATA
[DUEL] Epoch ended. INSTR misses = 162, DATA misses = 44. Winner = DATA
Heartbeat CPU 0 instructions: 20000004 cycles: 3383904 heartbeat IPC: 5.997 cumulative IPC: 5.91 (Simulation time: 00 hr 00 min 56 sec)
[DUEL] Epoch ended. INSTR misses = 157, DATA misses = 32. Winner = DATA
[DUEL] Epoch ended. INSTR misses = 131, DATA misses = 30. Winner = DATA
[DUEL] Epoch ended. INSTR misses = 131, DATA misses = 32. Winner = DATA
[DUEL] Epoch ended. INSTR misses = 115, DATA misses = 14. Winner = DATA
[DUEL] Epoch ended. INSTR misses = 179, DATA misses = 64. Winner = DATA
[DUEL] Epoch ended. INSTR misses = 134, DATA misses = 16. Winner = DATA
[DUEL] Epoch ended. INSTR misses = 124, DATA misses = 0. Winner = DATA
[DUEL] Epoch ended. INSTR misses = 150, DATA misses = 32. Winner = DATA
[DUEL] Epoch ended. INSTR misses = 141, DATA misses = 0. Winner = DATA
[DUEL] Epoch ended. INSTR misses = 161, DATA misses = 48. Winner = DATA
[DUEL] Epoch ended. INSTR misses = 157, DATA misses = 16. Winner = DATA
[DUEL] Epoch ended. INSTR misses = 148, DATA misses = 16. Winner = DATA
[DUEL] Epoch ended. INSTR misses = 157, DATA misses = 32. Winner = DATA
[DUEL] Epoch ended. INSTR misses = 155, DATA misses = 16. Winner = DATA
[DUEL] Epoch ended. INSTR misses = 159, DATA misses = 28. Winner = DATA
[DUEL] Epoch ended. INSTR misses = 139, DATA misses = 0. Winner = DATA
[DUEL] Epoch ended. INSTR misses = 143, DATA misses = 0. Winner = DATA
[DUEL] Epoch ended. INSTR misses = 158, DATA misses = 16. Winner = DATA
[DUEL] Epoch ended. INSTR misses = 143, DATA misses = 0. Winner = DATA
[DUEL] Epoch ended. INSTR misses = 136, DATA misses = 0. Winner = DATA
[DUEL] Epoch ended. INSTR misses = 155, DATA misses = 16. Winner = DATA
[DUEL] Epoch ended. INSTR misses = 160, DATA misses = 25. Winner = DATA
[DUEL] Epoch ended. INSTR misses = 159, DATA misses = 15. Winner = DATA
[DUEL] Epoch ended. INSTR misses = 151, DATA misses = 12. Winner = DATA
[DUEL] Epoch ended. INSTR misses = 158, DATA misses = 16. Winner = DATA
[DUEL] Epoch ended. INSTR misses = 136, DATA misses = 0. Winner = DATA
[DUEL] Epoch ended. INSTR misses = 179, DATA misses = 44. Winner = DATA
[DUEL] Epoch ended. INSTR misses = 131, DATA misses = 0. Winner = DATA
[DUEL] Epoch ended. INSTR misses = 159, DATA misses = 30. Winner = DATA
[DUEL] Epoch ended. INSTR misses = 143, DATA misses = 0. Winner = DATA
[DUEL] Epoch ended. INSTR misses = 145, DATA misses = 29. Winner = DATA
[DUEL] Epoch ended. INSTR misses = 163, DATA misses = 32. Winner = DATA
[DUEL] Epoch ended. INSTR misses = 148, DATA misses = 16. Winner = DATA
[DUEL] Epoch ended. INSTR misses = 140, DATA misses = 0. Winner = DATA
[DUEL] Epoch ended. INSTR misses = 149, DATA misses = 15. Winner = DATA
[DUEL] Epoch ended. INSTR misses = 169, DATA misses = 27. Winner = DATA
[DUEL] Epoch ended. INSTR misses = 158, DATA misses = 16. Winner = DATA
[DUEL] Epoch ended. INSTR misses = 169, DATA misses = 46. Winner = DATA
[DUEL] Epoch ended. INSTR misses = 164, DATA misses = 16. Winner = DATA
Heartbeat CPU 0 instructions: 30000001 cycles: 5051690 heartbeat IPC: 5.996 cumulative IPC: 5.939 (Simulation time: 00 hr 01 min 23 sec)
Warmup finished CPU 0 instructions: 30000001 cycles: 5051691 cumulative IPC: 5.939 (Simulation time: 00 hr 01 min 23 sec)
Warmup complete CPU 0 instructions: 30000001 cycles: 5051691 cumulative IPC: 5.939 (Simulation time: 00 hr 01 min 23 sec)
[DUEL] Epoch ended. INSTR misses = 141, DATA misses = 0. Winner = DATA
[DUEL] Epoch ended. INSTR misses = 198, DATA misses = 47. Winner = DATA
[DUEL] Epoch ended. INSTR misses = 166, DATA misses = 16. Winner = DATA
[DUEL] Epoch ended. INSTR misses = 160, DATA misses = 16. Winner = DATA
[DUEL] Epoch ended. INSTR misses = 171, DATA misses = 32. Winner = DATA
[DUEL] Epoch ended. INSTR misses = 177, DATA misses = 16. Winner = DATA
[DUEL] Epoch ended. INSTR misses = 164, DATA misses = 15. Winner = DATA
[DUEL] Epoch ended. INSTR misses = 184, DATA misses = 31. Winner = DATA
[DUEL] Epoch ended. INSTR misses = 181, DATA misses = 16. Winner = DATA
[DUEL] Epoch ended. INSTR misses = 159, DATA misses = 15. Winner = DATA
[DUEL] Epoch ended. INSTR misses = 146, DATA misses = 0. Winner = DATA
[DUEL] Epoch ended. INSTR misses = 174, DATA misses = 16. Winner = DATA
[DUEL] Epoch ended. INSTR misses = 160, DATA misses = 0. Winner = DATA
[DUEL] Epoch ended. INSTR misses = 177, DATA misses = 29. Winner = DATA
[DUEL] Epoch ended. INSTR misses = 175, DATA misses = 0. Winner = DATA
[DUEL] Epoch ended. INSTR misses = 165, DATA misses = 30. Winner = DATA
[DUEL] Epoch ended. INSTR misses = 180, DATA misses = 16. Winner = DATA
[DUEL] Epoch ended. INSTR misses = 162, DATA misses = 0. Winner = DATA
[DUEL] Epoch ended. INSTR misses = 162, DATA misses = 0. Winner = DATA
[DUEL] Epoch ended. INSTR misses = 175, DATA misses = 30. Winner = DATA
[DUEL] Epoch ended. INSTR misses = 191, DATA misses = 29. Winner = DATA
[DUEL] Epoch ended. INSTR misses = 157, DATA misses = 0. Winner = DATA
[DUEL] Epoch ended. INSTR misses = 176, DATA misses = 16. Winner = DATA
[DUEL] Epoch ended. INSTR misses = 219, DATA misses = 127. Winner = DATA
[DUEL] Epoch ended. INSTR misses = 512, DATA misses = 512. Winner = INSTR
[DUEL] Epoch ended. INSTR misses = 320, DATA misses = 240. Winner = DATA
[DUEL] Epoch ended. INSTR misses = 166, DATA misses = 48. Winner = DATA
[DUEL] Epoch ended. INSTR misses = 167, DATA misses = 48. Winner = DATA
[DUEL] Epoch ended. INSTR misses = 155, DATA misses = 48. Winner = DATA
[DUEL] Epoch ended. INSTR misses = 163, DATA misses = 48. Winner = DATA
[DUEL] Epoch ended. INSTR misses = 163, DATA misses = 48. Winner = DATA
[DUEL] Epoch ended. INSTR misses = 146, DATA misses = 28. Winner = DATA
[DUEL] Epoch ended. INSTR misses = 153, DATA misses = 32. Winner = DATA
[DUEL] Epoch ended. INSTR misses = 152, DATA misses = 32. Winner = DATA
[DUEL] Epoch ended. INSTR misses = 147, DATA misses = 32. Winner = DATA
[DUEL] Epoch ended. INSTR misses = 123, DATA misses = 0. Winner = DATA
[DUEL] Epoch ended. INSTR misses = 154, DATA misses = 31. Winner = DATA
[DUEL] Epoch ended. INSTR misses = 152, DATA misses = 32. Winner = DATA
[DUEL] Epoch ended. INSTR misses = 135, DATA misses = 15. Winner = DATA
Heartbeat CPU 0 instructions: 40000007 cycles: 34004106 heartbeat IPC: 0.3454 cumulative IPC: 0.3454 (Simulation time: 00 hr 05 min 10 sec)
[DUEL] Epoch ended. INSTR misses = 183, DATA misses = 64. Winner = DATA
[DUEL] Epoch ended. INSTR misses = 147, DATA misses = 32. Winner = DATA
[DUEL] Epoch ended. INSTR misses = 122, DATA misses = 16. Winner = DATA
[DUEL] Epoch ended. INSTR misses = 166, DATA misses = 48. Winner = DATA
[cpu0_PTW_MSHR] entry:   0 address: 0x15f38880 v_addr: 0x9310880 translation_level: 0 event_cycle: 18446744073709551615

DRAM Channel 0
[RQ] entry:   0 empty
[RQ] entry:   1 empty
[RQ] entry:   2 empty
[RQ] entry:   3 empty
[RQ] entry:   4 empty
[RQ] entry:   5 empty
[RQ] entry:   6 empty
[RQ] entry:   7 empty
[RQ] entry:   8 empty
[RQ] entry:   9 empty
[RQ] entry:  10 empty
[RQ] entry:  11 empty
[RQ] entry:  12 empty
[RQ] entry:  13 empty
[RQ] entry:  14 empty
[RQ] entry:  15 empty
[RQ] entry:  16 empty
[RQ] entry:  17 empty
[RQ] entry:  18 empty
[RQ] entry:  19 empty
[RQ] entry:  20 empty
[RQ] entry:  21 empty
[RQ] entry:  22 empty
[RQ] entry:  23 empty
[RQ] entry:  24 empty
[RQ] entry:  25 empty
[RQ] entry:  26 empty
[RQ] entry:  27 empty
[RQ] entry:  28 empty
[RQ] entry:  29 empty
[RQ] entry:  30 empty
[RQ] entry:  31 empty
[RQ] entry:  32 empty
[RQ] entry:  33 empty
[RQ] entry:  34 empty
[RQ] entry:  35 empty
[RQ] entry:  36 empty
[RQ] entry:  37 empty
[RQ] entry:  38 empty
[RQ] entry:  39 empty
[RQ] entry:  40 empty
[RQ] entry:  41 empty
[RQ] entry:  42 empty
[RQ] entry:  43 empty
[RQ] entry:  44 empty
[RQ] entry:  45 empty
[RQ] entry:  46 empty
[RQ] entry:  47 empty
[RQ] entry:  48 empty
[RQ] entry:  49 empty
[RQ] entry:  50 empty
[RQ] entry:  51 empty
[RQ] entry:  52 empty
[RQ] entry:  53 empty
[RQ] entry:  54 empty
[RQ] entry:  55 empty
[RQ] entry:  56 empty
[RQ] entry:  57 empty
[RQ] entry:  58 empty
[RQ] entry:  59 empty
[RQ] entry:  60 empty
[RQ] entry:  61 empty
[RQ] entry:  62 empty
[RQ] entry:  63 empty

[WQ] entry:   0 empty
[WQ] entry:   1 empty
[WQ] entry:   2 empty
[WQ] entry:   3 empty
[WQ] entry:   4 empty
[WQ] entry:   5 empty
[WQ] entry:   6 empty
[WQ] entry:   7 empty
[WQ] entry:   8 empty
[WQ] entry:   9 empty
[WQ] entry:  10 empty
[WQ] entry:  11 empty
[WQ] entry:  12 empty
[WQ] entry:  13 empty
[WQ] entry:  14 empty
[WQ] entry:  15 empty
[WQ] entry:  16 empty
[WQ] entry:  17 empty
[WQ] entry:  18 empty
[WQ] entry:  19 empty
[WQ] entry:  20 empty
[WQ] entry:  21 empty
[WQ] entry:  22 empty
[WQ] entry:  23 empty
[WQ] entry:  24 empty
[WQ] entry:  25 empty
[WQ] entry:  26 empty
[WQ] entry:  27 empty
[WQ] entry:  28 empty
[WQ] entry:  29 empty
[WQ] entry:  30 empty
[WQ] entry:  31 empty
[WQ] entry:  32 empty
[WQ] entry:  33 empty
[WQ] entry:  34 empty
[WQ] entry:  35 empty
[WQ] entry:  36 empty
[WQ] entry:  37 empty
[WQ] entry:  38 empty
[WQ] entry:  39 empty
[WQ] entry:  40 empty
[WQ] entry:  41 empty
[WQ] entry:  42 empty
[WQ] entry:  43 empty
[WQ] entry:  44 empty
[WQ] entry:  45 empty
[WQ] entry:  46 empty
[WQ] entry:  47 empty
[WQ] entry:  48 empty
[WQ] entry:  49 empty
[WQ] entry:  50 empty
[WQ] entry:  51 empty
[WQ] entry:  52 empty
[WQ] entry:  53 empty
[WQ] entry:  54 empty
[WQ] entry:  55 empty
[WQ] entry:  56 empty
[WQ] entry:  57 empty
[WQ] entry:  58 empty
[WQ] entry:  59 empty
[WQ] entry:  60 empty
[WQ] entry:  61 empty
[WQ] entry:  62 empty
[WQ] entry:  63 empty

DRAM Channel 1
[RQ] entry:   0 empty
[RQ] entry:   1 empty
[RQ] entry:   2 empty
[RQ] entry:   3 empty
[RQ] entry:   4 empty
[RQ] entry:   5 empty
[RQ] entry:   6 empty
[RQ] entry:   7 empty
[RQ] entry:   8 empty
[RQ] entry:   9 empty
[RQ] entry:  10 empty
[RQ] entry:  11 empty
[RQ] entry:  12 empty
[RQ] entry:  13 empty
[RQ] entry:  14 empty
[RQ] entry:  15 empty
[RQ] entry:  16 empty
[RQ] entry:  17 empty
[RQ] entry:  18 empty
[RQ] entry:  19 empty
[RQ] entry:  20 empty
[RQ] entry:  21 empty
[RQ] entry:  22 empty
[RQ] entry:  23 empty
[RQ] entry:  24 empty
[RQ] entry:  25 empty
[RQ] entry:  26 empty
[RQ] entry:  27 empty
[RQ] entry:  28 empty
[RQ] entry:  29 empty
[RQ] entry:  30 empty
[RQ] entry:  31 empty
[RQ] entry:  32 empty
[RQ] entry:  33 empty
[RQ] entry:  34 empty
[RQ] entry:  35 empty
[RQ] entry:  36 empty
[RQ] entry:  37 empty
[RQ] entry:  38 empty
[RQ] entry:  39 empty
[RQ] entry:  40 empty
[RQ] entry:  41 empty
[RQ] entry:  42 empty
[RQ] entry:  43 empty
[RQ] entry:  44 empty
[RQ] entry:  45 empty
[RQ] entry:  46 empty
[RQ] entry:  47 empty
[RQ] entry:  48 empty
[RQ] entry:  49 empty
[RQ] entry:  50 empty
[RQ] entry:  51 empty
[RQ] entry:  52 empty
[RQ] entry:  53 empty
[RQ] entry:  54 empty
[RQ] entry:  55 empty
[RQ] entry:  56 empty
[RQ] entry:  57 empty
[RQ] entry:  58 empty
[RQ] entry:  59 empty
[RQ] entry:  60 empty
[RQ] entry:  61 empty
[RQ] entry:  62 empty
[RQ] entry:  63 empty

[WQ] entry:   0 empty
[WQ] entry:   1 empty
[WQ] entry:   2 empty
[WQ] entry:   3 empty
[WQ] entry:   4 empty
[WQ] entry:   5 empty
[WQ] entry:   6 empty
[WQ] entry:   7 empty
[WQ] entry:   8 empty
[WQ] entry:   9 empty
[WQ] entry:  10 empty
[WQ] entry:  11 empty
[WQ] entry:  12 empty
[WQ] entry:  13 empty
[WQ] entry:  14 empty
[WQ] entry:  15 empty
[WQ] entry:  16 empty
[WQ] entry:  17 empty
[WQ] entry:  18 empty
[WQ] entry:  19 empty
[WQ] entry:  20 empty
[WQ] entry:  21 empty
[WQ] entry:  22 empty
[WQ] entry:  23 empty
[WQ] entry:  24 empty
[WQ] entry:  25 empty
[WQ] entry:  26 empty
[WQ] entry:  27 empty
[WQ] entry:  28 empty
[WQ] entry:  29 empty
[WQ] entry:  30 empty
[WQ] entry:  31 empty
[WQ] entry:  32 empty
[WQ] entry:  33 empty
[WQ] entry:  34 empty
[WQ] entry:  35 empty
[WQ] entry:  36 empty
[WQ] entry:  37 empty
[WQ] entry:  38 empty
[WQ] entry:  39 empty
[WQ] entry:  40 empty
[WQ] entry:  41 empty
[WQ] entry:  42 empty
[WQ] entry:  43 empty
[WQ] entry:  44 empty
[WQ] entry:  45 empty
[WQ] entry:  46 empty
[WQ] entry:  47 empty
[WQ] entry:  48 empty
[WQ] entry:  49 empty
[WQ] entry:  50 empty
[WQ] entry:  51 empty
[WQ] entry:  52 empty
[WQ] entry:  53 empty
[WQ] entry:  54 empty
[WQ] entry:  55 empty
[WQ] entry:  56 empty
[WQ] entry:  57 empty
[WQ] entry:  58 empty
[WQ] entry:  59 empty
[WQ] entry:  60 empty
[WQ] entry:  61 empty
[WQ] entry:  62 empty
[WQ] entry:  63 empty

DEADLOCK! CPU 0 cycle 36500809
[cpu0_IFETCH] entry:   0 instr_id: 41119181 fetched: 2 scheduled: 0 executed: 0 num_reg_dependent: 0 num_mem_ops: 0 event: 36496386
[cpu0_IFETCH] entry:   1 instr_id: 41119182 fetched: 2 scheduled: 0 executed: 0 num_reg_dependent: 0 num_mem_ops: 0 event: 36496386
[cpu0_IFETCH] entry:   2 instr_id: 41119183 fetched: 2 scheduled: 0 executed: 0 num_reg_dependent: 0 num_mem_ops: 0 event: 36496386
[cpu0_IFETCH] entry:   3 instr_id: 41119184 fetched: 2 scheduled: 0 executed: 0 num_reg_dependent: 0 num_mem_ops: 0 event: 36496386
[cpu0_IFETCH] entry:   4 instr_id: 41119185 fetched: 2 scheduled: 0 executed: 0 num_reg_dependent: 0 num_mem_ops: 0 event: 36496386
[cpu0_IFETCH] entry:   5 instr_id: 41119186 fetched: 2 scheduled: 0 executed: 0 num_reg_dependent: 0 num_mem_ops: 0 event: 36496386
[cpu0_IFETCH] entry:   6 instr_id: 41119187 fetched: 2 scheduled: 0 executed: 0 num_reg_dependent: 0 num_mem_ops: 0 event: 36496387
[cpu0_IFETCH] entry:   7 instr_id: 41119188 fetched: 2 scheduled: 0 executed: 0 num_reg_dependent: 0 num_mem_ops: 0 event: 36496387
[cpu0_IFETCH] entry:   8 instr_id: 41119189 fetched: 2 scheduled: 0 executed: 0 num_reg_dependent: 0 num_mem_ops: 0 event: 36496387
[cpu0_IFETCH] entry:   9 instr_id: 41119190 fetched: 2 scheduled: 0 executed: 0 num_reg_dependent: 0 num_mem_ops: 0 event: 36496387
[cpu0_IFETCH] entry:  10 instr_id: 41119191 fetched: 2 scheduled: 0 executed: 0 num_reg_dependent: 0 num_mem_ops: 0 event: 36496387
[cpu0_IFETCH] entry:  11 instr_id: 41119192 fetched: 2 scheduled: 0 executed: 0 num_reg_dependent: 0 num_mem_ops: 0 event: 36496387
[cpu0_IFETCH] entry:  12 instr_id: 41119193 fetched: 2 scheduled: 0 executed: 0 num_reg_dependent: 0 num_mem_ops: 0 event: 36496388
[cpu0_IFETCH] entry:  13 instr_id: 41119194 fetched: 2 scheduled: 0 executed: 0 num_reg_dependent: 0 num_mem_ops: 0 event: 36496388
[cpu0_IFETCH] entry:  14 instr_id: 41119195 fetched: 2 scheduled: 0 executed: 0 num_reg_dependent: 0 num_mem_ops: 1 event: 36496388
[cpu0_IFETCH] entry:  15 instr_id: 41119196 fetched: 2 scheduled: 0 executed: 0 num_reg_dependent: 0 num_mem_ops: 1 event: 36496388
[cpu0_IFETCH] entry:  16 instr_id: 41119197 fetched: 2 scheduled: 0 executed: 0 num_reg_dependent: 0 num_mem_ops: 1 event: 36496388
[cpu0_IFETCH] entry:  17 instr_id: 41119198 fetched: 2 scheduled: 0 executed: 0 num_reg_dependent: 0 num_mem_ops: 1 event: 36496388
[cpu0_IFETCH] entry:  18 instr_id: 41119199 fetched: 2 scheduled: 0 executed: 0 num_reg_dependent: 0 num_mem_ops: 0 event: 36496389
[cpu0_IFETCH] entry:  19 instr_id: 41119200 fetched: 2 scheduled: 0 executed: 0 num_reg_dependent: 0 num_mem_ops: 0 event: 36496389
[cpu0_IFETCH] entry:  20 instr_id: 41119201 fetched: 2 scheduled: 0 executed: 0 num_reg_dependent: 0 num_mem_ops: 0 event: 36496389
[cpu0_IFETCH] entry:  21 instr_id: 41119202 fetched: 2 scheduled: 0 executed: 0 num_reg_dependent: 0 num_mem_ops: 0 event: 36496389
[cpu0_IFETCH] entry:  22 instr_id: 41119203 fetched: 2 scheduled: 0 executed: 0 num_reg_dependent: 0 num_mem_ops: 0 event: 36496389
[cpu0_IFETCH] entry:  23 instr_id: 41119204 fetched: 2 scheduled: 0 executed: 0 num_reg_dependent: 0 num_mem_ops: 0 event: 36496389
[cpu0_IFETCH] entry:  24 instr_id: 41119205 fetched: 2 scheduled: 0 executed: 0 num_reg_dependent: 0 num_mem_ops: 0 event: 36496390
[cpu0_IFETCH] entry:  25 instr_id: 41119206 fetched: 2 scheduled: 0 executed: 0 num_reg_dependent: 0 num_mem_ops: 0 event: 36496390
[cpu0_IFETCH] entry:  26 instr_id: 41119207 fetched: 2 scheduled: 0 executed: 0 num_reg_dependent: 0 num_mem_ops: 0 event: 36496390
[cpu0_IFETCH] entry:  27 instr_id: 41119208 fetched: 2 scheduled: 0 executed: 0 num_reg_dependent: 0 num_mem_ops: 0 event: 36496390
[cpu0_IFETCH] entry:  28 instr_id: 41119209 fetched: 2 scheduled: 0 executed: 0 num_reg_dependent: 0 num_mem_ops: 0 event: 36496390
[cpu0_IFETCH] entry:  29 instr_id: 41119210 fetched: 2 scheduled: 0 executed: 0 num_reg_dependent: 0 num_mem_ops: 0 event: 36496390
[cpu0_IFETCH] entry:  30 instr_id: 41119211 fetched: 2 scheduled: 0 executed: 0 num_reg_dependent: 0 num_mem_ops: 0 event: 36496391
[cpu0_IFETCH] entry:  31 instr_id: 41119212 fetched: 2 scheduled: 0 executed: 0 num_reg_dependent: 0 num_mem_ops: 0 event: 36496391
[cpu0_IFETCH] entry:  32 instr_id: 41119213 fetched: 2 scheduled: 0 executed: 0 num_reg_dependent: 0 num_mem_ops: 0 event: 36496391
[cpu0_IFETCH] entry:  33 instr_id: 41119214 fetched: 2 scheduled: 0 executed: 0 num_reg_dependent: 0 num_mem_ops: 0 event: 36496391
[cpu0_IFETCH] entry:  34 instr_id: 41119215 fetched: 2 scheduled: 0 executed: 0 num_reg_dependent: 0 num_mem_ops: 1 event: 36496391
[cpu0_IFETCH] entry:  35 instr_id: 41119216 fetched: 2 scheduled: 0 executed: 0 num_reg_dependent: 0 num_mem_ops: 1 event: 36496391
[cpu0_IFETCH] entry:  36 instr_id: 41119217 fetched: 2 scheduled: 0 executed: 0 num_reg_dependent: 0 num_mem_ops: 1 event: 36496392
[cpu0_IFETCH] entry:  37 instr_id: 41119218 fetched: 2 scheduled: 0 executed: 0 num_reg_dependent: 0 num_mem_ops: 1 event: 36496392
[cpu0_IFETCH] entry:  38 instr_id: 41119219 fetched: 2 scheduled: 0 executed: 0 num_reg_dependent: 0 num_mem_ops: 0 event: 36496392
[cpu0_IFETCH] entry:  39 instr_id: 41119220 fetched: 2 scheduled: 0 executed: 0 num_reg_dependent: 0 num_mem_ops: 0 event: 36496392
[cpu0_IFETCH] entry:  40 instr_id: 41119221 fetched: 2 scheduled: 0 executed: 0 num_reg_dependent: 0 num_mem_ops: 0 event: 36496392
[cpu0_IFETCH] entry:  41 instr_id: 41119222 fetched: 2 scheduled: 0 executed: 0 num_reg_dependent: 0 num_mem_ops: 0 event: 36496392
[cpu0_IFETCH] entry:  42 instr_id: 41119223 fetched: 2 scheduled: 0 executed: 0 num_reg_dependent: 0 num_mem_ops: 0 event: 36496393
[cpu0_IFETCH] entry:  43 instr_id: 41119224 fetched: 2 scheduled: 0 executed: 0 num_reg_dependent: 0 num_mem_ops: 0 event: 36496393
[cpu0_IFETCH] entry:  44 instr_id: 41119225 fetched: 2 scheduled: 0 executed: 0 num_reg_dependent: 0 num_mem_ops: 0 event: 36496393
[cpu0_IFETCH] entry:  45 instr_id: 41119226 fetched: 2 scheduled: 0 executed: 0 num_reg_dependent: 0 num_mem_ops: 0 event: 36496393
[cpu0_IFETCH] entry:  46 instr_id: 41119227 fetched: 2 scheduled: 0 executed: 0 num_reg_dependent: 0 num_mem_ops: 0 event: 36496393
[cpu0_IFETCH] entry:  47 instr_id: 41119228 fetched: 2 scheduled: 0 executed: 0 num_reg_dependent: 0 num_mem_ops: 0 event: 36496393
[cpu0_IFETCH] entry:  48 instr_id: 41119229 fetched: 2 scheduled: 0 executed: 0 num_reg_dependent: 0 num_mem_ops: 0 event: 36496394
[cpu0_IFETCH] entry:  49 instr_id: 41119230 fetched: 2 scheduled: 0 executed: 0 num_reg_dependent: 0 num_mem_ops: 0 event: 36496394
[cpu0_IFETCH] entry:  50 instr_id: 41119231 fetched: 2 scheduled: 0 executed: 0 num_reg_dependent: 0 num_mem_ops: 0 event: 36496394
[cpu0_IFETCH] entry:  51 instr_id: 41119232 fetched: 2 scheduled: 0 executed: 0 num_reg_dependent: 0 num_mem_ops: 0 event: 36496394
[cpu0_IFETCH] entry:  52 instr_id: 41119233 fetched: 2 scheduled: 0 executed: 0 num_reg_dependent: 0 num_mem_ops: 0 event: 36496394
[cpu0_IFETCH] entry:  53 instr_id: 41119234 fetched: 2 scheduled: 0 executed: 0 num_reg_dependent: 0 num_mem_ops: 0 event: 36496394
[cpu0_IFETCH] entry:  54 instr_id: 41119235 fetched: 2 scheduled: 0 executed: 0 num_reg_dependent: 0 num_mem_ops: 0 event: 36496395
[cpu0_IFETCH] entry:  55 instr_id: 41119236 fetched: 2 scheduled: 0 executed: 0 num_reg_dependent: 0 num_mem_ops: 1 event: 36496395
[cpu0_IFETCH] entry:  56 instr_id: 41119237 fetched: 2 scheduled: 0 executed: 0 num_reg_dependent: 0 num_mem_ops: 0 event: 36496395
[cpu0_IFETCH] entry:  57 instr_id: 41119238 fetched: 2 scheduled: 0 executed: 0 num_reg_dependent: 0 num_mem_ops: 1 event: 36496396
[cpu0_IFETCH] entry:  58 instr_id: 41119239 fetched: 2 scheduled: 0 executed: 0 num_reg_dependent: 0 num_mem_ops: 0 event: 36496396
[cpu0_IFETCH] entry:  59 instr_id: 41119240 fetched: 2 scheduled: 0 executed: 0 num_reg_dependent: 0 num_mem_ops: 1 event: 36496396
[cpu0_IFETCH] entry:  60 instr_id: 41119241 fetched: 2 scheduled: 0 executed: 0 num_reg_dependent: 0 num_mem_ops: 1 event: 36496396
[cpu0_IFETCH] entry:  61 instr_id: 41119242 fetched: 2 scheduled: 0 executed: 0 num_reg_dependent: 0 num_mem_ops: 1 event: 36496396
[cpu0_IFETCH] entry:  62 instr_id: 41119243 fetched: 2 scheduled: 0 executed: 0 num_reg_dependent: 0 num_mem_ops: 1 event: 36496396
[cpu0_IFETCH] entry:  63 instr_id: 41119244 fetched: 2 scheduled: 0 executed: 0 num_reg_dependent: 0 num_mem_ops: 0 event: 36496396
[cpu0_IFETCH] entry:  64 instr_id: 41119245 fetched: 2 scheduled: 0 executed: 0 num_reg_dependent: 0 num_mem_ops: 0 event: 36496396
[cpu0_IFETCH] entry:  65 instr_id: 41119246 fetched: 2 scheduled: 0 executed: 0 num_reg_dependent: 0 num_mem_ops: 1 event: 36496396
[cpu0_IFETCH] entry:  66 instr_id: 41119247 fetched: 2 scheduled: 0 executed: 0 num_reg_dependent: 0 num_mem_ops: 0 event: 36496397
[cpu0_IFETCH] entry:  67 instr_id: 41119248 fetched: 2 scheduled: 0 executed: 0 num_reg_dependent: 0 num_mem_ops: 0 event: 36496397
[cpu0_IFETCH] entry:  68 instr_id: 41119249 fetched: 2 scheduled: 0 executed: 0 num_reg_dependent: 0 num_mem_ops: 0 event: 36496397
[cpu0_IFETCH] entry:  69 instr_id: 41119250 fetched: 2 scheduled: 0 executed: 0 num_reg_dependent: 0 num_mem_ops: 0 event: 36496397
[cpu0_IFETCH] entry:  70 instr_id: 41119251 fetched: 2 scheduled: 0 executed: 0 num_reg_dependent: 0 num_mem_ops: 0 event: 36496397
[cpu0_IFETCH] entry:  71 instr_id: 41119252 fetched: 2 scheduled: 0 executed: 0 num_reg_dependent: 0 num_mem_ops: 0 event: 36496397
[cpu0_IFETCH] entry:  72 instr_id: 41119253 fetched: 2 scheduled: 0 executed: 0 num_reg_dependent: 0 num_mem_ops: 0 event: 36496398
[cpu0_IFETCH] entry:  73 instr_id: 41119254 fetched: 2 scheduled: 0 executed: 0 num_reg_dependent: 0 num_mem_ops: 0 event: 36496398
[cpu0_IFETCH] entry:  74 instr_id: 41119255 fetched: 2 scheduled: 0 executed: 0 num_reg_dependent: 0 num_mem_ops: 0 event: 36496398
[cpu0_IFETCH] entry:  75 instr_id: 41119256 fetched: 2 scheduled: 0 executed: 0 num_reg_dependent: 0 num_mem_ops: 0 event: 36496398
[cpu0_IFETCH] entry:  76 instr_id: 41119257 fetched: 2 scheduled: 0 executed: 0 num_reg_dependent: 0 num_mem_ops: 0 event: 36496398
[cpu0_IFETCH] entry:  77 instr_id: 41119258 fetched: 2 scheduled: 0 executed: 0 num_reg_dependent: 0 num_mem_ops: 0 event: 36496398
[cpu0_IFETCH] entry:  78 instr_id: 41119259 fetched: 2 scheduled: 0 executed: 0 num_reg_dependent: 0 num_mem_ops: 0 event: 36496399
[cpu0_IFETCH] entry:  79 instr_id: 41119260 fetched: 2 scheduled: 0 executed: 0 num_reg_dependent: 0 num_mem_ops: 0 event: 36496399
[cpu0_IFETCH] entry:  80 instr_id: 41119261 fetched: 2 scheduled: 0 executed: 0 num_reg_dependent: 0 num_mem_ops: 0 event: 36496399
[cpu0_IFETCH] entry:  81 instr_id: 41119262 fetched: 2 scheduled: 0 executed: 0 num_reg_dependent: 0 num_mem_ops: 0 event: 36496399
[cpu0_IFETCH] entry:  82 instr_id: 41119263 fetched: 2 scheduled: 0 executed: 0 num_reg_dependent: 0 num_mem_ops: 1 event: 36496399
[cpu0_IFETCH] entry:  83 instr_id: 41119264 fetched: 2 scheduled: 0 executed: 0 num_reg_dependent: 0 num_mem_ops: 1 event: 36496399
[cpu0_IFETCH] entry:  84 instr_id: 41119265 fetched: 2 scheduled: 0 executed: 0 num_reg_dependent: 0 num_mem_ops: 1 event: 36496400
[cpu0_IFETCH] entry:  85 instr_id: 41119266 fetched: 2 scheduled: 0 executed: 0 num_reg_dependent: 0 num_mem_ops: 1 event: 36496400
[cpu0_IFETCH] entry:  86 instr_id: 41119267 fetched: 2 scheduled: 0 executed: 0 num_reg_dependent: 0 num_mem_ops: 0 event: 36496400
[cpu0_IFETCH] entry:  87 instr_id: 41119268 fetched: 2 scheduled: 0 executed: 0 num_reg_dependent: 0 num_mem_ops: 0 event: 36496400
[cpu0_IFETCH] entry:  88 instr_id: 41119269 fetched: 2 scheduled: 0 executed: 0 num_reg_dependent: 0 num_mem_ops: 0 event: 36496400
[cpu0_IFETCH] entry:  89 instr_id: 41119270 fetched: 2 scheduled: 0 executed: 0 num_reg_dependent: 0 num_mem_ops: 0 event: 36496400
[cpu0_IFETCH] entry:  90 instr_id: 41119271 fetched: 2 scheduled: 0 executed: 0 num_reg_dependent: 0 num_mem_ops: 0 event: 36496401
[cpu0_IFETCH] entry:  91 instr_id: 41119272 fetched: 2 scheduled: 0 executed: 0 num_reg_dependent: 0 num_mem_ops: 0 event: 36496401
[cpu0_IFETCH] entry:  92 instr_id: 41119273 fetched: 2 scheduled: 0 executed: 0 num_reg_dependent: 0 num_mem_ops: 0 event: 36496401
[cpu0_IFETCH] entry:  93 instr_id: 41119274 fetched: 2 scheduled: 0 executed: 0 num_reg_dependent: 0 num_mem_ops: 0 event: 36496401
[cpu0_IFETCH] entry:  94 instr_id: 41119275 fetched: 2 scheduled: 0 executed: 0 num_reg_dependent: 0 num_mem_ops: 0 event: 36496401
[cpu0_IFETCH] entry:  95 instr_id: 41119276 fetched: 2 scheduled: 0 executed: 0 num_reg_dependent: 0 num_mem_ops: 0 event: 36496401
[cpu0_IFETCH] entry:  96 instr_id: 41119277 fetched: 2 scheduled: 0 executed: 0 num_reg_dependent: 0 num_mem_ops: 0 event: 36496402
[cpu0_IFETCH] entry:  97 instr_id: 41119278 fetched: 2 scheduled: 0 executed: 0 num_reg_dependent: 0 num_mem_ops: 0 event: 36496402
[cpu0_IFETCH] entry:  98 instr_id: 41119279 fetched: 2 scheduled: 0 executed: 0 num_reg_dependent: 0 num_mem_ops: 0 event: 36496402
[cpu0_IFETCH] entry:  99 instr_id: 41119280 fetched: 2 scheduled: 0 executed: 0 num_reg_dependent: 0 num_mem_ops: 0 event: 36496402
[cpu0_IFETCH] entry: 100 instr_id: 41119281 fetched: 2 scheduled: 0 executed: 0 num_reg_dependent: 0 num_mem_ops: 0 event: 36496402
[cpu0_IFETCH] entry: 101 instr_id: 41119282 fetched: 2 scheduled: 0 executed: 0 num_reg_dependent: 0 num_mem_ops: 0 event: 36496402
[cpu0_IFETCH] entry: 102 instr_id: 41119283 fetched: 2 scheduled: 0 executed: 0 num_reg_dependent: 0 num_mem_ops: 1 event: 36496403
[cpu0_IFETCH] entry: 103 instr_id: 41119284 fetched: 2 scheduled: 0 executed: 0 num_reg_dependent: 0 num_mem_ops: 1 event: 36496403
[cpu0_IFETCH] entry: 104 instr_id: 41119285 fetched: 2 scheduled: 0 executed: 0 num_reg_dependent: 0 num_mem_ops: 1 event: 36496403
[cpu0_IFETCH] entry: 105 instr_id: 41119286 fetched: 2 scheduled: 0 executed: 0 num_reg_dependent: 0 num_mem_ops: 1 event: 36496403
[cpu0_IFETCH] entry: 106 instr_id: 41119287 fetched: 2 scheduled: 0 executed: 0 num_reg_dependent: 0 num_mem_ops: 0 event: 36496403
[cpu0_IFETCH] entry: 107 instr_id: 41119288 fetched: 2 scheduled: 0 executed: 0 num_reg_dependent: 0 num_mem_ops: 0 event: 36496403
[cpu0_IFETCH] entry: 108 instr_id: 41119289 fetched: 2 scheduled: 0 executed: 0 num_reg_dependent: 0 num_mem_ops: 0 event: 36496404
[cpu0_IFETCH] entry: 109 instr_id: 41119290 fetched: 2 scheduled: 0 executed: 0 num_reg_dependent: 0 num_mem_ops: 0 event: 36496404
[cpu0_IFETCH] entry: 110 instr_id: 41119291 fetched: 2 scheduled: 0 executed: 0 num_reg_dependent: 0 num_mem_ops: 0 event: 36496404
[cpu0_IFETCH] entry: 111 instr_id: 41119292 fetched: 2 scheduled: 0 executed: 0 num_reg_dependent: 0 num_mem_ops: 0 event: 36496404
[cpu0_IFETCH] entry: 112 instr_id: 41119293 fetched: 2 scheduled: 0 executed: 0 num_reg_dependent: 0 num_mem_ops: 0 event: 36496404
[cpu0_IFETCH] entry: 113 instr_id: 41119294 fetched: 2 scheduled: 0 executed: 0 num_reg_dependent: 0 num_mem_ops: 0 event: 36496404
[cpu0_IFETCH] entry: 114 instr_id: 41119295 fetched: 2 scheduled: 0 executed: 0 num_reg_dependent: 0 num_mem_ops: 0 event: 36496405
[cpu0_IFETCH] entry: 115 instr_id: 41119296 fetched: 2 scheduled: 0 executed: 0 num_reg_dependent: 0 num_mem_ops: 0 event: 36496405
[cpu0_IFETCH] entry: 116 instr_id: 41119297 fetched: 2 scheduled: 0 executed: 0 num_reg_dependent: 0 num_mem_ops: 0 event: 36496405
[cpu0_IFETCH] entry: 117 instr_id: 41119298 fetched: 2 scheduled: 0 executed: 0 num_reg_dependent: 0 num_mem_ops: 0 event: 36496405
[cpu0_IFETCH] entry: 118 instr_id: 41119299 fetched: 2 scheduled: 0 executed: 0 num_reg_dependent: 0 num_mem_ops: 0 event: 36496405
[cpu0_IFETCH] entry: 119 instr_id: 41119300 fetched: 2 scheduled: 0 executed: 0 num_reg_dependent: 0 num_mem_ops: 0 event: 36496405
[cpu0_IFETCH] entry: 120 instr_id: 41119301 fetched: 2 scheduled: 0 executed: 0 num_reg_dependent: 0 num_mem_ops: 0 event: 36496406
[cpu0_IFETCH] entry: 121 instr_id: 41119302 fetched: 2 scheduled: 0 executed: 0 num_reg_dependent: 0 num_mem_ops: 0 event: 36496406
[cpu0_IFETCH] entry: 122 instr_id: 41119303 fetched: 2 scheduled: 0 executed: 0 num_reg_dependent: 0 num_mem_ops: 0 event: 36496406
[cpu0_IFETCH] entry: 123 instr_id: 41119304 fetched: 2 scheduled: 0 executed: 0 num_reg_dependent: 0 num_mem_ops: 1 event: 36496406
[cpu0_IFETCH] entry: 124 instr_id: 41119305 fetched: 2 scheduled: 0 executed: 0 num_reg_dependent: 0 num_mem_ops: 0 event: 36496406
[cpu0_IFETCH] entry: 125 instr_id: 41119306 fetched: 2 scheduled: 0 executed: 0 num_reg_dependent: 0 num_mem_ops: 1 event: 36496407
[cpu0_IFETCH] entry: 126 instr_id: 41119307 fetched: 2 scheduled: 0 executed: 0 num_reg_dependent: 0 num_mem_ops: 0 event: 36496407
[cpu0_IFETCH] entry: 127 instr_id: 41119308 fetched: 2 scheduled: 0 executed: 0 num_reg_dependent: 0 num_mem_ops: 1 event: 36496407
[cpu0_IFETCH] entry: 128 instr_id: 41119309 fetched: 2 scheduled: 0 executed: 0 num_reg_dependent: 0 num_mem_ops: 1 event: 36496407
[cpu0_IFETCH] entry: 129 instr_id: 41119310 fetched: 2 scheduled: 0 executed: 0 num_reg_dependent: 0 num_mem_ops: 1 event: 36496407
[cpu0_IFETCH] entry: 130 instr_id: 41119311 fetched: 2 scheduled: 0 executed: 0 num_reg_dependent: 0 num_mem_ops: 1 event: 36496407
[cpu0_IFETCH] entry: 131 instr_id: 41119312 fetched: 2 scheduled: 0 executed: 0 num_reg_dependent: 0 num_mem_ops: 0 event: 36496407
[cpu0_IFETCH] entry: 132 instr_id: 41119313 fetched: 2 scheduled: 0 executed: 0 num_reg_dependent: 0 num_mem_ops: 0 event: 36496408
[cpu0_IFETCH] entry: 133 instr_id: 41119314 fetched: 2 scheduled: 0 executed: 0 num_reg_dependent: 0 num_mem_ops: 1 event: 36496408
[cpu0_IFETCH] entry: 134 instr_id: 41119315 fetched: 2 scheduled: 0 executed: 0 num_reg_dependent: 0 num_mem_ops: 0 event: 36496408
[cpu0_IFETCH] entry: 135 instr_id: 41119316 fetched: 2 scheduled: 0 executed: 0 num_reg_dependent: 0 num_mem_ops: 0 event: 36496408
[cpu0_IFETCH] entry: 136 instr_id: 41119317 fetched: 2 scheduled: 0 executed: 0 num_reg_dependent: 0 num_mem_ops: 0 event: 36496408
[cpu0_IFETCH] entry: 137 instr_id: 41119318 fetched: 2 scheduled: 0 executed: 0 num_reg_dependent: 0 num_mem_ops: 0 event: 36496408
[cpu0_IFETCH] entry: 138 instr_id: 41119319 fetched: 2 scheduled: 0 executed: 0 num_reg_dependent: 0 num_mem_ops: 0 event: 36496409
[cpu0_IFETCH] entry: 139 instr_id: 41119320 fetched: 2 scheduled: 0 executed: 0 num_reg_dependent: 0 num_mem_ops: 0 event: 36496409
[cpu0_IFETCH] entry: 140 instr_id: 41119321 fetched: 2 scheduled: 0 executed: 0 num_reg_dependent: 0 num_mem_ops: 0 event: 36496409
[cpu0_IFETCH] entry: 141 instr_id: 41119322 fetched: 2 scheduled: 0 executed: 0 num_reg_dependent: 0 num_mem_ops: 0 event: 36496409
[cpu0_IFETCH] entry: 142 instr_id: 41119323 fetched: 2 scheduled: 0 executed: 0 num_reg_dependent: 0 num_mem_ops: 0 event: 36496409
[cpu0_IFETCH] entry: 143 instr_id: 41119324 fetched: 2 scheduled: 0 executed: 0 num_reg_dependent: 0 num_mem_ops: 0 event: 36496409
[cpu0_IFETCH] entry: 144 instr_id: 41119325 fetched: 2 scheduled: 0 executed: 0 num_reg_dependent: 0 num_mem_ops: 0 event: 36496410
[cpu0_IFETCH] entry: 145 instr_id: 41119326 fetched: 2 scheduled: 0 executed: 0 num_reg_dependent: 0 num_mem_ops: 0 event: 36496410
[cpu0_IFETCH] entry: 146 instr_id: 41119327 fetched: 2 scheduled: 0 executed: 0 num_reg_dependent: 0 num_mem_ops: 0 event: 36496410
[cpu0_IFETCH] entry: 147 instr_id: 41119328 fetched: 2 scheduled: 0 executed: 0 num_reg_dependent: 0 num_mem_ops: 0 event: 36496410
[cpu0_IFETCH] entry: 148 instr_id: 41119329 fetched: 2 scheduled: 0 executed: 0 num_reg_dependent: 0 num_mem_ops: 0 event: 36496410
[cpu0_IFETCH] entry: 149 instr_id: 41119330 fetched: 2 scheduled: 0 executed: 0 num_reg_dependent: 0 num_mem_ops: 0 event: 36496410
[cpu0_IFETCH] entry: 150 instr_id: 41119331 fetched: 2 scheduled: 0 executed: 0 num_reg_dependent: 0 num_mem_ops: 1 event: 36496411
[cpu0_IFETCH] entry: 151 instr_id: 41119332 fetched: 2 scheduled: 0 executed: 0 num_reg_dependent: 0 num_mem_ops: 1 event: 36496411
[cpu0_IFETCH] entry: 152 instr_id: 41119333 fetched: 2 scheduled: 0 executed: 0 num_reg_dependent: 0 num_mem_ops: 1 event: 36496411
[cpu0_IFETCH] entry: 153 instr_id: 41119334 fetched: 2 scheduled: 0 executed: 0 num_reg_dependent: 0 num_mem_ops: 1 event: 36496411
[cpu0_IFETCH] entry: 154 instr_id: 41119335 fetched: 2 scheduled: 0 executed: 0 num_reg_dependent: 0 num_mem_ops: 0 event: 36496411
[cpu0_IFETCH] entry: 155 instr_id: 41119336 fetched: 2 scheduled: 0 executed: 0 num_reg_dependent: 0 num_mem_ops: 0 event: 36496411
[cpu0_IFETCH] entry: 156 instr_id: 41119337 fetched: 2 scheduled: 0 executed: 0 num_reg_dependent: 0 num_mem_ops: 0 event: 36496412
[cpu0_IFETCH] entry: 157 instr_id: 41119338 fetched: 2 scheduled: 0 executed: 0 num_reg_dependent: 0 num_mem_ops: 0 event: 36496412
[cpu0_IFETCH] entry: 158 instr_id: 41119339 fetched: 2 scheduled: 0 executed: 0 num_reg_dependent: 0 num_mem_ops: 0 event: 36496412
[cpu0_IFETCH] entry: 159 instr_id: 41119340 fetched: 2 scheduled: 0 executed: 0 num_reg_dependent: 0 num_mem_ops: 0 event: 36496412
[cpu0_IFETCH] entry: 160 instr_id: 41119341 fetched: 2 scheduled: 0 executed: 0 num_reg_dependent: 0 num_mem_ops: 0 event: 36496412
[cpu0_IFETCH] entry: 161 instr_id: 41119342 fetched: 2 scheduled: 0 executed: 0 num_reg_dependent: 0 num_mem_ops: 0 event: 36496412
[cpu0_IFETCH] entry: 162 instr_id: 41119343 fetched: 2 scheduled: 0 executed: 0 num_reg_dependent: 0 num_mem_ops: 0 event: 36496413
[cpu0_IFETCH] entry: 163 instr_id: 41119344 fetched: 2 scheduled: 0 executed: 0 num_reg_dependent: 0 num_mem_ops: 0 event: 36496413
[cpu0_IFETCH] entry: 164 instr_id: 41119345 fetched: 2 scheduled: 0 executed: 0 num_reg_dependent: 0 num_mem_ops: 0 event: 36496413
[cpu0_IFETCH] entry: 165 instr_id: 41119346 fetched: 2 scheduled: 0 executed: 0 num_reg_dependent: 0 num_mem_ops: 0 event: 36496413
[cpu0_IFETCH] entry: 166 instr_id: 41119347 fetched: 2 scheduled: 0 executed: 0 num_reg_dependent: 0 num_mem_ops: 0 event: 36496413
[cpu0_IFETCH] entry: 167 instr_id: 41119348 fetched: 2 scheduled: 0 executed: 0 num_reg_dependent: 0 num_mem_ops: 0 event: 36496413
[cpu0_IFETCH] entry: 168 instr_id: 41119349 fetched: 2 scheduled: 0 executed: 0 num_reg_dependent: 0 num_mem_ops: 0 event: 36496414
[cpu0_IFETCH] entry: 169 instr_id: 41119350 fetched: 2 scheduled: 0 executed: 0 num_reg_dependent: 0 num_mem_ops: 0 event: 36496414
[cpu0_IFETCH] entry: 170 instr_id: 41119351 fetched: 2 scheduled: 0 executed: 0 num_reg_dependent: 0 num_mem_ops: 1 event: 36496414
[cpu0_IFETCH] entry: 171 instr_id: 41119352 fetched: 2 scheduled: 0 executed: 0 num_reg_dependent: 0 num_mem_ops: 1 event: 36496414
[cpu0_IFETCH] entry: 172 instr_id: 41119353 fetched: 2 scheduled: 0 executed: 0 num_reg_dependent: 0 num_mem_ops: 1 event: 36496414
[cpu0_IFETCH] entry: 173 instr_id: 41119354 fetched: 2 scheduled: 0 executed: 0 num_reg_dependent: 0 num_mem_ops: 1 event: 36496414
[cpu0_IFETCH] entry: 174 instr_id: 41119355 fetched: 2 scheduled: 0 executed: 0 num_reg_dependent: 0 num_mem_ops: 0 event: 36496415
[cpu0_IFETCH] entry: 175 instr_id: 41119356 fetched: 2 scheduled: 0 executed: 0 num_reg_dependent: 0 num_mem_ops: 0 event: 36496415
[cpu0_IFETCH] entry: 176 instr_id: 41119357 fetched: 2 scheduled: 0 executed: 0 num_reg_dependent: 0 num_mem_ops: 0 event: 36496415
[cpu0_IFETCH] entry: 177 instr_id: 41119358 fetched: 2 scheduled: 0 executed: 0 num_reg_dependent: 0 num_mem_ops: 0 event: 36496415
[cpu0_IFETCH] entry: 178 instr_id: 41119359 fetched: 2 scheduled: 0 executed: 0 num_reg_dependent: 0 num_mem_ops: 0 event: 36496415
[cpu0_IFETCH] entry: 179 instr_id: 41119360 fetched: 2 scheduled: 0 executed: 0 num_reg_dependent: 0 num_mem_ops: 0 event: 36496415
[cpu0_IFETCH] entry: 180 instr_id: 41119361 fetched: 2 scheduled: 0 executed: 0 num_reg_dependent: 0 num_mem_ops: 0 event: 36496416
[cpu0_IFETCH] entry: 181 instr_id: 41119362 fetched: 2 scheduled: 0 executed: 0 num_reg_dependent: 0 num_mem_ops: 0 event: 36496416
[cpu0_IFETCH] entry: 182 instr_id: 41119363 fetched: 2 scheduled: 0 executed: 0 num_reg_dependent: 0 num_mem_ops: 0 event: 36496416
[cpu0_IFETCH] entry: 183 instr_id: 41119364 fetched: 2 scheduled: 0 executed: 0 num_reg_dependent: 0 num_mem_ops: 0 event: 36496416
[cpu0_IFETCH] entry: 184 instr_id: 41119365 fetched: 2 scheduled: 0 executed: 0 num_reg_dependent: 0 num_mem_ops: 0 event: 36496416
[cpu0_IFETCH] entry: 185 instr_id: 41119366 fetched: 2 scheduled: 0 executed: 0 num_reg_dependent: 0 num_mem_ops: 0 event: 36496416
[cpu0_IFETCH] entry: 186 instr_id: 41119367 fetched: 2 scheduled: 0 executed: 0 num_reg_dependent: 0 num_mem_ops: 0 event: 36496417
[cpu0_IFETCH] entry: 187 instr_id: 41119368 fetched: 2 scheduled: 0 executed: 0 num_reg_dependent: 0 num_mem_ops: 0 event: 36496417
[cpu0_IFETCH] entry: 188 instr_id: 41119369 fetched: 2 scheduled: 0 executed: 0 num_reg_dependent: 0 num_mem_ops: 0 event: 36496417
[cpu0_IFETCH] entry: 189 instr_id: 41119370 fetched: 2 scheduled: 0 executed: 0 num_reg_dependent: 0 num_mem_ops: 0 event: 36496417
[cpu0_IFETCH] entry: 190 instr_id: 41119371 fetched: 2 scheduled: 0 executed: 0 num_reg_dependent: 0 num_mem_ops: 0 event: 36496417
[cpu0_IFETCH] entry: 191 instr_id: 41119372 fetched: 2 scheduled: 0 executed: 0 num_reg_dependent: 0 num_mem_ops: 1 event: 36496417

[cpu0_DECODE] entry:   0 instr_id: 41119037 fetched: 2 scheduled: 0 executed: 0 num_reg_dependent: 0 num_mem_ops: 1 event: 36496393
[cpu0_DECODE] entry:   1 instr_id: 41119038 fetched: 2 scheduled: 0 executed: 0 num_reg_dependent: 0 num_mem_ops: 1 event: 36496393
[cpu0_DECODE] entry:   2 instr_id: 41119039 fetched: 2 scheduled: 0 executed: 0 num_reg_dependent: 0 num_mem_ops: 1 event: 36496393
[cpu0_DECODE] entry:   3 instr_id: 41119040 fetched: 2 scheduled: 0 executed: 0 num_reg_dependent: 0 num_mem_ops: 0 event: 36496393
[cpu0_DECODE] entry:   4 instr_id: 41119041 fetched: 2 scheduled: 0 executed: 0 num_reg_dependent: 0 num_mem_ops: 0 event: 36496393
[cpu0_DECODE] entry:   5 instr_id: 41119042 fetched: 2 scheduled: 0 executed: 0 num_reg_dependent: 0 num_mem_ops: 1 event: 36496393
[cpu0_DECODE] entry:   6 instr_id: 41119043 fetched: 2 scheduled: 0 executed: 0 num_reg_dependent: 0 num_mem_ops: 0 event: 36496394
[cpu0_DECODE] entry:   7 instr_id: 41119044 fetched: 2 scheduled: 0 executed: 0 num_reg_dependent: 0 num_mem_ops: 0 event: 36496394
[cpu0_DECODE] entry:   8 instr_id: 41119045 fetched: 2 scheduled: 0 executed: 0 num_reg_dependent: 0 num_mem_ops: 0 event: 36496394
[cpu0_DECODE] entry:   9 instr_id: 41119046 fetched: 2 scheduled: 0 executed: 0 num_reg_dependent: 0 num_mem_ops: 0 event: 36496394
[cpu0_DECODE] entry:  10 instr_id: 41119047 fetched: 2 scheduled: 0 executed: 0 num_reg_dependent: 0 num_mem_ops: 0 event: 36496394
[cpu0_DECODE] entry:  11 instr_id: 41119048 fetched: 2 scheduled: 0 executed: 0 num_reg_dependent: 0 num_mem_ops: 0 event: 36496394
[cpu0_DECODE] entry:  12 instr_id: 41119049 fetched: 2 scheduled: 0 executed: 0 num_reg_dependent: 0 num_mem_ops: 0 event: 36496395
[cpu0_DECODE] entry:  13 instr_id: 41119050 fetched: 2 scheduled: 0 executed: 0 num_reg_dependent: 0 num_mem_ops: 0 event: 36496395
[cpu0_DECODE] entry:  14 instr_id: 41119051 fetched: 2 scheduled: 0 executed: 0 num_reg_dependent: 0 num_mem_ops: 0 event: 36496395
[cpu0_DECODE] entry:  15 instr_id: 41119052 fetched: 2 scheduled: 0 executed: 0 num_reg_dependent: 0 num_mem_ops: 0 event: 36496395
[cpu0_DECODE] entry:  16 instr_id: 41119053 fetched: 2 scheduled: 0 executed: 0 num_reg_dependent: 0 num_mem_ops: 0 event: 36496395
[cpu0_DECODE] entry:  17 instr_id: 41119054 fetched: 2 scheduled: 0 executed: 0 num_reg_dependent: 0 num_mem_ops: 0 event: 36496395
[cpu0_DECODE] entry:  18 instr_id: 41119055 fetched: 2 scheduled: 0 executed: 0 num_reg_dependent: 0 num_mem_ops: 0 event: 36496396
[cpu0_DECODE] entry:  19 instr_id: 41119056 fetched: 2 scheduled: 0 executed: 0 num_reg_dependent: 0 num_mem_ops: 0 event: 36496396
[cpu0_DECODE] entry:  20 instr_id: 41119057 fetched: 2 scheduled: 0 executed: 0 num_reg_dependent: 0 num_mem_ops: 0 event: 36496396
[cpu0_DECODE] entry:  21 instr_id: 41119058 fetched: 2 scheduled: 0 executed: 0 num_reg_dependent: 0 num_mem_ops: 0 event: 36496396
[cpu0_DECODE] entry:  22 instr_id: 41119059 fetched: 2 scheduled: 0 executed: 0 num_reg_dependent: 0 num_mem_ops: 1 event: 36496396
[cpu0_DECODE] entry:  23 instr_id: 41119060 fetched: 2 scheduled: 0 executed: 0 num_reg_dependent: 0 num_mem_ops: 1 event: 36496396
[cpu0_DECODE] entry:  24 instr_id: 41119061 fetched: 2 scheduled: 0 executed: 0 num_reg_dependent: 0 num_mem_ops: 1 event: 36496397
[cpu0_DECODE] entry:  25 instr_id: 41119062 fetched: 2 scheduled: 0 executed: 0 num_reg_dependent: 0 num_mem_ops: 1 event: 36496397
[cpu0_DECODE] entry:  26 instr_id: 41119063 fetched: 2 scheduled: 0 executed: 0 num_reg_dependent: 0 num_mem_ops: 0 event: 36496397
[cpu0_DECODE] entry:  27 instr_id: 41119064 fetched: 2 scheduled: 0 executed: 0 num_reg_dependent: 0 num_mem_ops: 0 event: 36496397
[cpu0_DECODE] entry:  28 instr_id: 41119065 fetched: 2 scheduled: 0 executed: 0 num_reg_dependent: 0 num_mem_ops: 0 event: 36496397
[cpu0_DECODE] entry:  29 instr_id: 41119066 fetched: 2 scheduled: 0 executed: 0 num_reg_dependent: 0 num_mem_ops: 0 event: 36496397
[cpu0_DECODE] entry:  30 instr_id: 41119067 fetched: 2 scheduled: 0 executed: 0 num_reg_dependent: 0 num_mem_ops: 0 event: 36496398
[cpu0_DECODE] entry:  31 instr_id: 41119068 fetched: 2 scheduled: 0 executed: 0 num_reg_dependent: 0 num_mem_ops: 0 event: 36496398
[cpu0_DECODE] entry:  32 instr_id: 41119069 fetched: 2 scheduled: 0 executed: 0 num_reg_dependent: 0 num_mem_ops: 0 event: 36496398
[cpu0_DECODE] entry:  33 instr_id: 41119070 fetched: 2 scheduled: 0 executed: 0 num_reg_dependent: 0 num_mem_ops: 0 event: 36496398
[cpu0_DECODE] entry:  34 instr_id: 41119071 fetched: 2 scheduled: 0 executed: 0 num_reg_dependent: 0 num_mem_ops: 0 event: 36496398
[cpu0_DECODE] entry:  35 instr_id: 41119072 fetched: 2 scheduled: 0 executed: 0 num_reg_dependent: 0 num_mem_ops: 0 event: 36496398
[cpu0_DECODE] entry:  36 instr_id: 41119073 fetched: 2 scheduled: 0 executed: 0 num_reg_dependent: 0 num_mem_ops: 0 event: 36496399
[cpu0_DECODE] entry:  37 instr_id: 41119074 fetched: 2 scheduled: 0 executed: 0 num_reg_dependent: 0 num_mem_ops: 0 event: 36496399
[cpu0_DECODE] entry:  38 instr_id: 41119075 fetched: 2 scheduled: 0 executed: 0 num_reg_dependent: 0 num_mem_ops: 0 event: 36496399
[cpu0_DECODE] entry:  39 instr_id: 41119076 fetched: 2 scheduled: 0 executed: 0 num_reg_dependent: 0 num_mem_ops: 0 event: 36496399
[cpu0_DECODE] entry:  40 instr_id: 41119077 fetched: 2 scheduled: 0 executed: 0 num_reg_dependent: 0 num_mem_ops: 0 event: 36496399
[cpu0_DECODE] entry:  41 instr_id: 41119078 fetched: 2 scheduled: 0 executed: 0 num_reg_dependent: 0 num_mem_ops: 0 event: 36496399
[cpu0_DECODE] entry:  42 instr_id: 41119079 fetched: 2 scheduled: 0 executed: 0 num_reg_dependent: 0 num_mem_ops: 1 event: 36496400
[cpu0_DECODE] entry:  43 instr_id: 41119080 fetched: 2 scheduled: 0 executed: 0 num_reg_dependent: 0 num_mem_ops: 1 event: 36496400
[cpu0_DECODE] entry:  44 instr_id: 41119081 fetched: 2 scheduled: 0 executed: 0 num_reg_dependent: 0 num_mem_ops: 1 event: 36496400
[cpu0_DECODE] entry:  45 instr_id: 41119082 fetched: 2 scheduled: 0 executed: 0 num_reg_dependent: 0 num_mem_ops: 1 event: 36496400
[cpu0_DECODE] entry:  46 instr_id: 41119083 fetched: 2 scheduled: 0 executed: 0 num_reg_dependent: 0 num_mem_ops: 0 event: 36496400
[cpu0_DECODE] entry:  47 instr_id: 41119084 fetched: 2 scheduled: 0 executed: 0 num_reg_dependent: 0 num_mem_ops: 0 event: 36496400
[cpu0_DECODE] entry:  48 instr_id: 41119085 fetched: 2 scheduled: 0 executed: 0 num_reg_dependent: 0 num_mem_ops: 0 event: 36496401
[cpu0_DECODE] entry:  49 instr_id: 41119086 fetched: 2 scheduled: 0 executed: 0 num_reg_dependent: 0 num_mem_ops: 0 event: 36496401
[cpu0_DECODE] entry:  50 instr_id: 41119087 fetched: 2 scheduled: 0 executed: 0 num_reg_dependent: 0 num_mem_ops: 0 event: 36496401
[cpu0_DECODE] entry:  51 instr_id: 41119088 fetched: 2 scheduled: 0 executed: 0 num_reg_dependent: 0 num_mem_ops: 0 event: 36496401
[cpu0_DECODE] entry:  52 instr_id: 41119089 fetched: 2 scheduled: 0 executed: 0 num_reg_dependent: 0 num_mem_ops: 0 event: 36496401
[cpu0_DECODE] entry:  53 instr_id: 41119090 fetched: 2 scheduled: 0 executed: 0 num_reg_dependent: 0 num_mem_ops: 0 event: 36496401
[cpu0_DECODE] entry:  54 instr_id: 41119091 fetched: 2 scheduled: 0 executed: 0 num_reg_dependent: 0 num_mem_ops: 0 event: 36496402
[cpu0_DECODE] entry:  55 instr_id: 41119092 fetched: 2 scheduled: 0 executed: 0 num_reg_dependent: 0 num_mem_ops: 0 event: 36496402
[cpu0_DECODE] entry:  56 instr_id: 41119093 fetched: 2 scheduled: 0 executed: 0 num_reg_dependent: 0 num_mem_ops: 0 event: 36496402
[cpu0_DECODE] entry:  57 instr_id: 41119094 fetched: 2 scheduled: 0 executed: 0 num_reg_dependent: 0 num_mem_ops: 0 event: 36496402
[cpu0_DECODE] entry:  58 instr_id: 41119095 fetched: 2 scheduled: 0 executed: 0 num_reg_dependent: 0 num_mem_ops: 0 event: 36496402
[cpu0_DECODE] entry:  59 instr_id: 41119096 fetched: 2 scheduled: 0 executed: 0 num_reg_dependent: 0 num_mem_ops: 0 event: 36496402
[cpu0_DECODE] entry:  60 instr_id: 41119097 fetched: 2 scheduled: 0 executed: 0 num_reg_dependent: 0 num_mem_ops: 0 event: 36496403
[cpu0_DECODE] entry:  61 instr_id: 41119098 fetched: 2 scheduled: 0 executed: 0 num_reg_dependent: 0 num_mem_ops: 0 event: 36496403
[cpu0_DECODE] entry:  62 instr_id: 41119099 fetched: 2 scheduled: 0 executed: 0 num_reg_dependent: 0 num_mem_ops: 0 event: 36496403
[cpu0_DECODE] entry:  63 instr_id: 41119100 fetched: 2 scheduled: 0 executed: 0 num_reg_dependent: 0 num_mem_ops: 1 event: 36496403
[cpu0_DECODE] entry:  64 instr_id: 41119101 fetched: 2 scheduled: 0 executed: 0 num_reg_dependent: 0 num_mem_ops: 0 event: 36496403
[cpu0_DECODE] entry:  65 instr_id: 41119102 fetched: 2 scheduled: 0 executed: 0 num_reg_dependent: 0 num_mem_ops: 1 event: 36496403
[cpu0_DECODE] entry:  66 instr_id: 41119103 fetched: 2 scheduled: 0 executed: 0 num_reg_dependent: 0 num_mem_ops: 0 event: 36496404
[cpu0_DECODE] entry:  67 instr_id: 41119104 fetched: 2 scheduled: 0 executed: 0 num_reg_dependent: 0 num_mem_ops: 1 event: 36496404
[cpu0_DECODE] entry:  68 instr_id: 41119105 fetched: 2 scheduled: 0 executed: 0 num_reg_dependent: 0 num_mem_ops: 1 event: 36496404
[cpu0_DECODE] entry:  69 instr_id: 41119106 fetched: 2 scheduled: 0 executed: 0 num_reg_dependent: 0 num_mem_ops: 1 event: 36496404
[cpu0_DECODE] entry:  70 instr_id: 41119107 fetched: 2 scheduled: 0 executed: 0 num_reg_dependent: 0 num_mem_ops: 1 event: 36496404
[cpu0_DECODE] entry:  71 instr_id: 41119108 fetched: 2 scheduled: 0 executed: 0 num_reg_dependent: 0 num_mem_ops: 0 event: 36496404
[cpu0_DECODE] entry:  72 instr_id: 41119109 fetched: 2 scheduled: 0 executed: 0 num_reg_dependent: 0 num_mem_ops: 0 event: 36496405
[cpu0_DECODE] entry:  73 instr_id: 41119110 fetched: 2 scheduled: 0 executed: 0 num_reg_dependent: 0 num_mem_ops: 1 event: 36496405
[cpu0_DECODE] entry:  74 instr_id: 41119111 fetched: 2 scheduled: 0 executed: 0 num_reg_dependent: 0 num_mem_ops: 0 event: 36496405
[cpu0_DECODE] entry:  75 instr_id: 41119112 fetched: 2 scheduled: 0 executed: 0 num_reg_dependent: 0 num_mem_ops: 0 event: 36496405
[cpu0_DECODE] entry:  76 instr_id: 41119113 fetched: 2 scheduled: 0 executed: 0 num_reg_dependent: 0 num_mem_ops: 0 event: 36496405
[cpu0_DECODE] entry:  77 instr_id: 41119114 fetched: 2 scheduled: 0 executed: 0 num_reg_dependent: 0 num_mem_ops: 0 event: 36496405
[cpu0_DECODE] entry:  78 instr_id: 41119115 fetched: 2 scheduled: 0 executed: 0 num_reg_dependent: 0 num_mem_ops: 0 event: 36496406
[cpu0_DECODE] entry:  79 instr_id: 41119116 fetched: 2 scheduled: 0 executed: 0 num_reg_dependent: 0 num_mem_ops: 0 event: 36496406
[cpu0_DECODE] entry:  80 instr_id: 41119117 fetched: 2 scheduled: 0 executed: 0 num_reg_dependent: 0 num_mem_ops: 0 event: 36496406
[cpu0_DECODE] entry:  81 instr_id: 41119118 fetched: 2 scheduled: 0 executed: 0 num_reg_dependent: 0 num_mem_ops: 0 event: 36496406
[cpu0_DECODE] entry:  82 instr_id: 41119119 fetched: 2 scheduled: 0 executed: 0 num_reg_dependent: 0 num_mem_ops: 0 event: 36496406
[cpu0_DECODE] entry:  83 instr_id: 41119120 fetched: 2 scheduled: 0 executed: 0 num_reg_dependent: 0 num_mem_ops: 0 event: 36496406
[cpu0_DECODE] entry:  84 instr_id: 41119121 fetched: 2 scheduled: 0 executed: 0 num_reg_dependent: 0 num_mem_ops: 0 event: 36496407
[cpu0_DECODE] entry:  85 instr_id: 41119122 fetched: 2 scheduled: 0 executed: 0 num_reg_dependent: 0 num_mem_ops: 0 event: 36496407
[cpu0_DECODE] entry:  86 instr_id: 41119123 fetched: 2 scheduled: 0 executed: 0 num_reg_dependent: 0 num_mem_ops: 0 event: 36496407
[cpu0_DECODE] entry:  87 instr_id: 41119124 fetched: 2 scheduled: 0 executed: 0 num_reg_dependent: 0 num_mem_ops: 0 event: 36496407
[cpu0_DECODE] entry:  88 instr_id: 41119125 fetched: 2 scheduled: 0 executed: 0 num_reg_dependent: 0 num_mem_ops: 0 event: 36496407
[cpu0_DECODE] entry:  89 instr_id: 41119126 fetched: 2 scheduled: 0 executed: 0 num_reg_dependent: 0 num_mem_ops: 0 event: 36496407
[cpu0_DECODE] entry:  90 instr_id: 41119127 fetched: 2 scheduled: 0 executed: 0 num_reg_dependent: 0 num_mem_ops: 1 event: 36496408
[cpu0_DECODE] entry:  91 instr_id: 41119128 fetched: 2 scheduled: 0 executed: 0 num_reg_dependent: 0 num_mem_ops: 1 event: 36496408
[cpu0_DECODE] entry:  92 instr_id: 41119129 fetched: 2 scheduled: 0 executed: 0 num_reg_dependent: 0 num_mem_ops: 1 event: 36496408
[cpu0_DECODE] entry:  93 instr_id: 41119130 fetched: 2 scheduled: 0 executed: 0 num_reg_dependent: 0 num_mem_ops: 1 event: 36496408
[cpu0_DECODE] entry:  94 instr_id: 41119131 fetched: 2 scheduled: 0 executed: 0 num_reg_dependent: 0 num_mem_ops: 0 event: 36496408
[cpu0_DECODE] entry:  95 instr_id: 41119132 fetched: 2 scheduled: 0 executed: 0 num_reg_dependent: 0 num_mem_ops: 0 event: 36496408
[cpu0_DECODE] entry:  96 instr_id: 41119133 fetched: 2 scheduled: 0 executed: 0 num_reg_dependent: 0 num_mem_ops: 0 event: 36496409
[cpu0_DECODE] entry:  97 instr_id: 41119134 fetched: 2 scheduled: 0 executed: 0 num_reg_dependent: 0 num_mem_ops: 0 event: 36496409
[cpu0_DECODE] entry:  98 instr_id: 41119135 fetched: 2 scheduled: 0 executed: 0 num_reg_dependent: 0 num_mem_ops: 0 event: 36496409
[cpu0_DECODE] entry:  99 instr_id: 41119136 fetched: 2 scheduled: 0 executed: 0 num_reg_dependent: 0 num_mem_ops: 0 event: 36496409
[cpu0_DECODE] entry: 100 instr_id: 41119137 fetched: 2 scheduled: 0 executed: 0 num_reg_dependent: 0 num_mem_ops: 0 event: 36496409
[cpu0_DECODE] entry: 101 instr_id: 41119138 fetched: 2 scheduled: 0 executed: 0 num_reg_dependent: 0 num_mem_ops: 0 event: 36496409
[cpu0_DECODE] entry: 102 instr_id: 41119139 fetched: 2 scheduled: 0 executed: 0 num_reg_dependent: 0 num_mem_ops: 0 event: 36496410
[cpu0_DECODE] entry: 103 instr_id: 41119140 fetched: 2 scheduled: 0 executed: 0 num_reg_dependent: 0 num_mem_ops: 0 event: 36496410
[cpu0_DECODE] entry: 104 instr_id: 41119141 fetched: 2 scheduled: 0 executed: 0 num_reg_dependent: 0 num_mem_ops: 0 event: 36496410
[cpu0_DECODE] entry: 105 instr_id: 41119142 fetched: 2 scheduled: 0 executed: 0 num_reg_dependent: 0 num_mem_ops: 0 event: 36496410
[cpu0_DECODE] entry: 106 instr_id: 41119143 fetched: 2 scheduled: 0 executed: 0 num_reg_dependent: 0 num_mem_ops: 0 event: 36496410
[cpu0_DECODE] entry: 107 instr_id: 41119144 fetched: 2 scheduled: 0 executed: 0 num_reg_dependent: 0 num_mem_ops: 0 event: 36496410
[cpu0_DECODE] entry: 108 instr_id: 41119145 fetched: 2 scheduled: 0 executed: 0 num_reg_dependent: 0 num_mem_ops: 0 event: 36496411
[cpu0_DECODE] entry: 109 instr_id: 41119146 fetched: 2 scheduled: 0 executed: 0 num_reg_dependent: 0 num_mem_ops: 0 event: 36496411
[cpu0_DECODE] entry: 110 instr_id: 41119147 fetched: 2 scheduled: 0 executed: 0 num_reg_dependent: 0 num_mem_ops: 1 event: 36496411
[cpu0_DECODE] entry: 111 instr_id: 41119148 fetched: 2 scheduled: 0 executed: 0 num_reg_dependent: 0 num_mem_ops: 1 event: 36496411
[cpu0_DECODE] entry: 112 instr_id: 41119149 fetched: 2 scheduled: 0 executed: 0 num_reg_dependent: 0 num_mem_ops: 1 event: 36496411
[cpu0_DECODE] entry: 113 instr_id: 41119150 fetched: 2 scheduled: 0 executed: 0 num_reg_dependent: 0 num_mem_ops: 1 event: 36496411
[cpu0_DECODE] entry: 114 instr_id: 41119151 fetched: 2 scheduled: 0 executed: 0 num_reg_dependent: 0 num_mem_ops: 0 event: 36496412
[cpu0_DECODE] entry: 115 instr_id: 41119152 fetched: 2 scheduled: 0 executed: 0 num_reg_dependent: 0 num_mem_ops: 0 event: 36496412
[cpu0_DECODE] entry: 116 instr_id: 41119153 fetched: 2 scheduled: 0 executed: 0 num_reg_dependent: 0 num_mem_ops: 0 event: 36496412
[cpu0_DECODE] entry: 117 instr_id: 41119154 fetched: 2 scheduled: 0 executed: 0 num_reg_dependent: 0 num_mem_ops: 0 event: 36496412
[cpu0_DECODE] entry: 118 instr_id: 41119155 fetched: 2 scheduled: 0 executed: 0 num_reg_dependent: 0 num_mem_ops: 0 event: 36496412
[cpu0_DECODE] entry: 119 instr_id: 41119156 fetched: 2 scheduled: 0 executed: 0 num_reg_dependent: 0 num_mem_ops: 0 event: 36496412
[cpu0_DECODE] entry: 120 instr_id: 41119157 fetched: 2 scheduled: 0 executed: 0 num_reg_dependent: 0 num_mem_ops: 0 event: 36496413
[cpu0_DECODE] entry: 121 instr_id: 41119158 fetched: 2 scheduled: 0 executed: 0 num_reg_dependent: 0 num_mem_ops: 0 event: 36496413
[cpu0_DECODE] entry: 122 instr_id: 41119159 fetched: 2 scheduled: 0 executed: 0 num_reg_dependent: 0 num_mem_ops: 0 event: 36496413
[cpu0_DECODE] entry: 123 instr_id: 41119160 fetched: 2 scheduled: 0 executed: 0 num_reg_dependent: 0 num_mem_ops: 0 event: 36496413
[cpu0_DECODE] entry: 124 instr_id: 41119161 fetched: 2 scheduled: 0 executed: 0 num_reg_dependent: 0 num_mem_ops: 0 event: 36496413
[cpu0_DECODE] entry: 125 instr_id: 41119162 fetched: 2 scheduled: 0 executed: 0 num_reg_dependent: 0 num_mem_ops: 0 event: 36496413
[cpu0_DECODE] entry: 126 instr_id: 41119163 fetched: 2 scheduled: 0 executed: 0 num_reg_dependent: 0 num_mem_ops: 0 event: 36496414
[cpu0_DECODE] entry: 127 instr_id: 41119164 fetched: 2 scheduled: 0 executed: 0 num_reg_dependent: 0 num_mem_ops: 0 event: 36496414
[cpu0_DECODE] entry: 128 instr_id: 41119165 fetched: 2 scheduled: 0 executed: 0 num_reg_dependent: 0 num_mem_ops: 0 event: 36496414
[cpu0_DECODE] entry: 129 instr_id: 41119166 fetched: 2 scheduled: 0 executed: 0 num_reg_dependent: 0 num_mem_ops: 0 event: 36496414
[cpu0_DECODE] entry: 130 instr_id: 41119167 fetched: 2 scheduled: 0 executed: 0 num_reg_dependent: 0 num_mem_ops: 0 event: 36496414
[cpu0_DECODE] entry: 131 instr_id: 41119168 fetched: 2 scheduled: 0 executed: 0 num_reg_dependent: 0 num_mem_ops: 1 event: 36496414
[cpu0_DECODE] entry: 132 instr_id: 41119169 fetched: 2 scheduled: 0 executed: 0 num_reg_dependent: 0 num_mem_ops: 0 event: 36496415
[cpu0_DECODE] entry: 133 instr_id: 41119170 fetched: 2 scheduled: 0 executed: 0 num_reg_dependent: 0 num_mem_ops: 1 event: 36496415
[cpu0_DECODE] entry: 134 instr_id: 41119171 fetched: 2 scheduled: 0 executed: 0 num_reg_dependent: 0 num_mem_ops: 0 event: 36496415
[cpu0_DECODE] entry: 135 instr_id: 41119172 fetched: 2 scheduled: 0 executed: 0 num_reg_dependent: 0 num_mem_ops: 1 event: 36496415
[cpu0_DECODE] entry: 136 instr_id: 41119173 fetched: 2 scheduled: 0 executed: 0 num_reg_dependent: 0 num_mem_ops: 1 event: 36496415
[cpu0_DECODE] entry: 137 instr_id: 41119174 fetched: 2 scheduled: 0 executed: 0 num_reg_dependent: 0 num_mem_ops: 1 event: 36496415
[cpu0_DECODE] entry: 138 instr_id: 41119175 fetched: 2 scheduled: 0 executed: 0 num_reg_dependent: 0 num_mem_ops: 1 event: 36496416
[cpu0_DECODE] entry: 139 instr_id: 41119176 fetched: 2 scheduled: 0 executed: 0 num_reg_dependent: 0 num_mem_ops: 0 event: 36496416
[cpu0_DECODE] entry: 140 instr_id: 41119177 fetched: 2 scheduled: 0 executed: 0 num_reg_dependent: 0 num_mem_ops: 0 event: 36496416
[cpu0_DECODE] entry: 141 instr_id: 41119178 fetched: 2 scheduled: 0 executed: 0 num_reg_dependent: 0 num_mem_ops: 1 event: 36496416
[cpu0_DECODE] entry: 142 instr_id: 41119179 fetched: 2 scheduled: 0 executed: 0 num_reg_dependent: 0 num_mem_ops: 0 event: 36496416
[cpu0_DECODE] entry: 143 instr_id: 41119180 fetched: 2 scheduled: 0 executed: 0 num_reg_dependent: 0 num_mem_ops: 0 event: 36496416

[cpu0_DISPATCH] entry:   0 instr_id: 41119005 fetched: 2 scheduled: 0 executed: 0 num_reg_dependent: 0 num_mem_ops: 0 event: 36496412
[cpu0_DISPATCH] entry:   1 instr_id: 41119006 fetched: 2 scheduled: 0 executed: 0 num_reg_dependent: 0 num_mem_ops: 0 event: 36496412
[cpu0_DISPATCH] entry:   2 instr_id: 41119007 fetched: 2 scheduled: 0 executed: 0 num_reg_dependent: 0 num_mem_ops: 0 event: 36496413
[cpu0_DISPATCH] entry:   3 instr_id: 41119008 fetched: 2 scheduled: 0 executed: 0 num_reg_dependent: 0 num_mem_ops: 0 event: 36496413
[cpu0_DISPATCH] entry:   4 instr_id: 41119009 fetched: 2 scheduled: 0 executed: 0 num_reg_dependent: 0 num_mem_ops: 0 event: 36496413
[cpu0_DISPATCH] entry:   5 instr_id: 41119010 fetched: 2 scheduled: 0 executed: 0 num_reg_dependent: 0 num_mem_ops: 0 event: 36496413
[cpu0_DISPATCH] entry:   6 instr_id: 41119011 fetched: 2 scheduled: 0 executed: 0 num_reg_dependent: 0 num_mem_ops: 1 event: 36496413
[cpu0_DISPATCH] entry:   7 instr_id: 41119012 fetched: 2 scheduled: 0 executed: 0 num_reg_dependent: 0 num_mem_ops: 1 event: 36496413
[cpu0_DISPATCH] entry:   8 instr_id: 41119013 fetched: 2 scheduled: 0 executed: 0 num_reg_dependent: 0 num_mem_ops: 1 event: 36496414
[cpu0_DISPATCH] entry:   9 instr_id: 41119014 fetched: 2 scheduled: 0 executed: 0 num_reg_dependent: 0 num_mem_ops: 1 event: 36496414
[cpu0_DISPATCH] entry:  10 instr_id: 41119015 fetched: 2 scheduled: 0 executed: 0 num_reg_dependent: 0 num_mem_ops: 0 event: 36496414
[cpu0_DISPATCH] entry:  11 instr_id: 41119016 fetched: 2 scheduled: 0 executed: 0 num_reg_dependent: 0 num_mem_ops: 0 event: 36496414
[cpu0_DISPATCH] entry:  12 instr_id: 41119017 fetched: 2 scheduled: 0 executed: 0 num_reg_dependent: 0 num_mem_ops: 0 event: 36496414
[cpu0_DISPATCH] entry:  13 instr_id: 41119018 fetched: 2 scheduled: 0 executed: 0 num_reg_dependent: 0 num_mem_ops: 0 event: 36496414
[cpu0_DISPATCH] entry:  14 instr_id: 41119019 fetched: 2 scheduled: 0 executed: 0 num_reg_dependent: 0 num_mem_ops: 0 event: 36496415
[cpu0_DISPATCH] entry:  15 instr_id: 41119020 fetched: 2 scheduled: 0 executed: 0 num_reg_dependent: 0 num_mem_ops: 0 event: 36496415
[cpu0_DISPATCH] entry:  16 instr_id: 41119021 fetched: 2 scheduled: 0 executed: 0 num_reg_dependent: 0 num_mem_ops: 0 event: 36496415
[cpu0_DISPATCH] entry:  17 instr_id: 41119022 fetched: 2 scheduled: 0 executed: 0 num_reg_dependent: 0 num_mem_ops: 0 event: 36496415
[cpu0_DISPATCH] entry:  18 instr_id: 41119023 fetched: 2 scheduled: 0 executed: 0 num_reg_dependent: 0 num_mem_ops: 0 event: 36496415
[cpu0_DISPATCH] entry:  19 instr_id: 41119024 fetched: 2 scheduled: 0 executed: 0 num_reg_dependent: 0 num_mem_ops: 0 event: 36496415
[cpu0_DISPATCH] entry:  20 instr_id: 41119025 fetched: 2 scheduled: 0 executed: 0 num_reg_dependent: 0 num_mem_ops: 0 event: 36496416
[cpu0_DISPATCH] entry:  21 instr_id: 41119026 fetched: 2 scheduled: 0 executed: 0 num_reg_dependent: 0 num_mem_ops: 0 event: 36496416
[cpu0_DISPATCH] entry:  22 instr_id: 41119027 fetched: 2 scheduled: 0 executed: 0 num_reg_dependent: 0 num_mem_ops: 0 event: 36496416
[cpu0_DISPATCH] entry:  23 instr_id: 41119028 fetched: 2 scheduled: 0 executed: 0 num_reg_dependent: 0 num_mem_ops: 0 event: 36496416
[cpu0_DISPATCH] entry:  24 instr_id: 41119029 fetched: 2 scheduled: 0 executed: 0 num_reg_dependent: 0 num_mem_ops: 0 event: 36496416
[cpu0_DISPATCH] entry:  25 instr_id: 41119030 fetched: 2 scheduled: 0 executed: 0 num_reg_dependent: 0 num_mem_ops: 0 event: 36496416
[cpu0_DISPATCH] entry:  26 instr_id: 41119031 fetched: 2 scheduled: 0 executed: 0 num_reg_dependent: 0 num_mem_ops: 0 event: 36496417
[cpu0_DISPATCH] entry:  27 instr_id: 41119032 fetched: 2 scheduled: 0 executed: 0 num_reg_dependent: 0 num_mem_ops: 1 event: 36496417
[cpu0_DISPATCH] entry:  28 instr_id: 41119033 fetched: 2 scheduled: 0 executed: 0 num_reg_dependent: 0 num_mem_ops: 0 event: 36496417
[cpu0_DISPATCH] entry:  29 instr_id: 41119034 fetched: 2 scheduled: 0 executed: 0 num_reg_dependent: 0 num_mem_ops: 1 event: 36496417
[cpu0_DISPATCH] entry:  30 instr_id: 41119035 fetched: 2 scheduled: 0 executed: 0 num_reg_dependent: 0 num_mem_ops: 0 event: 36496417
[cpu0_DISPATCH] entry:  31 instr_id: 41119036 fetched: 2 scheduled: 0 executed: 0 num_reg_dependent: 0 num_mem_ops: 1 event: 36496417

[cpu0_ROB] entry:   0 instr_id: 41118493 fetched: 2 scheduled: 2 executed: 1 num_reg_dependent: 0 num_mem_ops: 1 event: 36496354
[cpu0_ROB] entry:   1 instr_id: 41118494 fetched: 2 scheduled: 2 executed: 1 num_reg_dependent: 0 num_mem_ops: 1 event: 36496354
[cpu0_ROB] entry:   2 instr_id: 41118495 fetched: 2 scheduled: 2 executed: 2 num_reg_dependent: 0 num_mem_ops: 0 event: 36496354
[cpu0_ROB] entry:   3 instr_id: 41118496 fetched: 2 scheduled: 2 executed: 2 num_reg_dependent: 0 num_mem_ops: 0 event: 36496354
[cpu0_ROB] entry:   4 instr_id: 41118497 fetched: 2 scheduled: 2 executed: 2 num_reg_dependent: 0 num_mem_ops: 0 event: 36496355
[cpu0_ROB] entry:   5 instr_id: 41118498 fetched: 2 scheduled: 2 executed: 1 num_reg_dependent: 0 num_mem_ops: 1 event: 36496354
[cpu0_ROB] entry:   6 instr_id: 41118499 fetched: 2 scheduled: 2 executed: 0 num_reg_dependent: 1 num_mem_ops: 0 event: 36496345
[cpu0_ROB] entry:   7 instr_id: 41118500 fetched: 2 scheduled: 2 executed: 0 num_reg_dependent: 1 num_mem_ops: 0 event: 36496345
[cpu0_ROB] entry:   8 instr_id: 41118501 fetched: 2 scheduled: 2 executed: 0 num_reg_dependent: 1 num_mem_ops: 0 event: 36496345
[cpu0_ROB] entry:   9 instr_id: 41118502 fetched: 2 scheduled: 2 executed: 0 num_reg_dependent: 1 num_mem_ops: 0 event: 36496345
[cpu0_ROB] entry:  10 instr_id: 41118503 fetched: 2 scheduled: 2 executed: 0 num_reg_dependent: 2 num_mem_ops: 0 event: 36496345
[cpu0_ROB] entry:  11 instr_id: 41118504 fetched: 2 scheduled: 2 executed: 0 num_reg_dependent: 1 num_mem_ops: 0 event: 36496345
[cpu0_ROB] entry:  12 instr_id: 41118505 fetched: 2 scheduled: 2 executed: 0 num_reg_dependent: 1 num_mem_ops: 0 event: 36496346
[cpu0_ROB] entry:  13 instr_id: 41118506 fetched: 2 scheduled: 2 executed: 0 num_reg_dependent: 2 num_mem_ops: 0 event: 36496346
[cpu0_ROB] entry:  14 instr_id: 41118507 fetched: 2 scheduled: 2 executed: 0 num_reg_dependent: 2 num_mem_ops: 0 event: 36496346
[cpu0_ROB] entry:  15 instr_id: 41118508 fetched: 2 scheduled: 2 executed: 0 num_reg_dependent: 2 num_mem_ops: 0 event: 36496346
[cpu0_ROB] entry:  16 instr_id: 41118509 fetched: 2 scheduled: 2 executed: 0 num_reg_dependent: 2 num_mem_ops: 0 event: 36496346
[cpu0_ROB] entry:  17 instr_id: 41118510 fetched: 2 scheduled: 2 executed: 0 num_reg_dependent: 2 num_mem_ops: 0 event: 36496346
[cpu0_ROB] entry:  18 instr_id: 41118511 fetched: 2 scheduled: 2 executed: 0 num_reg_dependent: 2 num_mem_ops: 0 event: 36496346
[cpu0_ROB] entry:  19 instr_id: 41118512 fetched: 2 scheduled: 2 executed: 0 num_reg_dependent: 2 num_mem_ops: 0 event: 36496346
[cpu0_ROB] entry:  20 instr_id: 41118513 fetched: 2 scheduled: 2 executed: 0 num_reg_dependent: 2 num_mem_ops: 0 event: 36496346
[cpu0_ROB] entry:  21 instr_id: 41118514 fetched: 2 scheduled: 2 executed: 0 num_reg_dependent: 2 num_mem_ops: 0 event: 36496346
[cpu0_ROB] entry:  22 instr_id: 41118515 fetched: 2 scheduled: 2 executed: 0 num_reg_dependent: 2 num_mem_ops: 0 event: 36496346
[cpu0_ROB] entry:  23 instr_id: 41118516 fetched: 2 scheduled: 2 executed: 1 num_reg_dependent: 0 num_mem_ops: 1 event: 36496354
[cpu0_ROB] entry:  24 instr_id: 41118517 fetched: 2 scheduled: 2 executed: 1 num_reg_dependent: 0 num_mem_ops: 1 event: 36496354
[cpu0_ROB] entry:  25 instr_id: 41118518 fetched: 2 scheduled: 2 executed: 1 num_reg_dependent: 0 num_mem_ops: 1 event: 36496355
[cpu0_ROB] entry:  26 instr_id: 41118519 fetched: 2 scheduled: 2 executed: 0 num_reg_dependent: 1 num_mem_ops: 0 event: 36496347
[cpu0_ROB] entry:  27 instr_id: 41118520 fetched: 2 scheduled: 2 executed: 0 num_reg_dependent: 1 num_mem_ops: 0 event: 36496347
[cpu0_ROB] entry:  28 instr_id: 41118521 fetched: 2 scheduled: 2 executed: 0 num_reg_dependent: 1 num_mem_ops: 0 event: 36496347
[cpu0_ROB] entry:  29 instr_id: 41118522 fetched: 2 scheduled: 2 executed: 0 num_reg_dependent: 1 num_mem_ops: 0 event: 36496347
[cpu0_ROB] entry:  30 instr_id: 41118523 fetched: 2 scheduled: 2 executed: 0 num_reg_dependent: 1 num_mem_ops: 0 event: 36496347
[cpu0_ROB] entry:  31 instr_id: 41118524 fetched: 2 scheduled: 2 executed: 0 num_reg_dependent: 1 num_mem_ops: 0 event: 36496347
[cpu0_ROB] entry:  32 instr_id: 41118525 fetched: 2 scheduled: 2 executed: 0 num_reg_dependent: 2 num_mem_ops: 0 event: 36496347
[cpu0_ROB] entry:  33 instr_id: 41118526 fetched: 2 scheduled: 2 executed: 0 num_reg_dependent: 2 num_mem_ops: 0 event: 36496347
[cpu0_ROB] entry:  34 instr_id: 41118527 fetched: 2 scheduled: 2 executed: 0 num_reg_dependent: 2 num_mem_ops: 0 event: 36496347
[cpu0_ROB] entry:  35 instr_id: 41118528 fetched: 2 scheduled: 2 executed: 0 num_reg_dependent: 2 num_mem_ops: 0 event: 36496347
[cpu0_ROB] entry:  36 instr_id: 41118529 fetched: 2 scheduled: 2 executed: 0 num_reg_dependent: 2 num_mem_ops: 0 event: 36496348
[cpu0_ROB] entry:  37 instr_id: 41118530 fetched: 2 scheduled: 2 executed: 0 num_reg_dependent: 2 num_mem_ops: 0 event: 36496348
[cpu0_ROB] entry:  38 instr_id: 41118531 fetched: 2 scheduled: 2 executed: 0 num_reg_dependent: 2 num_mem_ops: 0 event: 36496348
[cpu0_ROB] entry:  39 instr_id: 41118532 fetched: 2 scheduled: 2 executed: 0 num_reg_dependent: 2 num_mem_ops: 0 event: 36496348
[cpu0_ROB] entry:  40 instr_id: 41118533 fetched: 2 scheduled: 2 executed: 0 num_reg_dependent: 2 num_mem_ops: 0 event: 36496348
[cpu0_ROB] entry:  41 instr_id: 41118534 fetched: 2 scheduled: 2 executed: 0 num_reg_dependent: 2 num_mem_ops: 0 event: 36496348
[cpu0_ROB] entry:  42 instr_id: 41118535 fetched: 2 scheduled: 2 executed: 0 num_reg_dependent: 2 num_mem_ops: 0 event: 36496348
[cpu0_ROB] entry:  43 instr_id: 41118536 fetched: 2 scheduled: 2 executed: 1 num_reg_dependent: 0 num_mem_ops: 1 event: 36496355
[cpu0_ROB] entry:  44 instr_id: 41118537 fetched: 2 scheduled: 2 executed: 1 num_reg_dependent: 0 num_mem_ops: 1 event: 36496355
[cpu0_ROB] entry:  45 instr_id: 41118538 fetched: 2 scheduled: 2 executed: 1 num_reg_dependent: 0 num_mem_ops: 1 event: 36496355
[cpu0_ROB] entry:  46 instr_id: 41118539 fetched: 2 scheduled: 2 executed: 2 num_reg_dependent: 0 num_mem_ops: 0 event: 36496355
[cpu0_ROB] entry:  47 instr_id: 41118540 fetched: 2 scheduled: 2 executed: 0 num_reg_dependent: 1 num_mem_ops: 0 event: 36496348
[cpu0_ROB] entry:  48 instr_id: 41118541 fetched: 2 scheduled: 2 executed: 0 num_reg_dependent: 1 num_mem_ops: 0 event: 36496349
[cpu0_ROB] entry:  49 instr_id: 41118542 fetched: 2 scheduled: 2 executed: 0 num_reg_dependent: 1 num_mem_ops: 0 event: 36496349
[cpu0_ROB] entry:  50 instr_id: 41118543 fetched: 2 scheduled: 2 executed: 0 num_reg_dependent: 1 num_mem_ops: 0 event: 36496349
[cpu0_ROB] entry:  51 instr_id: 41118544 fetched: 2 scheduled: 2 executed: 0 num_reg_dependent: 1 num_mem_ops: 0 event: 36496349
[cpu0_ROB] entry:  52 instr_id: 41118545 fetched: 2 scheduled: 2 executed: 0 num_reg_dependent: 1 num_mem_ops: 0 event: 36496349
[cpu0_ROB] entry:  53 instr_id: 41118546 fetched: 2 scheduled: 2 executed: 0 num_reg_dependent: 2 num_mem_ops: 0 event: 36496349
[cpu0_ROB] entry:  54 instr_id: 41118547 fetched: 2 scheduled: 2 executed: 0 num_reg_dependent: 2 num_mem_ops: 0 event: 36496349
[cpu0_ROB] entry:  55 instr_id: 41118548 fetched: 2 scheduled: 2 executed: 0 num_reg_dependent: 2 num_mem_ops: 0 event: 36496349
[cpu0_ROB] entry:  56 instr_id: 41118549 fetched: 2 scheduled: 2 executed: 0 num_reg_dependent: 2 num_mem_ops: 0 event: 36496349
[cpu0_ROB] entry:  57 instr_id: 41118550 fetched: 2 scheduled: 2 executed: 0 num_reg_dependent: 2 num_mem_ops: 0 event: 36496349
[cpu0_ROB] entry:  58 instr_id: 41118551 fetched: 2 scheduled: 2 executed: 0 num_reg_dependent: 2 num_mem_ops: 0 event: 36496349
[cpu0_ROB] entry:  59 instr_id: 41118552 fetched: 2 scheduled: 2 executed: 0 num_reg_dependent: 2 num_mem_ops: 0 event: 36496349
[cpu0_ROB] entry:  60 instr_id: 41118553 fetched: 2 scheduled: 2 executed: 0 num_reg_dependent: 2 num_mem_ops: 0 event: 36496350
[cpu0_ROB] entry:  61 instr_id: 41118554 fetched: 2 scheduled: 2 executed: 0 num_reg_dependent: 2 num_mem_ops: 0 event: 36496350
[cpu0_ROB] entry:  62 instr_id: 41118555 fetched: 2 scheduled: 2 executed: 0 num_reg_dependent: 2 num_mem_ops: 0 event: 36496350
[cpu0_ROB] entry:  63 instr_id: 41118556 fetched: 2 scheduled: 2 executed: 0 num_reg_dependent: 2 num_mem_ops: 0 event: 36496350
[cpu0_ROB] entry:  64 instr_id: 41118557 fetched: 2 scheduled: 2 executed: 2 num_reg_dependent: 0 num_mem_ops: 0 event: 36496356
[cpu0_ROB] entry:  65 instr_id: 41118558 fetched: 2 scheduled: 2 executed: 2 num_reg_dependent: 0 num_mem_ops: 0 event: 36496355
[cpu0_ROB] entry:  66 instr_id: 41118559 fetched: 2 scheduled: 2 executed: 2 num_reg_dependent: 0 num_mem_ops: 0 event: 36496355
[cpu0_ROB] entry:  67 instr_id: 41118560 fetched: 2 scheduled: 2 executed: 2 num_reg_dependent: 0 num_mem_ops: 0 event: 36496355
[cpu0_ROB] entry:  68 instr_id: 41118561 fetched: 2 scheduled: 2 executed: 1 num_reg_dependent: 0 num_mem_ops: 1 event: 36496356
[cpu0_ROB] entry:  69 instr_id: 41118562 fetched: 2 scheduled: 2 executed: 1 num_reg_dependent: 0 num_mem_ops: 1 event: 36496356
[cpu0_ROB] entry:  70 instr_id: 41118563 fetched: 2 scheduled: 2 executed: 2 num_reg_dependent: 0 num_mem_ops: 0 event: 36496355
[cpu0_ROB] entry:  71 instr_id: 41118564 fetched: 2 scheduled: 2 executed: 2 num_reg_dependent: 0 num_mem_ops: 0 event: 36496356
[cpu0_ROB] entry:  72 instr_id: 41118565 fetched: 2 scheduled: 2 executed: 2 num_reg_dependent: 0 num_mem_ops: 0 event: 36496357
[cpu0_ROB] entry:  73 instr_id: 41118566 fetched: 2 scheduled: 2 executed: 1 num_reg_dependent: 0 num_mem_ops: 1 event: 36496356
[cpu0_ROB] entry:  74 instr_id: 41118567 fetched: 2 scheduled: 2 executed: 0 num_reg_dependent: 1 num_mem_ops: 0 event: 36496351
[cpu0_ROB] entry:  75 instr_id: 41118568 fetched: 2 scheduled: 2 executed: 0 num_reg_dependent: 1 num_mem_ops: 0 event: 36496351
[cpu0_ROB] entry:  76 instr_id: 41118569 fetched: 2 scheduled: 2 executed: 0 num_reg_dependent: 1 num_mem_ops: 0 event: 36496351
[cpu0_ROB] entry:  77 instr_id: 41118570 fetched: 2 scheduled: 2 executed: 0 num_reg_dependent: 1 num_mem_ops: 0 event: 36496351
[cpu0_ROB] entry:  78 instr_id: 41118571 fetched: 2 scheduled: 2 executed: 0 num_reg_dependent: 2 num_mem_ops: 0 event: 36496351
[cpu0_ROB] entry:  79 instr_id: 41118572 fetched: 2 scheduled: 2 executed: 0 num_reg_dependent: 1 num_mem_ops: 0 event: 36496351
[cpu0_ROB] entry:  80 instr_id: 41118573 fetched: 2 scheduled: 2 executed: 0 num_reg_dependent: 1 num_mem_ops: 0 event: 36496351
[cpu0_ROB] entry:  81 instr_id: 41118574 fetched: 2 scheduled: 2 executed: 0 num_reg_dependent: 2 num_mem_ops: 0 event: 36496351
[cpu0_ROB] entry:  82 instr_id: 41118575 fetched: 2 scheduled: 2 executed: 0 num_reg_dependent: 2 num_mem_ops: 0 event: 36496351
[cpu0_ROB] entry:  83 instr_id: 41118576 fetched: 2 scheduled: 2 executed: 0 num_reg_dependent: 2 num_mem_ops: 0 event: 36496351
[cpu0_ROB] entry:  84 instr_id: 41118577 fetched: 2 scheduled: 2 executed: 0 num_reg_dependent: 2 num_mem_ops: 0 event: 36496352
[cpu0_ROB] entry:  85 instr_id: 41118578 fetched: 2 scheduled: 2 executed: 0 num_reg_dependent: 2 num_mem_ops: 0 event: 36496352
[cpu0_ROB] entry:  86 instr_id: 41118579 fetched: 2 scheduled: 2 executed: 0 num_reg_dependent: 2 num_mem_ops: 0 event: 36496352
[cpu0_ROB] entry:  87 instr_id: 41118580 fetched: 2 scheduled: 2 executed: 0 num_reg_dependent: 2 num_mem_ops: 0 event: 36496352
[cpu0_ROB] entry:  88 instr_id: 41118581 fetched: 2 scheduled: 2 executed: 0 num_reg_dependent: 2 num_mem_ops: 0 event: 36496352
[cpu0_ROB] entry:  89 instr_id: 41118582 fetched: 2 scheduled: 2 executed: 0 num_reg_dependent: 2 num_mem_ops: 0 event: 36496352
[cpu0_ROB] entry:  90 instr_id: 41118583 fetched: 2 scheduled: 2 executed: 0 num_reg_dependent: 2 num_mem_ops: 0 event: 36496352
[cpu0_ROB] entry:  91 instr_id: 41118584 fetched: 2 scheduled: 2 executed: 1 num_reg_dependent: 0 num_mem_ops: 1 event: 36496356
[cpu0_ROB] entry:  92 instr_id: 41118585 fetched: 2 scheduled: 2 executed: 1 num_reg_dependent: 0 num_mem_ops: 1 event: 36496356
[cpu0_ROB] entry:  93 instr_id: 41118586 fetched: 2 scheduled: 2 executed: 1 num_reg_dependent: 0 num_mem_ops: 1 event: 36496356
[cpu0_ROB] entry:  94 instr_id: 41118587 fetched: 2 scheduled: 2 executed: 0 num_reg_dependent: 1 num_mem_ops: 0 event: 36496352
[cpu0_ROB] entry:  95 instr_id: 41118588 fetched: 2 scheduled: 2 executed: 0 num_reg_dependent: 1 num_mem_ops: 0 event: 36496352
[cpu0_ROB] entry:  96 instr_id: 41118589 fetched: 2 scheduled: 2 executed: 0 num_reg_dependent: 1 num_mem_ops: 0 event: 36496353
[...]
[cpu0_ROB] entry: 503 instr_id: 41118996 fetched: 2 scheduled: 0 executed: 0 num_reg_dependent: 0 num_mem_ops: 0 event: 36496411
[cpu0_ROB] entry: 504 instr_id: 41118997 fetched: 2 scheduled: 0 executed: 0 num_reg_dependent: 0 num_mem_ops: 0 event: 36496411
[cpu0_ROB] entry: 505 instr_id: 41118998 fetched: 2 scheduled: 0 executed: 0 num_reg_dependent: 0 num_mem_ops: 0 event: 36496411
[cpu0_ROB] entry: 506 instr_id: 41118999 fetched: 2 scheduled: 0 executed: 0 num_reg_dependent: 0 num_mem_ops: 0 event: 36496411
[cpu0_ROB] entry: 507 instr_id: 41119000 fetched: 2 scheduled: 0 executed: 0 num_reg_dependent: 0 num_mem_ops: 0 event: 36496411
[cpu0_ROB] entry: 508 instr_id: 41119001 fetched: 2 scheduled: 0 executed: 0 num_reg_dependent: 0 num_mem_ops: 0 event: 36496412
[cpu0_ROB] entry: 509 instr_id: 41119002 fetched: 2 scheduled: 0 executed: 0 num_reg_dependent: 0 num_mem_ops: 0 event: 36496412
[cpu0_ROB] entry: 510 instr_id: 41119003 fetched: 2 scheduled: 0 executed: 0 num_reg_dependent: 0 num_mem_ops: 0 event: 36496412
[cpu0_ROB] entry: 511 instr_id: 41119004 fetched: 2 scheduled: 0 executed: 0 num_reg_dependent: 0 num_mem_ops: 0 event: 36496412

[cpu0_LQ] entry:   0 instr_id: 41118536 address: 0x9310090 fetch_issued: true event_cycle: 36496355 waits on -
[cpu0_LQ] entry:   1 instr_id: 41118498 address: 0x93100d0 fetch_issued: true event_cycle: 36496354 waits on -
[cpu0_LQ] entry:   2 instr_id: 41118516 address: 0x9310080 fetch_issued: true event_cycle: 36496354 waits on -
[cpu0_LQ] entry:   3 instr_id: 41118537 address: 0x93100c0 fetch_issued: true event_cycle: 36496355 waits on -
[cpu0_LQ] entry:   4 instr_id: 41118538 address: 0x93100f0 fetch_issued: true event_cycle: 36496355 waits on -
[cpu0_LQ] entry:   5 instr_id: 41118493 address: 0x9310070 fetch_issued: true event_cycle: 36496354 waits on -
[cpu0_LQ] entry:   6 instr_id: 41118494 address: 0x93100a0 fetch_issued: true event_cycle: 36496354 waits on -
[cpu0_LQ] entry:   7 instr_id: 41118517 address: 0x93100b0 fetch_issued: true event_cycle: 36496354 waits on -
[cpu0_LQ] entry:   8 instr_id: 41118518 address: 0x93100e0 fetch_issued: true event_cycle: 36496355 waits on -
[cpu0_LQ] entry:   9 instr_id: 41118762 address: 0x285b1080 fetch_issued: true event_cycle: 0 waits on -
[cpu0_LQ] entry:  10 empty
[cpu0_LQ] entry:  11 instr_id: 41118561 address: 0x9310870 fetch_issued: true event_cycle: 36496356 waits on -
[cpu0_LQ] entry:  12 instr_id: 41118562 address: 0x93108a0 fetch_issued: true event_cycle: 36496356 waits on -
[cpu0_LQ] entry:  13 empty
[cpu0_LQ] entry:  14 instr_id: 41118566 address: 0x93108d0 fetch_issued: true event_cycle: 36496356 waits on -
[cpu0_LQ] entry:  15 instr_id: 41118584 address: 0x9310880 fetch_issued: true event_cycle: 36496356 waits on -
[cpu0_LQ] entry:  16 instr_id: 41118585 address: 0x93108b0 fetch_issued: true event_cycle: 36496356 waits on -
[cpu0_LQ] entry:  17 instr_id: 41118586 address: 0x93108e0 fetch_issued: true event_cycle: 36496356 waits on -
[cpu0_LQ] entry:  18 instr_id: 41118604 address: 0x9310890 fetch_issued: true event_cycle: 36496356 waits on -
[cpu0_LQ] entry:  19 instr_id: 41118605 address: 0x93108c0 fetch_issued: true event_cycle: 36496356 waits on -
[cpu0_LQ] entry:  20 instr_id: 41118606 address: 0x93108f0 fetch_issued: true event_cycle: 36496356 waits on -
[cpu0_LQ] entry:  21 empty
[cpu0_LQ] entry:  22 empty
[cpu0_LQ] entry:  23 instr_id: 41118764 address: 0x285b1090 fetch_issued: true event_cycle: 0 waits on -
[cpu0_LQ] entry:  24 instr_id: 41118765 address: 0x9312070 fetch_issued: true event_cycle: 0 waits on -
[cpu0_LQ] entry:  25 empty
[cpu0_LQ] entry:  26 empty
[cpu0_LQ] entry:  27 instr_id: 41118766 address: 0x93120a0 fetch_issued: true event_cycle: 0 waits on -
[cpu0_LQ] entry:  28 instr_id: 41118767 address: 0x285b10a0 fetch_issued: true event_cycle: 0 waits on -
[cpu0_LQ] entry:  29 empty
[cpu0_LQ] entry:  30 empty
[cpu0_LQ] entry:  31 empty
[cpu0_LQ] entry:  32 empty
[cpu0_LQ] entry:  33 empty
[cpu0_LQ] entry:  34 instr_id: 41118697 address: 0x9311870 fetch_issued: true event_cycle: 36496652 waits on -
[cpu0_LQ] entry:  35 instr_id: 41118698 address: 0x93118a0 fetch_issued: true event_cycle: 36496653 waits on -
[cpu0_LQ] entry:  36 empty
[cpu0_LQ] entry:  37 instr_id: 41118702 address: 0x93118d0 fetch_issued: true event_cycle: 36496654 waits on -
[cpu0_LQ] entry:  38 instr_id: 41118720 address: 0x9311880 fetch_issued: true event_cycle: 0 waits on -
[cpu0_LQ] entry:  39 instr_id: 41118721 address: 0x93118b0 fetch_issued: true event_cycle: 0 waits on -
[cpu0_LQ] entry:  40 instr_id: 41118722 address: 0x93118e0 fetch_issued: true event_cycle: 0 waits on -
[cpu0_LQ] entry:  41 instr_id: 41118740 address: 0x9311890 fetch_issued: true event_cycle: 0 waits on -
[cpu0_LQ] entry:  42 instr_id: 41118741 address: 0x93118c0 fetch_issued: true event_cycle: 0 waits on -
[cpu0_LQ] entry:  43 instr_id: 41118742 address: 0x93118f0 fetch_issued: true event_cycle: 0 waits on -
[cpu0_LQ] entry:  44 instr_id: 41118770 address: 0x93120d0 fetch_issued: true event_cycle: 0 waits on -
[cpu0_LQ] entry:  45 instr_id: 41118788 address: 0x9312080 fetch_issued: true event_cycle: 0 waits on -
[cpu0_LQ] entry:  46 instr_id: 41118789 address: 0x93120b0 fetch_issued: true event_cycle: 0 waits on -
[cpu0_LQ] entry:  47 instr_id: 41118790 address: 0x93120e0 fetch_issued: true event_cycle: 0 waits on -
[cpu0_LQ] entry:  48 instr_id: 41118808 address: 0x9312090 fetch_issued: true event_cycle: 0 waits on -
[cpu0_LQ] entry:  49 instr_id: 41118809 address: 0x93120c0 fetch_issued: true event_cycle: 0 waits on -
[cpu0_LQ] entry:  50 instr_id: 41118810 address: 0x93120f0 fetch_issued: true event_cycle: 0 waits on -
[cpu0_LQ] entry:  51 instr_id: 41118830 address: 0x285b10b0 fetch_issued: true event_cycle: 0 waits on -
[cpu0_LQ] entry:  52 instr_id: 41118832 address: 0x285b10c0 fetch_issued: true event_cycle: 0 waits on -
[cpu0_LQ] entry:  53 instr_id: 41118833 address: 0x9312870 fetch_issued: true event_cycle: 0 waits on -
[cpu0_LQ] entry:  54 instr_id: 41118834 address: 0x93128a0 fetch_issued: true event_cycle: 0 waits on -
[cpu0_LQ] entry:  55 instr_id: 41118835 address: 0x285b10d0 fetch_issued: true event_cycle: 0 waits on -
[cpu0_LQ] entry:  56 instr_id: 41118838 address: 0x93128d0 fetch_issued: true event_cycle: 0 waits on -
[cpu0_LQ] entry:  57 instr_id: 41118856 address: 0x9312880 fetch_issued: true event_cycle: 0 waits on -
[cpu0_LQ] entry:  58 instr_id: 41118857 address: 0x93128b0 fetch_issued: true event_cycle: 0 waits on -
[cpu0_LQ] entry:  59 instr_id: 41118858 address: 0x93128e0 fetch_issued: true event_cycle: 0 waits on -
[cpu0_LQ] entry:  60 instr_id: 41118876 address: 0x9312890 fetch_issued: true event_cycle: 0 waits on -
[cpu0_LQ] entry:  61 instr_id: 41118877 address: 0x93128c0 fetch_issued: true event_cycle: 0 waits on -
[cpu0_LQ] entry:  62 instr_id: 41118878 address: 0x93128f0 fetch_issued: true event_cycle: 0 waits on -
[cpu0_LQ] entry:  63 instr_id: 41118898 address: 0x285b10e0 fetch_issued: true event_cycle: 0 waits on -
[cpu0_LQ] entry:  64 instr_id: 41118900 address: 0x285b10f0 fetch_issued: true event_cycle: 0 waits on -
[cpu0_LQ] entry:  65 instr_id: 41118901 address: 0x9313070 fetch_issued: true event_cycle: 0 waits on -
[cpu0_LQ] entry:  66 instr_id: 41118902 address: 0x93130a0 fetch_issued: true event_cycle: 0 waits on -
[cpu0_LQ] entry:  67 instr_id: 41118903 address: 0x285b1100 fetch_issued: true event_cycle: 0 waits on -
[cpu0_LQ] entry:  68 instr_id: 41118906 address: 0x93130d0 fetch_issued: true event_cycle: 0 waits on -
[cpu0_LQ] entry:  69 instr_id: 41118924 address: 0x9313080 fetch_issued: true event_cycle: 0 waits on -
[cpu0_LQ] entry:  70 instr_id: 41118925 address: 0x93130b0 fetch_issued: true event_cycle: 0 waits on -
[cpu0_LQ] entry:  71 instr_id: 41118926 address: 0x93130e0 fetch_issued: true event_cycle: 0 waits on -
[cpu0_LQ] entry:  72 instr_id: 41118944 address: 0x9313090 fetch_issued: true event_cycle: 0 waits on -
[cpu0_LQ] entry:  73 instr_id: 41118945 address: 0x93130c0 fetch_issued: true event_cycle: 0 waits on -
[cpu0_LQ] entry:  74 instr_id: 41118946 address: 0x93130f0 fetch_issued: true event_cycle: 0 waits on -
[cpu0_LQ] entry:  75 instr_id: 41118966 address: 0x285b1110 fetch_issued: true event_cycle: 0 waits on -
[cpu0_LQ] entry:  76 instr_id: 41118968 address: 0x285b1120 fetch_issued: true event_cycle: 0 waits on -
[cpu0_LQ] entry:  77 instr_id: 41118969 address: 0x9313870 fetch_issued: true event_cycle: 0 waits on -
[cpu0_LQ] entry:  78 instr_id: 41118970 address: 0x93138a0 fetch_issued: true event_cycle: 0 waits on -
[cpu0_LQ] entry:  79 instr_id: 41118971 address: 0x285b1130 fetch_issued: true event_cycle: 0 waits on -
[cpu0_LQ] entry:  80 instr_id: 41118974 address: 0x93138d0 fetch_issued: true event_cycle: 0 waits on -
[cpu0_LQ] entry:  81 instr_id: 41118992 address: 0x9313880 fetch_issued: true event_cycle: 0 waits on -
[cpu0_LQ] entry:  82 instr_id: 41118993 address: 0x93138b0 fetch_issued: true event_cycle: 0 waits on -
[cpu0_LQ] entry:  83 instr_id: 41118994 address: 0x93138e0 fetch_issued: true event_cycle: 0 waits on -
[cpu0_LQ] entry:  84 empty
[cpu0_LQ] entry:  85 empty
[cpu0_LQ] entry:  86 empty
[cpu0_LQ] entry:  87 empty
[cpu0_LQ] entry:  88 empty
[cpu0_LQ] entry:  89 empty
[cpu0_LQ] entry:  90 empty
[cpu0_LQ] entry:  91 empty
[cpu0_LQ] entry:  92 empty
[cpu0_LQ] entry:  93 empty
[cpu0_LQ] entry:  94 empty
[cpu0_LQ] entry:  95 empty
[cpu0_LQ] entry:  96 empty
[cpu0_LQ] entry:  97 empty
[cpu0_LQ] entry:  98 empty
[cpu0_LQ] entry:  99 empty
[cpu0_LQ] entry: 100 empty
[cpu0_LQ] entry: 101 empty
[cpu0_LQ] entry: 102 empty
[cpu0_LQ] entry: 103 empty
[cpu0_LQ] entry: 104 empty
[cpu0_LQ] entry: 105 empty
[cpu0_LQ] entry: 106 empty
[cpu0_LQ] entry: 107 empty
[cpu0_LQ] entry: 108 empty
[cpu0_LQ] entry: 109 empty
[cpu0_LQ] entry: 110 empty
[cpu0_LQ] entry: 111 empty
[cpu0_LQ] entry: 112 empty
[cpu0_LQ] entry: 113 empty
[cpu0_LQ] entry: 114 empty
[cpu0_LQ] entry: 115 empty
[cpu0_LQ] entry: 116 empty
[cpu0_LQ] entry: 117 empty
[cpu0_LQ] entry: 118 empty
[cpu0_LQ] entry: 119 empty
[cpu0_LQ] entry: 120 empty
[cpu0_LQ] entry: 121 empty
[cpu0_LQ] entry: 122 empty
[cpu0_LQ] entry: 123 empty
[cpu0_LQ] entry: 124 empty
[cpu0_LQ] entry: 125 empty
[cpu0_LQ] entry: 126 empty
[cpu0_LQ] entry: 127 empty
[cpu0_LQ] entry: 128 empty
[cpu0_LQ] entry: 129 empty
[cpu0_LQ] entry: 130 empty
[cpu0_LQ] entry: 131 empty
[cpu0_LQ] entry: 132 empty
[cpu0_LQ] entry: 133 empty
[cpu0_LQ] entry: 134 empty
[cpu0_LQ] entry: 135 empty
[cpu0_LQ] entry: 136 empty
[cpu0_LQ] entry: 137 empty
[cpu0_LQ] entry: 138 empty
[cpu0_LQ] entry: 139 empty
[cpu0_LQ] entry: 140 empty
[cpu0_LQ] entry: 141 empty
[cpu0_LQ] entry: 142 empty
[cpu0_LQ] entry: 143 empty
[cpu0_LQ] entry: 144 empty
[cpu0_LQ] entry: 145 empty
[cpu0_LQ] entry: 146 empty
[cpu0_LQ] entry: 147 empty
[cpu0_LQ] entry: 148 empty
[cpu0_LQ] entry: 149 empty
[cpu0_LQ] entry: 150 empty
[cpu0_LQ] entry: 151 empty
[cpu0_LQ] entry: 152 empty
[cpu0_LQ] entry: 153 empty
[cpu0_LQ] entry: 154 empty
[cpu0_LQ] entry: 155 empty
[cpu0_LQ] entry: 156 empty
[cpu0_LQ] entry: 157 empty
[cpu0_LQ] entry: 158 empty
[cpu0_LQ] entry: 159 empty
[cpu0_LQ] entry: 160 empty
[cpu0_LQ] entry: 161 empty
[cpu0_LQ] entry: 162 empty
[cpu0_LQ] entry: 163 empty
[cpu0_LQ] entry: 164 empty
[cpu0_LQ] entry: 165 empty
[cpu0_LQ] entry: 166 empty
[cpu0_LQ] entry: 167 empty
[cpu0_LQ] entry: 168 empty
[cpu0_LQ] entry: 169 empty
[cpu0_LQ] entry: 170 empty
[cpu0_LQ] entry: 171 empty
[cpu0_LQ] entry: 172 empty
[cpu0_LQ] entry: 173 empty
[cpu0_LQ] entry: 174 empty
[cpu0_LQ] entry: 175 empty
[cpu0_LQ] entry: 176 empty
[cpu0_LQ] entry: 177 empty
[cpu0_LQ] entry: 178 empty
[cpu0_LQ] entry: 179 empty
[cpu0_LQ] entry: 180 empty
[cpu0_LQ] entry: 181 empty
[cpu0_LQ] entry: 182 empty
[cpu0_LQ] entry: 183 empty
[cpu0_LQ] entry: 184 empty
[cpu0_LQ] entry: 185 empty
[cpu0_LQ] entry: 186 empty
[cpu0_LQ] entry: 187 empty
[cpu0_LQ] entry: 188 empty
[cpu0_LQ] entry: 189 empty
[cpu0_LQ] entry: 190 empty
[cpu0_LQ] entry: 191 empty

[cpu0_SQ] entry:   0 instr_id: 41118515 address: 0x2b1a8fc0 fetch_issued: true event_cycle: 36496336 LQ waiting: []
[cpu0_SQ] entry:   1 instr_id: 41118535 address: 0x2b1a8fd0 fetch_issued: true event_cycle: 36496339 LQ waiting: []
[cpu0_SQ] entry:   2 instr_id: 41118556 address: 0x2b1a8fe0 fetch_issued: true event_cycle: 36496343 LQ waiting: []
[cpu0_SQ] entry:   3 instr_id: 41118583 address: 0x2b1a8ff0 fetch_issued: true event_cycle: 36496347 LQ waiting: []
[cpu0_SQ] entry:   4 instr_id: 41118603 address: 0x2b1a9000 fetch_issued: true event_cycle: 36496351 LQ waiting: []
[cpu0_SQ] entry:   5 instr_id: 41118624 address: 0x2b1a9010 fetch_issued: true event_cycle: 36496354 LQ waiting: []
[cpu0_SQ] entry:   6 instr_id: 41118651 address: 0x2b1a9020 fetch_issued: true event_cycle: 36496651 LQ waiting: []
[cpu0_SQ] entry:   7 instr_id: 41118671 address: 0x2b1a9030 fetch_issued: true event_cycle: 36496362 LQ waiting: []
[cpu0_SQ] entry:   8 instr_id: 41118692 address: 0x2b1a9040 fetch_issued: true event_cycle: 36496365 LQ waiting: []
[cpu0_SQ] entry:   9 instr_id: 41118719 address: 0x2b1a9050 fetch_issued: true event_cycle: 36496370 LQ waiting: []
[cpu0_SQ] entry:  10 instr_id: 41118739 address: 0x2b1a9060 fetch_issued: true event_cycle: 36496373 LQ waiting: []
[cpu0_SQ] entry:  11 instr_id: 41118760 address: 0x2b1a9070 fetch_issued: true event_cycle: 36496377 LQ waiting: []
[cpu0_SQ] entry:  12 instr_id: 41118787 address: 0x2b1a9080 fetch_issued: true event_cycle: 36496381 LQ waiting: []
[cpu0_SQ] entry:  13 instr_id: 41118807 address: 0x2b1a9090 fetch_issued: true event_cycle: 36496385 LQ waiting: []
[cpu0_SQ] entry:  14 instr_id: 41118828 address: 0x2b1a90a0 fetch_issued: true event_cycle: 36496388 LQ waiting: []
[cpu0_SQ] entry:  15 instr_id: 41118855 address: 0x2b1a90b0 fetch_issued: true event_cycle: 36496393 LQ waiting: []
[cpu0_SQ] entry:  16 instr_id: 41118875 address: 0x2b1a90c0 fetch_issued: true event_cycle: 36496396 LQ waiting: []
[cpu0_SQ] entry:  17 instr_id: 41118896 address: 0x2b1a90d0 fetch_issued: true event_cycle: 36496399 LQ waiting: []
[cpu0_SQ] entry:  18 instr_id: 41118923 address: 0x2b1a90e0 fetch_issued: true event_cycle: 36496404 LQ waiting: []
[cpu0_SQ] entry:  19 instr_id: 41118943 address: 0x2b1a90f0 fetch_issued: true event_cycle: 36496407 LQ waiting: []
[cpu0_SQ] entry:  20 instr_id: 41118964 address: 0x2b1a9100 fetch_issued: true event_cycle: 36496411 LQ waiting: []
[cpu0_SQ] entry:  21 instr_id: 41118991 address: 0x2b1a9110 fetch_issued: true event_cycle: 36496415 LQ waiting: []

LLC_MSHR empty

LLC_tags empty

LLC_translation empty

LLC_RQ empty

LLC_WQ empty

LLC_PQ empty

[cpu0_DTLB_MSHR] entry:   0 instr_id: 41118561 address: 0x9310870 v_addr: 0x9310870 type: LOAD event: 18446744073709551615

cpu0_DTLB_tags empty

cpu0_DTLB_translation empty

cpu0_DTLB_RQ empty

cpu0_DTLB_WQ empty

cpu0_DTLB_PQ empty

cpu0_ITLB_MSHR empty

cpu0_ITLB_tags empty

cpu0_ITLB_translation empty

cpu0_ITLB_RQ empty

cpu0_ITLB_WQ empty

cpu0_ITLB_PQ empty

cpu0_L1D_MSHR empty

cpu0_L1D_tags empty

[cpu0_L1D_translation] entry:   0 instr_id: 0 address: 0x9310880 v_addr: 0x9310880 is_translated: false translate_issued: true event_cycle: 36493627
[cpu0_L1D_translation] entry:   1 instr_id: 0 address: 0x93108c0 v_addr: 0x93108c0 is_translated: false translate_issued: true event_cycle: 36493637
[cpu0_L1D_translation] entry:   2 instr_id: 0 address: 0x9310040 v_addr: 0x9310040 is_translated: false translate_issued: true event_cycle: 36496028
[cpu0_L1D_translation] entry:   3 instr_id: 0 address: 0x9310840 v_addr: 0x9310840 is_translated: false translate_issued: true event_cycle: 36496028
[cpu0_L1D_translation] entry:   4 instr_id: 0 address: 0x93100c0 v_addr: 0x93100c0 is_translated: false translate_issued: true event_cycle: 36496040
[cpu0_L1D_translation] entry:   5 instr_id: 0 address: 0x9310080 v_addr: 0x9310080 is_translated: false translate_issued: true event_cycle: 36496041
[cpu0_L1D_translation] entry:   6 instr_id: 0 address: 0x9310880 v_addr: 0x9310880 is_translated: false translate_issued: true event_cycle: 36496041
[cpu0_L1D_translation] entry:   7 instr_id: 0 address: 0x93108c0 v_addr: 0x93108c0 is_translated: false translate_issued: true event_cycle: 36496302
[cpu0_L1D_translation] entry:   8 instr_id: 41118493 address: 0x9310070 v_addr: 0x9310070 is_translated: false translate_issued: true event_cycle: 36496336
[cpu0_L1D_translation] entry:   9 instr_id: 41118498 address: 0x93100d0 v_addr: 0x93100d0 is_translated: false translate_issued: true event_cycle: 36496337
[cpu0_L1D_translation] entry:  10 instr_id: 41118494 address: 0x93100a0 v_addr: 0x93100a0 is_translated: false translate_issued: true event_cycle: 36496338
[cpu0_L1D_translation] entry:  11 instr_id: 41118516 address: 0x9310080 v_addr: 0x9310080 is_translated: false translate_issued: true event_cycle: 36496340
[cpu0_L1D_translation] entry:  12 instr_id: 41118518 address: 0x93100e0 v_addr: 0x93100e0 is_translated: false translate_issued: true event_cycle: 36496342
[cpu0_L1D_translation] entry:  13 instr_id: 41118536 address: 0x9310090 v_addr: 0x9310090 is_translated: false translate_issued: true event_cycle: 36496343
[cpu0_L1D_translation] entry:  14 instr_id: 41118537 address: 0x93100c0 v_addr: 0x93100c0 is_translated: false translate_issued: true event_cycle: 36496344
[cpu0_L1D_translation] entry:  15 instr_id: 41118561 address: 0x9310870 v_addr: 0x9310870 is_translated: false translate_issued: true event_cycle: 36496360
[cpu0_L1D_translation] entry:  16 instr_id: 41118562 address: 0x93108a0 v_addr: 0x93108a0 is_translated: false translate_issued: true event_cycle: 36496361
[cpu0_L1D_translation] entry:  17 instr_id: 41118566 address: 0x93108d0 v_addr: 0x93108d0 is_translated: false translate_issued: true event_cycle: 36496362

cpu0_L1D_RQ empty

cpu0_L1D_WQ empty

cpu0_L1D_PQ empty

[cpu0_L1D_RQ] entry:   0 instr_id: 41118672 address: 0x9311090 v_addr: 0x9311090 type: LOAD translated: false
[cpu0_L1D_RQ] entry:   1 instr_id: 41118673 address: 0x93110c0 v_addr: 0x93110c0 type: LOAD translated: false
[cpu0_L1D_RQ] entry:   2 instr_id: 41118694 address: 0x285b1050 v_addr: 0x285b1050 type: LOAD translated: false
[cpu0_L1D_RQ] entry:   3 instr_id: 41118697 address: 0x9311870 v_addr: 0x9311870 type: LOAD translated: false
[cpu0_L1D_RQ] entry:   4 instr_id: 41118698 address: 0x93118a0 v_addr: 0x93118a0 type: LOAD translated: false
[cpu0_L1D_RQ] entry:   5 instr_id: 41118702 address: 0x93118d0 v_addr: 0x93118d0 type: LOAD translated: false
[cpu0_L1D_RQ] entry:   6 instr_id: 41118762 address: 0x285b1080 v_addr: 0x285b1080 type: LOAD translated: false
[cpu0_L1D_RQ] entry:   7 instr_id: 41118765 address: 0x9312070 v_addr: 0x9312070 type: LOAD translated: false
[cpu0_L1D_RQ] entry:   8 instr_id: 41118766 address: 0x93120a0 v_addr: 0x93120a0 type: LOAD translated: false
[cpu0_L1D_RQ] entry:   9 instr_id: 41118770 address: 0x93120d0 v_addr: 0x93120d0 type: LOAD translated: false
[cpu0_L1D_RQ] entry:  10 instr_id: 41118832 address: 0x285b10c0 v_addr: 0x285b10c0 type: LOAD translated: false
[cpu0_L1D_RQ] entry:  11 instr_id: 41118833 address: 0x9312870 v_addr: 0x9312870 type: LOAD translated: false
[cpu0_L1D_RQ] entry:  12 instr_id: 41118834 address: 0x93128a0 v_addr: 0x93128a0 type: LOAD translated: false
[cpu0_L1D_RQ] entry:  13 instr_id: 41118838 address: 0x93128d0 v_addr: 0x93128d0 type: LOAD translated: false
[cpu0_L1D_RQ] entry:  14 instr_id: 41118901 address: 0x9313070 v_addr: 0x9313070 type: LOAD translated: false
[cpu0_L1D_RQ] entry:  15 instr_id: 41118902 address: 0x93130a0 v_addr: 0x93130a0 type: LOAD translated: false
[cpu0_L1D_RQ] entry:  16 instr_id: 41118903 address: 0x285b1100 v_addr: 0x285b1100 type: LOAD translated: false
[cpu0_L1D_RQ] entry:  17 instr_id: 41118906 address: 0x93130d0 v_addr: 0x93130d0 type: LOAD translated: false
[cpu0_L1