WARNING: physical memory size is smaller than virtual memory size.

*** ChampSim Multicore Out-of-Order Simulator ***
Warmup Instructions: 30000000
Simulation Instructions: 100000000
Number of CPUs: 1
Page size: 4096

BTB:
Basic BTB sets: 1024 ways: 8
Indirect:
history lengths: 0 0 10 16 27 44 60 96 109 219 449 487 714 1313 2146 3881 
ITTAGE tables: 64768 bytes;Region table: 240 bytes;IUM: 384 bytes;Total Storage= 65392 bytes;
RAS:
RAS size: 64
[LLC] INSTR Demand IPV: 1 2 2 1 4 Prefetch IPV: 1 2 1 1 4
[LLC] DATA  Demand IPV: 1 1 1 2 4 Prefetch IPV: 1 1 2 2 4
Berti Prefetcher
CPU 0 Entangling prefetcher
Off-chip DRAM Size: 8 GiB Channels: 2 Width: 64-bit Data Race: 6400 MT/s
[DUEL] Epoch ended. INSTR misses = 16, DATA misses = 5. Winner = DATA
[DUEL] Epoch ended. INSTR misses = 116, DATA misses = 117. Winner = INSTR
[DUEL] Epoch ended. INSTR misses = 47, DATA misses = 46. Winner = DATA
[DUEL] Epoch ended. INSTR misses = 30, DATA misses = 21. Winner = DATA
[DUEL] Epoch ended. INSTR misses = 79, DATA misses = 45. Winner = DATA
[DUEL] Epoch ended. INSTR misses = 49, DATA misses = 18. Winner = DATA
[DUEL] Epoch ended. INSTR misses = 61, DATA misses = 33. Winner = DATA
[DUEL] Epoch ended. INSTR misses = 53, DATA misses = 26. Winner = DATA
[DUEL] Epoch ended. INSTR misses = 46, DATA misses = 24. Winner = DATA
[DUEL] Epoch ended. INSTR misses = 48, DATA misses = 24. Winner = DATA
[DUEL] Epoch ended. INSTR misses = 66, DATA misses = 22. Winner = DATA
[DUEL] Epoch ended. INSTR misses = 46, DATA misses = 13. Winner = DATA
[DUEL] Epoch ended. INSTR misses = 45, DATA misses = 12. Winner = DATA
[DUEL] Epoch ended. INSTR misses = 58, DATA misses = 28. Winner = DATA
[DUEL] Epoch ended. INSTR misses = 59, DATA misses = 20. Winner = DATA
[DUEL] Epoch ended. INSTR misses = 51, DATA misses = 24. Winner = DATA
[DUEL] Epoch ended. INSTR misses = 49, DATA misses = 24. Winner = DATA
[DUEL] Epoch ended. INSTR misses = 54, DATA misses = 15. Winner = DATA
[DUEL] Epoch ended. INSTR misses = 47, DATA misses = 12. Winner = DATA
[DUEL] Epoch ended. INSTR misses = 76, DATA misses = 47. Winner = DATA
[DUEL] Epoch ended. INSTR misses = 48, DATA misses = 17. Winner = DATA
[DUEL] Epoch ended. INSTR misses = 50, DATA misses = 16. Winner = DATA
[DUEL] Epoch ended. INSTR misses = 61, DATA misses = 31. Winner = DATA
[DUEL] Epoch ended. INSTR misses = 46, DATA misses = 20. Winner = DATA
[DUEL] Epoch ended. INSTR misses = 67, DATA misses = 44. Winner = DATA
[DUEL] Epoch ended. INSTR misses = 47, DATA misses = 27. Winner = DATA
[DUEL] Epoch ended. INSTR misses = 48, DATA misses = 15. Winner = DATA
[DUEL] Epoch ended. INSTR misses = 51, DATA misses = 24. Winner = DATA
[DUEL] Epoch ended. INSTR misses = 58, DATA misses = 25. Winner = DATA
[DUEL] Epoch ended. INSTR misses = 51, DATA misses = 15. Winner = DATA
[DUEL] Epoch ended. INSTR misses = 65, DATA misses = 34. Winner = DATA
[DUEL] Epoch ended. INSTR misses = 63, DATA misses = 31. Winner = DATA
[DUEL] Epoch ended. INSTR misses = 93, DATA misses = 58. Winner = DATA
[DUEL] Epoch ended. INSTR misses = 48, DATA misses = 22. Winner = DATA
[DUEL] Epoch ended. INSTR misses = 50, DATA misses = 18. Winner = DATA
[DUEL] Epoch ended. INSTR misses = 83, DATA misses = 51. Winner = DATA
[DUEL] Epoch ended. INSTR misses = 63, DATA misses = 28. Winner = DATA
[DUEL] Epoch ended. INSTR misses = 49, DATA misses = 20. Winner = DATA
[DUEL] Epoch ended. INSTR misses = 49, DATA misses = 15. Winner = DATA
Heartbeat CPU 0 instructions: 10000002 cycles: 1717314 heartbeat IPC: 5.823 cumulative IPC: 5.823 (Simulation time: 00 hr 00 min 23 sec)
[DUEL] Epoch ended. INSTR misses = 49, DATA misses = 12. Winner = DATA
[DUEL] Epoch ended. INSTR misses = 60, DATA misses = 25. Winner = DATA
[DUEL] Epoch ended. INSTR misses = 73, DATA misses = 47. Winner = DATA
[DUEL] Epoch ended. INSTR misses = 49, DATA misses = 21. Winner = DATA
[DUEL] Epoch ended. INSTR misses = 51, DATA misses = 21. Winner = DATA
[DUEL] Epoch ended. INSTR misses = 45, DATA misses = 24. Winner = DATA
[DUEL] Epoch ended. INSTR misses = 49, DATA misses = 15. Winner = DATA
[DUEL] Epoch ended. INSTR misses = 111, DATA misses = 85. Winner = DATA
[DUEL] Epoch ended. INSTR misses = 54, DATA misses = 30. Winner = DATA
[DUEL] Epoch ended. INSTR misses = 51, DATA misses = 21. Winner = DATA
[DUEL] Epoch ended. INSTR misses = 48, DATA misses = 24. Winner = DATA
[DUEL] Epoch ended. INSTR misses = 63, DATA misses = 32. Winner = DATA
[DUEL] Epoch ended. INSTR misses = 51, DATA misses = 24. Winner = DATA
[DUEL] Epoch ended. INSTR misses = 57, DATA misses = 21. Winner = DATA
[DUEL] Epoch ended. INSTR misses = 60, DATA misses = 31. Winner = DATA
[DUEL] Epoch ended. INSTR misses = 114, DATA misses = 86. Winner = DATA
[DUEL] Epoch ended. INSTR misses = 49, DATA misses = 21. Winner = DATA
[DUEL] Epoch ended. INSTR misses = 52, DATA misses = 12. Winner = DATA
[DUEL] Epoch ended. INSTR misses = 48, DATA misses = 12. Winner = DATA
[DUEL] Epoch ended. INSTR misses = 45, DATA misses = 21. Winner = DATA
[DUEL] Epoch ended. INSTR misses = 51, DATA misses = 21. Winner = DATA
[DUEL] Epoch ended. INSTR misses = 62, DATA misses = 28. Winner = DATA
[DUEL] Epoch ended. INSTR misses = 50, DATA misses = 18. Winner = DATA
[DUEL] Epoch ended. INSTR misses = 50, DATA misses = 27. Winner = DATA
[DUEL] Epoch ended. INSTR misses = 74, DATA misses = 46. Winner = DATA
[DUEL] Epoch ended. INSTR misses = 49, DATA misses = 21. Winner = DATA
[DUEL] Epoch ended. INSTR misses = 49, DATA misses = 12. Winner = DATA
[DUEL] Epoch ended. INSTR misses = 48, DATA misses = 12. Winner = DATA
[DUEL] Epoch ended. INSTR misses = 45, DATA misses = 15. Winner = DATA
[DUEL] Epoch ended. INSTR misses = 64, DATA misses = 27. Winner = DATA
[DUEL] Epoch ended. INSTR misses = 54, DATA misses = 19. Winner = DATA
[DUEL] Epoch ended. INSTR misses = 46, DATA misses = 15. Winner = DATA
[DUEL] Epoch ended. INSTR misses = 51, DATA misses = 13. Winner = DATA
[DUEL] Epoch ended. INSTR misses = 48, DATA misses = 17. Winner = DATA
[DUEL] Epoch ended. INSTR misses = 111, DATA misses = 87. Winner = DATA
[DUEL] Epoch ended. INSTR misses = 56, DATA misses = 20. Winner = DATA
[DUEL] Epoch ended. INSTR misses = 48, DATA misses = 24. Winner = DATA
[DUEL] Epoch ended. INSTR misses = 59, DATA misses = 34. Winner = DATA
[DUEL] Epoch ended. INSTR misses = 91, DATA misses = 68. Winner = DATA
Heartbeat CPU 0 instructions: 20000004 cycles: 3385663 heartbeat IPC: 5.994 cumulative IPC: 5.907 (Simulation time: 00 hr 00 min 47 sec)
[DUEL] Epoch ended. INSTR misses = 53, DATA misses = 13. Winner = DATA
[DUEL] Epoch ended. INSTR misses = 50, DATA misses = 17. Winner = DATA
[DUEL] Epoch ended. INSTR misses = 70, DATA misses = 37. Winner = DATA
[DUEL] Epoch ended. INSTR misses = 94, DATA misses = 56. Winner = DATA
[DUEL] Epoch ended. INSTR misses = 52, DATA misses = 18. Winner = DATA
[DUEL] Epoch ended. INSTR misses = 91, DATA misses = 76. Winner = DATA
[DUEL] Epoch ended. INSTR misses = 57, DATA misses = 21. Winner = DATA
[DUEL] Epoch ended. INSTR misses = 68, DATA misses = 37. Winner = DATA
[DUEL] Epoch ended. INSTR misses = 53, DATA misses = 24. Winner = DATA
[DUEL] Epoch ended. INSTR misses = 48, DATA misses = 9. Winner = DATA
[DUEL] Epoch ended. INSTR misses = 62, DATA misses = 40. Winner = DATA
[DUEL] Epoch ended. INSTR misses = 67, DATA misses = 28. Winner = DATA
[DUEL] Epoch ended. INSTR misses = 51, DATA misses = 27. Winner = DATA
[DUEL] Epoch ended. INSTR misses = 71, DATA misses = 50. Winner = DATA
[DUEL] Epoch ended. INSTR misses = 54, DATA misses = 27. Winner = DATA
[DUEL] Epoch ended. INSTR misses = 54, DATA misses = 6. Winner = DATA
[DUEL] Epoch ended. INSTR misses = 50, DATA misses = 9. Winner = DATA
[DUEL] Epoch ended. INSTR misses = 47, DATA misses = 12. Winner = DATA
[DUEL] Epoch ended. INSTR misses = 60, DATA misses = 34. Winner = DATA
[DUEL] Epoch ended. INSTR misses = 72, DATA misses = 35. Winner = DATA
[DUEL] Epoch ended. INSTR misses = 88, DATA misses = 54. Winner = DATA
[DUEL] Epoch ended. INSTR misses = 55, DATA misses = 18. Winner = DATA
[DUEL] Epoch ended. INSTR misses = 70, DATA misses = 35. Winner = DATA
[DUEL] Epoch ended. INSTR misses = 96, DATA misses = 73. Winner = DATA
[DUEL] Epoch ended. INSTR misses = 73, DATA misses = 43. Winner = DATA
[DUEL] Epoch ended. INSTR misses = 60, DATA misses = 28. Winner = DATA
[DUEL] Epoch ended. INSTR misses = 46, DATA misses = 15. Winner = DATA
[DUEL] Epoch ended. INSTR misses = 49, DATA misses = 21. Winner = DATA
[DUEL] Epoch ended. INSTR misses = 64, DATA misses = 34. Winner = DATA
[DUEL] Epoch ended. INSTR misses = 46, DATA misses = 24. Winner = DATA
[DUEL] Epoch ended. INSTR misses = 59, DATA misses = 22. Winner = DATA
[DUEL] Epoch ended. INSTR misses = 95, DATA misses = 73. Winner = DATA
[DUEL] Epoch ended. INSTR misses = 44, DATA misses = 25. Winner = DATA
[DUEL] Epoch ended. INSTR misses = 51, DATA misses = 15. Winner = DATA
[DUEL] Epoch ended. INSTR misses = 44, DATA misses = 21. Winner = DATA
[DUEL] Epoch ended. INSTR misses = 49, DATA misses = 18. Winner = DATA
[DUEL] Epoch ended. INSTR misses = 52, DATA misses = 15. Winner = DATA
[DUEL] Epoch ended. INSTR misses = 49, DATA misses = 12. Winner = DATA
[DUEL] Epoch ended. INSTR misses = 45, DATA misses = 14. Winner = DATA
Heartbeat CPU 0 instructions: 30000007 cycles: 5052330 heartbeat IPC: 6 cumulative IPC: 5.938 (Simulation time: 00 hr 01 min 10 sec)
Warmup finished CPU 0 instructions: 30000007 cycles: 5052331 cumulative IPC: 5.938 (Simulation time: 00 hr 01 min 10 sec)
Warmup complete CPU 0 instructions: 30000007 cycles: 5052331 cumulative IPC: 5.938 (Simulation time: 00 hr 01 min 10 sec)
[DUEL] Epoch ended. INSTR misses = 76, DATA misses = 48. Winner = DATA
[DUEL] Epoch ended. INSTR misses = 55, DATA misses = 20. Winner = DATA
[DUEL] Epoch ended. INSTR misses = 84, DATA misses = 40. Winner = DATA
[DUEL] Epoch ended. INSTR misses = 73, DATA misses = 43. Winner = DATA
[DUEL] Epoch ended. INSTR misses = 54, DATA misses = 24. Winner = DATA
[DUEL] Epoch ended. INSTR misses = 59, DATA misses = 38. Winner = DATA
[DUEL] Epoch ended. INSTR misses = 60, DATA misses = 33. Winner = DATA
[DUEL] Epoch ended. INSTR misses = 67, DATA misses = 32. Winner = DATA
[DUEL] Epoch ended. INSTR misses = 51, DATA misses = 21. Winner = DATA
[DUEL] Epoch ended. INSTR misses = 81, DATA misses = 84. Winner = INSTR
[DUEL] Epoch ended. INSTR misses = 65, DATA misses = 71. Winner = INSTR
[DUEL] Epoch ended. INSTR misses = 158, DATA misses = 154. Winner = DATA
[DUEL] Epoch ended. INSTR misses = 122, DATA misses = 115. Winner = DATA
[DUEL] Epoch ended. INSTR misses = 117, DATA misses = 110. Winner = DATA
[DUEL] Epoch ended. INSTR misses = 132, DATA misses = 133. Winner = INSTR
[DUEL] Epoch ended. INSTR misses = 178, DATA misses = 175. Winner = DATA
[DUEL] Epoch ended. INSTR misses = 144, DATA misses = 139. Winner = DATA
[DUEL] Epoch ended. INSTR misses = 120, DATA misses = 124. Winner = INSTR
[DUEL] Epoch ended. INSTR misses = 124, DATA misses = 117. Winner = DATA
[DUEL] Epoch ended. INSTR misses = 173, DATA misses = 172. Winner = DATA
[DUEL] Epoch ended. INSTR misses = 87, DATA misses = 91. Winner = INSTR
[DUEL] Epoch ended. INSTR misses = 128, DATA misses = 128. Winner = INSTR
[DUEL] Epoch ended. INSTR misses = 114, DATA misses = 105. Winner = DATA
[DUEL] Epoch ended. INSTR misses = 189, DATA misses = 194. Winner = INSTR
[DUEL] Epoch ended. INSTR misses = 173, DATA misses = 173. Winner = INSTR
[DUEL] Epoch ended. INSTR misses = 148, DATA misses = 148. Winner = INSTR
[DUEL] Epoch ended. INSTR misses = 115, DATA misses = 111. Winner = DATA
[DUEL] Epoch ended. INSTR misses = 171, DATA misses = 167. Winner = DATA
[DUEL] Epoch ended. INSTR misses = 181, DATA misses = 182. Winner = INSTR
[DUEL] Epoch ended. INSTR misses = 113, DATA misses = 113. Winner = INSTR
[DUEL] Epoch ended. INSTR misses = 120, DATA misses = 111. Winner = DATA
[DUEL] Epoch ended. INSTR misses = 162, DATA misses = 160. Winner = DATA
[DUEL] Epoch ended. INSTR misses = 137, DATA misses = 133. Winner = DATA
[DUEL] Epoch ended. INSTR misses = 136, DATA misses = 137. Winner = INSTR
[DUEL] Epoch ended. INSTR misses = 163, DATA misses = 154. Winner = DATA
[DUEL] Epoch ended. INSTR misses = 144, DATA misses = 140. Winner = DATA
[DUEL] Epoch ended. INSTR misses = 101, DATA misses = 97. Winner = DATA
[DUEL] Epoch ended. INSTR misses = 144, DATA misses = 134. Winner = DATA
[DUEL] Epoch ended. INSTR misses = 138, DATA misses = 131. Winner = DATA
Heartbeat CPU 0 instructions: 40000004 cycles: 29178012 heartbeat IPC: 0.4145 cumulative IPC: 0.4145 (Simulation time: 00 hr 04 min 19 sec)
[DUEL] Epoch ended. INSTR misses = 157, DATA misses = 150. Winner = DATA
[DUEL] Epoch ended. INSTR misses = 173, DATA misses = 177. Winner = INSTR
[DUEL] Epoch ended. INSTR misses = 99, DATA misses = 100. Winner = INSTR
[DUEL] Epoch ended. INSTR misses = 144, DATA misses = 145. Winner = INSTR
[DUEL] Epoch ended. INSTR misses = 150, DATA misses = 149. Winner = DATA
[DUEL] Epoch ended. INSTR misses = 132, DATA misses = 130. Winner = DATA
[DUEL] Epoch ended. INSTR misses = 127, DATA misses = 129. Winner = INSTR
[DUEL] Epoch ended. INSTR misses = 151, DATA misses = 150. Winner = DATA
[DUEL] Epoch ended. INSTR misses = 139, DATA misses = 130. Winner = DATA
[DUEL] Epoch ended. INSTR misses = 138, DATA misses = 142. Winner = INSTR
[DUEL] Epoch ended. INSTR misses = 134, DATA misses = 129. Winner = DATA
[DUEL] Epoch ended. INSTR misses = 132, DATA misses = 131. Winner = DATA
[DUEL] Epoch ended. INSTR misses = 159, DATA misses = 158. Winner = DATA
[DUEL] Epoch ended. INSTR misses = 150, DATA misses = 131. Winner = DATA
[DUEL] Epoch ended. INSTR misses = 102, DATA misses = 118. Winner = INSTR
[DUEL] Epoch ended. INSTR misses = 64, DATA misses = 63. Winner = DATA
[DUEL] Epoch ended. INSTR misses = 74, DATA misses = 72. Winner = DATA
[DUEL] Epoch ended. INSTR misses = 95, DATA misses = 95. Winner = INSTR
[DUEL] Epoch ended. INSTR misses = 79, DATA misses = 78. Winner = DATA
[DUEL] Epoch ended. INSTR misses = 58, DATA misses = 39. Winner = DATA
[DUEL] Epoch ended. INSTR misses = 44, DATA misses = 41. Winner = DATA
[DUEL] Epoch ended. INSTR misses = 41, DATA misses = 41. Winner = INSTR
[DUEL] Epoch ended. INSTR misses = 46, DATA misses = 40. Winner = DATA
[DUEL] Epoch ended. INSTR misses = 44, DATA misses = 36. Winner = DATA
[DUEL] Epoch ended. INSTR misses = 29, DATA misses = 30. Winner = INSTR
[DUEL] Epoch ended. INSTR misses = 45, DATA misses = 47. Winner = INSTR
[DUEL] Epoch ended. INSTR misses = 50, DATA misses = 54. Winner = INSTR
[DUEL] Epoch ended. INSTR misses = 38, DATA misses = 41. Winner = INSTR
[DUEL] Epoch ended. INSTR misses = 46, DATA misses = 44. Winner = DATA
[DUEL] Epoch ended. INSTR misses = 46, DATA misses = 36. Winner = DATA
[DUEL] Epoch ended. INSTR misses = 43, DATA misses = 41. Winner = DATA
[DUEL] Epoch ended. INSTR misses = 55, DATA misses = 44. Winner = DATA
[DUEL] Epoch ended. INSTR misses = 25, DATA misses = 26. Winner = INSTR
[DUEL] Epoch ended. INSTR misses = 39, DATA misses = 30. Winner = DATA
[DUEL] Epoch ended. INSTR misses = 49, DATA misses = 56. Winner = INSTR
[DUEL] Epoch ended. INSTR misses = 34, DATA misses = 33. Winner = DATA
[DUEL] Epoch ended. INSTR misses = 54, DATA misses = 48. Winner = DATA
[DUEL] Epoch ended. INSTR misses = 53, DATA misses = 54. Winner = INSTR
[DUEL] Epoch ended. INSTR misses = 37, DATA misses = 37. Winner = INSTR
Heartbeat CPU 0 instructions: 50000011 cycles: 47672837 heartbeat IPC: 0.5407 cumulative IPC: 0.4693 (Simulation time: 00 hr 06 min 44 sec)
[DUEL] Epoch ended. INSTR misses = 55, DATA misses = 54. Winner = DATA
[DUEL] Epoch ended. INSTR misses = 41, DATA misses = 46. Winner = INSTR
[DUEL] Epoch ended. INSTR misses = 39, DATA misses = 32. Winner = DATA
[DUEL] Epoch ended. INSTR misses = 39, DATA misses = 30. Winner = DATA
[DUEL] Epoch ended. INSTR misses = 51, DATA misses = 40. Winner = DATA
[DUEL] Epoch ended. INSTR misses = 44, DATA misses = 46. Winner = INSTR
[DUEL] Epoch ended. INSTR misses = 44, DATA misses = 40. Winner = DATA
[DUEL] Epoch ended. INSTR misses = 47, DATA misses = 41. Winner = DATA
[DUEL] Epoch ended. INSTR misses = 41, DATA misses = 41. Winner = INSTR
[DUEL] Epoch ended. INSTR misses = 42, DATA misses = 43. Winner = INSTR
[DUEL] Epoch ended. INSTR misses = 30, DATA misses = 37. Winner = INSTR
[DUEL] Epoch ended. INSTR misses = 47, DATA misses = 37. Winner = DATA
[DUEL] Epoch ended. INSTR misses = 45, DATA misses = 43. Winner = DATA
[DUEL] Epoch ended. INSTR misses = 33, DATA misses = 40. Winner = INSTR
[DUEL] Epoch ended. INSTR misses = 35, DATA misses = 31. Winner = DATA
[DUEL] Epoch ended. INSTR misses = 45, DATA misses = 45. Winner = INSTR
[DUEL] Epoch ended. INSTR misses = 75, DATA misses = 62. Winner = DATA
[DUEL] Epoch ended. INSTR misses = 34, DATA misses = 46. Winner = INSTR
[DUEL] Epoch ended. INSTR misses = 49, DATA misses = 45. Winner = DATA
[DUEL] Epoch ended. INSTR misses = 36, DATA misses = 44. Winner = INSTR
[DUEL] Epoch ended. INSTR misses = 47, DATA misses = 47. Winner = INSTR
[DUEL] Epoch ended. INSTR misses = 42, DATA misses = 48. Winner = INSTR
[DUEL] Epoch ended. INSTR misses = 54, DATA misses = 47. Winner = DATA
[DUEL] Epoch ended. INSTR misses = 34, DATA misses = 30. Winner = DATA
[DUEL] Epoch ended. INSTR misses = 48, DATA misses = 41. Winner = DATA
[DUEL] Epoch ended. INSTR misses = 34, DATA misses = 36. Winner = INSTR
[DUEL] Epoch ended. INSTR misses = 40, DATA misses = 36. Winner = DATA
[DUEL] Epoch ended. INSTR misses = 40, DATA misses = 38. Winner = DATA
[DUEL] Epoch ended. INSTR misses = 51, DATA misses = 44. Winner = DATA
[DUEL] Epoch ended. INSTR misses = 49, DATA misses = 47. Winner = DATA
[DUEL] Epoch ended. INSTR misses = 43, DATA misses = 30. Winner = DATA
[DUEL] Epoch ended. INSTR misses = 41, DATA misses = 33. Winner = DATA
[DUEL] Epoch ended. INSTR misses = 38, DATA misses = 38. Winner = INSTR
[DUEL] Epoch ended. INSTR misses = 39, DATA misses = 38. Winner = DATA
[DUEL] Epoch ended. INSTR misses = 52, DATA misses = 49. Winner = DATA
[DUEL] Epoch ended. INSTR misses = 25, DATA misses = 33. Winner = INSTR
[DUEL] Epoch ended. INSTR misses = 48, DATA misses = 33. Winner = DATA
[DUEL] Epoch ended. INSTR misses = 42, DATA misses = 44. Winner = INSTR
[DUEL] Epoch ended. INSTR misses = 43, DATA misses = 36. Winner = DATA
Heartbeat CPU 0 instructions: 60000006 cycles: 61176131 heartbeat IPC: 0.7406 cumulative IPC: 0.5345 (Simulation time: 00 hr 08 min 30 sec)
[DUEL] Epoch ended. INSTR misses = 43, DATA misses = 53. Winner = INSTR
[DUEL] Epoch ended. INSTR misses = 54, DATA misses = 48. Winner = DATA
[DUEL] Epoch ended. INSTR misses = 41, DATA misses = 40. Winner = DATA
[DUEL] Epoch ended. INSTR misses = 43, DATA misses = 38. Winner = DATA
[DUEL] Epoch ended. INSTR misses = 48, DATA misses = 49. Winner = INSTR
[DUEL] Epoch ended. INSTR misses = 55, DATA misses = 45. Winner = DATA
[DUEL] Epoch ended. INSTR misses = 37, DATA misses = 36. Winner = DATA
[DUEL] Epoch ended. INSTR misses = 29, DATA misses = 35. Winner = INSTR
[DUEL] Epoch ended. INSTR misses = 59, DATA misses = 44. Winner = DATA
[DUEL] Epoch ended. INSTR misses = 32, DATA misses = 35. Winner = INSTR
[DUEL] Epoch ended. INSTR misses = 52, DATA misses = 50. Winner = DATA
[DUEL] Epoch ended. INSTR misses = 45, DATA misses = 49. Winner = INSTR
[DUEL] Epoch ended. INSTR misses = 39, DATA misses = 35. Winner = DATA
[DUEL] Epoch ended. INSTR misses = 42, DATA misses = 47. Winner = INSTR
[DUEL] Epoch ended. INSTR misses = 48, DATA misses = 42. Winner = DATA
[DUEL] Epoch ended. INSTR misses = 42, DATA misses = 43. Winner = INSTR
[DUEL] Epoch ended. INSTR misses = 34, DATA misses = 42. Winner = INSTR
[DUEL] Epoch ended. INSTR misses = 40, DATA misses = 41. Winner = INSTR
[DUEL] Epoch ended. INSTR misses = 28, DATA misses = 32. Winner = INSTR
[DUEL] Epoch ended. INSTR misses = 45, DATA misses = 33. Winner = DATA
[DUEL] Epoch ended. INSTR misses = 43, DATA misses = 44. Winner = INSTR
[DUEL] Epoch ended. INSTR misses = 54, DATA misses = 43. Winner = DATA
[DUEL] Epoch ended. INSTR misses = 35, DATA misses = 31. Winner = DATA
[DUEL] Epoch ended. INSTR misses = 30, DATA misses = 41. Winner = INSTR
[DUEL] Epoch ended. INSTR misses = 38, DATA misses = 37. Winner = DATA
[DUEL] Epoch ended. INSTR misses = 48, DATA misses = 48. Winner = INSTR
[DUEL] Epoch ended. INSTR misses = 48, DATA misses = 42. Winner = DATA
[DUEL] Epoch ended. INSTR misses = 30, DATA misses = 35. Winner = INSTR
[DUEL] Epoch ended. INSTR misses = 47, DATA misses = 41. Winner = DATA
[DUEL] Epoch ended. INSTR misses = 41, DATA misses = 48. Winner = INSTR
[DUEL] Epoch ended. INSTR misses = 35, DATA misses = 39. Winner = INSTR
[DUEL] Epoch ended. INSTR misses = 43, DATA misses = 36. Winner = DATA
[DUEL] Epoch ended. INSTR misses = 41, DATA misses = 47. Winner = INSTR
[DUEL] Epoch ended. INSTR misses = 43, DATA misses = 47. Winner = INSTR
[DUEL] Epoch ended. INSTR misses = 42, DATA misses = 34. Winner = DATA
[DUEL] Epoch ended. INSTR misses = 53, DATA misses = 57. Winner = INSTR
[DUEL] Epoch ended. INSTR misses = 18, DATA misses = 28. Winner = INSTR
[DUEL] Epoch ended. INSTR misses = 59, DATA misses = 47. Winner = DATA
[DUEL] Epoch ended. INSTR misses = 52, DATA misses = 45. Winner = DATA
Heartbeat CPU 0 instructions: 70000009 cycles: 74680003 heartbeat IPC: 0.7405 cumulative IPC: 0.5745 (Simulation time: 00 hr 10 min 17 sec)
[DUEL] Epoch ended. INSTR misses = 29, DATA misses = 28. Winner = DATA
[DUEL] Epoch ended. INSTR misses = 39, DATA misses = 36. Winner = DATA
[DUEL] Epoch ended. INSTR misses = 44, DATA misses = 40. Winner = DATA
[DUEL] Epoch ended. INSTR misses = 46, DATA misses = 50. Winner = INSTR
[DUEL] Epoch ended. INSTR misses = 51, DATA misses = 58. Winner = INSTR
[DUEL] Epoch ended. INSTR misses = 36, DATA misses = 30. Winner = DATA
[DUEL] Epoch ended. INSTR misses = 39, DATA misses = 37. Winner = DATA
[DUEL] Epoch ended. INSTR misses = 37, DATA misses = 41. Winner = INSTR
[DUEL] Epoch ended. INSTR misses = 42, DATA misses = 48. Winner = INSTR
[DUEL] Epoch ended. INSTR misses = 32, DATA misses = 39. Winner = INSTR
[DUEL] Epoch ended. INSTR misses = 51, DATA misses = 48. Winner = DATA
[DUEL] Epoch ended. INSTR misses = 38, DATA misses = 45. Winner = INSTR
[DUEL] Epoch ended. INSTR misses = 54, DATA misses = 51. Winner = DATA
[DUEL] Epoch ended. INSTR misses = 54, DATA misses = 48. Winner = DATA
[DUEL] Epoch ended. INSTR misses = 45, DATA misses = 48. Winner = INSTR
[DUEL] Epoch ended. INSTR misses = 47, DATA misses = 40. Winner = DATA
[DUEL] Epoch ended. INSTR misses = 33, DATA misses = 39. Winner = INSTR
[DUEL] Epoch ended. INSTR misses = 61, DATA misses = 45. Winner = DATA
[DUEL] Epoch ended. INSTR misses = 22, DATA misses = 31. Winner = INSTR
[DUEL] Epoch ended. INSTR misses = 45, DATA misses = 40. Winner = DATA
[DUEL] Epoch ended. INSTR misses = 36, DATA misses = 41. Winner = INSTR
[DUEL] Epoch ended. INSTR misses = 45, DATA misses = 38. Winner = DATA
[DUEL] Epoch ended. INSTR misses = 29, DATA misses = 34. Winner = INSTR
[DUEL] Epoch ended. INSTR misses = 53, DATA misses = 49. Winner = DATA
[DUEL] Epoch ended. INSTR misses = 35, DATA misses = 35. Winner = INSTR
[DUEL] Epoch ended. INSTR misses = 47, DATA misses = 44. Winner = DATA
[DUEL] Epoch ended. INSTR misses = 49, DATA misses = 49. Winner = INSTR
[DUEL] Epoch ended. INSTR misses = 35, DATA misses = 38. Winner = INSTR
[DUEL] Epoch ended. INSTR misses = 50, DATA misses = 50. Winner = INSTR
[DUEL] Epoch ended. INSTR misses = 44, DATA misses = 46. Winner = INSTR
[DUEL] Epoch ended. INSTR misses = 34, DATA misses = 34. Winner = INSTR
[DUEL] Epoch ended. INSTR misses = 35, DATA misses = 34. Winner = DATA
[DUEL] Epoch ended. INSTR misses = 65, DATA misses = 77. Winner = INSTR
[DUEL] Epoch ended. INSTR misses = 51, DATA misses = 48. Winner = DATA
[DUEL] Epoch ended. INSTR misses = 50, DATA misses = 48. Winner = DATA
[DUEL] Epoch ended. INSTR misses = 31, DATA misses = 36. Winner = INSTR
[DUEL] Epoch ended. INSTR misses = 40, DATA misses = 28. Winner = DATA
*** Reached end of trace: (0, "../traces/secret_traces/compute_fp/compute_fp_67.champsimtrace.xz")
[DUEL] Epoch ended. INSTR misses = 25, DATA misses = 25. Winner = INSTR
[DUEL] Epoch ended. INSTR misses = 17, DATA misses = 36. Winner = INSTR
Heartbeat CPU 0 instructions: 80000000 cycles: 88292065 heartbeat IPC: 0.7346 cumulative IPC: 0.6007 (Simulation time: 00 hr 12 min 03 sec)
[DUEL] Epoch ended. INSTR misses = 31, DATA misses = 30. Winner = DATA
[DUEL] Epoch ended. INSTR misses = 27, DATA misses = 32. Winner = INSTR
[DUEL] Epoch ended. INSTR misses = 59, DATA misses = 26. Winner = DATA
[DUEL] Epoch ended. INSTR misses = 59, DATA misses = 27. Winner = DATA
[DUEL] Epoch ended. INSTR misses = 52, DATA misses = 20. Winner = DATA
[DUEL] Epoch ended. INSTR misses = 56, DATA misses = 26. Winner = DATA
[DUEL] Epoch ended. INSTR misses = 48, DATA misses = 26. Winner = DATA
[DUEL] Epoch ended. INSTR misses = 47, DATA misses = 24. Winner = DATA
[DUEL] Epoch ended. INSTR misses = 58, DATA misses = 23. Winner = DATA
[DUEL] Epoch ended. INSTR misses = 49, DATA misses = 13. Winner = DATA
[DUEL] Epoch ended. INSTR misses = 48, DATA misses = 15. Winner = DATA
[DUEL] Epoch ended. INSTR misses = 44, DATA misses = 6. Winner = DATA
[DUEL] Epoch ended. INSTR misses = 66, DATA misses = 32. Winner = DATA
[DUEL] Epoch ended. INSTR misses = 49, DATA misses = 18. Winner = DATA
[DUEL] Epoch ended. INSTR misses = 57, DATA misses = 27. Winner = DATA
[DUEL] Epoch ended. INSTR misses = 53, DATA misses = 21. Winner = DATA
[DUEL] Epoch ended. INSTR misses = 44, DATA misses = 6. Winner = DATA
[DUEL] Epoch ended. INSTR misses = 54, DATA misses = 31. Winner = DATA
[DUEL] Epoch ended. INSTR misses = 69, DATA misses = 32. Winner = DATA
[DUEL] Epoch ended. INSTR misses = 50, DATA misses = 24. Winner = DATA
[DUEL] Epoch ended. INSTR misses = 58, DATA misses = 29. Winner = DATA
[DUEL] Epoch ended. INSTR misses = 44, DATA misses = 21. Winner = DATA
[DUEL] Epoch ended. INSTR misses = 66, DATA misses = 44. Winner = DATA
[DUEL] Epoch ended. INSTR misses = 45, DATA misses = 24. Winner = DATA
[DUEL] Epoch ended. INSTR misses = 51, DATA misses = 12. Winner = DATA
[DUEL] Epoch ended. INSTR misses = 49, DATA misses = 21. Winner = DATA
[DUEL] Epoch ended. INSTR misses = 63, DATA misses = 28. Winner = DATA
[DUEL] Epoch ended. INSTR misses = 45, DATA misses = 18. Winner = DATA
[DUEL] Epoch ended. INSTR misses = 65, DATA misses = 31. Winner = DATA
[DUEL] Epoch ended. INSTR misses = 61, DATA misses = 35. Winner = DATA
[DUEL] Epoch ended. INSTR misses = 88, DATA misses = 54. Winner = DATA
[DUEL] Epoch ended. INSTR misses = 54, DATA misses = 23. Winner = DATA
[DUEL] Epoch ended. INSTR misses = 47, DATA misses = 15. Winner = DATA
[DUEL] Epoch ended. INSTR misses = 76, DATA misses = 50. Winner = DATA
[DUEL] Epoch ended. INSTR misses = 54, DATA misses = 12. Winner = DATA
[DUEL] Epoch ended. INSTR misses = 61, DATA misses = 30. Winner = DATA
[DUEL] Epoch ended. INSTR misses = 50, DATA misses = 25. Winner = DATA
[DUEL] Epoch ended. INSTR misses = 46, DATA misses = 10. Winner = DATA
[DUEL] Epoch ended. INSTR misses = 57, DATA misses = 25. Winner = DATA
Heartbeat CPU 0 instructions: 90000005 cycles: 96388129 heartbeat IPC: 1.235 cumulative IPC: 0.6569 (Simulation time: 00 hr 13 min 12 sec)
[DUEL] Epoch ended. INSTR misses = 77, DATA misses = 39. Winner = DATA
[DUEL] Epoch ended. INSTR misses = 50, DATA misses = 27. Winner = DATA
[DUEL] Epoch ended. INSTR misses = 46, DATA misses = 21. Winner = DATA
[DUEL] Epoch ended. INSTR misses = 47, DATA misses = 21. Winner = DATA
[DUEL] Epoch ended. INSTR misses = 48, DATA misses = 21. Winner = DATA
[DUEL] Epoch ended. INSTR misses = 99, DATA misses = 63. Winner = DATA
[DUEL] Epoch ended. INSTR misses = 69, DATA misses = 46. Winner = DATA
[DUEL] Epoch ended. INSTR misses = 46, DATA misses = 18. Winner = DATA
[DUEL] Epoch ended. INSTR misses = 50, DATA misses = 24. Winner = DATA
[DUEL] Epoch ended. INSTR misses = 50, DATA misses = 24. Winner = DATA
[DUEL] Epoch ended. INSTR misses = 66, DATA misses = 35. Winner = DATA
[DUEL] Epoch ended. INSTR misses = 56, DATA misses = 26. Winner = DATA
[DUEL] Epoch ended. INSTR misses = 56, DATA misses = 22. Winner = DATA
[DUEL] Epoch ended. INSTR misses = 112, DATA misses = 85. Winner = DATA
[DUEL] Epoch ended. INSTR misses = 53, DATA misses = 21. Winner = DATA
[DUEL] Epoch ended. INSTR misses = 49, DATA misses = 21. Winner = DATA
[DUEL] Epoch ended. INSTR misses = 52, DATA misses = 9. Winner = DATA
[DUEL] Epoch ended. INSTR misses = 42, DATA misses = 15. Winner = DATA
[DUEL] Epoch ended. INSTR misses = 50, DATA misses = 21. Winner = DATA
[DUEL] Epoch ended. INSTR misses = 65, DATA misses = 34. Winner = DATA
[DUEL] Epoch ended. INSTR misses = 47, DATA misses = 18. Winner = DATA
[DUEL] Epoch ended. INSTR misses = 50, DATA misses = 21. Winner = DATA
[DUEL] Epoch ended. INSTR misses = 67, DATA misses = 36. Winner = DATA
[DUEL] Epoch ended. INSTR misses = 62, DATA misses = 33. Winner = DATA
[DUEL] Epoch ended. INSTR misses = 42, DATA misses = 18. Winner = DATA
[DUEL] Epoch ended. INSTR misses = 50, DATA misses = 9. Winner = DATA
[DUEL] Epoch ended. INSTR misses = 48, DATA misses = 15. Winner = DATA
[DUEL] Epoch ended. INSTR misses = 58, DATA misses = 23. Winner = DATA
[DUEL] Epoch ended. INSTR misses = 56, DATA misses = 18. Winner = DATA
[DUEL] Epoch ended. INSTR misses = 47, DATA misses = 15. Winner = DATA
[DUEL] Epoch ended. INSTR misses = 48, DATA misses = 15. Winner = DATA
[DUEL] Epoch ended. INSTR misses = 51, DATA misses = 15. Winner = DATA
[DUEL] Epoch ended. INSTR misses = 92, DATA misses = 72. Winner = DATA
[DUEL] Epoch ended. INSTR misses = 75, DATA misses = 34. Winner = DATA
[DUEL] Epoch ended. INSTR misses = 45, DATA misses = 21. Winner = DATA
[DUEL] Epoch ended. INSTR misses = 49, DATA misses = 24. Winner = DATA
[DUEL] Epoch ended. INSTR misses = 91, DATA misses = 71. Winner = DATA
[DUEL] Epoch ended. INSTR misses = 56, DATA misses = 25. Winner = DATA
[DUEL] Epoch ended. INSTR misses = 44, DATA misses = 14. Winner = DATA
Heartbeat CPU 0 instructions: 100000010 cycles: 105684567 heartbeat IPC: 1.076 cumulative IPC: 0.6956 (Simulation time: 00 hr 14 min 30 sec)
[DUEL] Epoch ended. INSTR misses = 60, DATA misses = 15. Winner = DATA
[DUEL] Epoch ended. INSTR misses = 112, DATA misses = 83. Winner = DATA
[DUEL] Epoch ended. INSTR misses = 50, DATA misses = 12. Winner = DATA
[DUEL] Epoch ended. INSTR misses = 67, DATA misses = 50. Winner = DATA
[DUEL] Epoch ended. INSTR misses = 78, DATA misses = 53. Winner = DATA
[DUEL] Epoch ended. INSTR misses = 69, DATA misses = 34. Winner = DATA
[DUEL] Epoch ended. INSTR misses = 53, DATA misses = 15. Winner = DATA
[DUEL] Epoch ended. INSTR misses = 49, DATA misses = 18. Winner = DATA
[DUEL] Epoch ended. INSTR misses = 49, DATA misses = 15. Winner = DATA
[DUEL] Epoch ended. INSTR misses = 75, DATA misses = 49. Winner = DATA
[DUEL] Epoch ended. INSTR misses = 60, DATA misses = 30. Winner = DATA
[DUEL] Epoch ended. INSTR misses = 50, DATA misses = 21. Winner = DATA
[DUEL] Epoch ended. INSTR misses = 72, DATA misses = 47. Winner = DATA
[DUEL] Epoch ended. INSTR misses = 55, DATA misses = 18. Winner = DATA
[DUEL] Epoch ended. INSTR misses = 48, DATA misses = 6. Winner = DATA
[DUEL] Epoch ended. INSTR misses = 45, DATA misses = 6. Winner = DATA
[DUEL] Epoch ended. INSTR misses = 61, DATA misses = 34. Winner = DATA
[DUEL] Epoch ended. INSTR misses = 51, DATA misses = 12. Winner = DATA
[DUEL] Epoch ended. INSTR misses = 100, DATA misses = 67. Winner = DATA
[DUEL] Epoch ended. INSTR misses = 66, DATA misses = 34. Winner = DATA
[DUEL] Epoch ended. INSTR misses = 68, DATA misses = 35. Winner = DATA
[DUEL] Epoch ended. INSTR misses = 55, DATA misses = 15. Winner = DATA
[DUEL] Epoch ended. INSTR misses = 109, DATA misses = 93. Winner = DATA
[DUEL] Epoch ended. INSTR misses = 67, DATA misses = 34. Winner = DATA
[DUEL] Epoch ended. INSTR misses = 48, DATA misses = 18. Winner = DATA
[DUEL] Epoch ended. INSTR misses = 48, DATA misses = 18. Winner = DATA
[DUEL] Epoch ended. INSTR misses = 65, DATA misses = 25. Winner = DATA
[DUEL] Epoch ended. INSTR misses = 42, DATA misses = 33. Winner = DATA
[DUEL] Epoch ended. INSTR misses = 59, DATA misses = 22. Winner = DATA
[DUEL] Epoch ended. INSTR misses = 90, DATA misses = 40. Winner = DATA
[DUEL] Epoch ended. INSTR misses = 51, DATA misses = 48. Winner = DATA
[DUEL] Epoch ended. INSTR misses = 48, DATA misses = 21. Winner = DATA
[DUEL] Epoch ended. INSTR misses = 43, DATA misses = 21. Winner = DATA
[DUEL] Epoch ended. INSTR misses = 49, DATA misses = 12. Winner = DATA
[DUEL] Epoch ended. INSTR misses = 49, DATA misses = 18. Winner = DATA
[DUEL] Epoch ended. INSTR misses = 51, DATA misses = 15. Winner = DATA
[DUEL] Epoch ended. INSTR misses = 49, DATA misses = 9. Winner = DATA
[DUEL] Epoch ended. INSTR misses = 69, DATA misses = 49. Winner = DATA
[DUEL] Epoch ended. INSTR misses = 59, DATA misses = 21. Winner = DATA
Heartbeat CPU 0 instructions: 110000000 cycles: 114860007 heartbeat IPC: 1.09 cumulative IPC: 0.7285 (Simulation time: 00 hr 15 min 47 sec)
[DUEL] Epoch ended. INSTR misses = 86, DATA misses = 46. Winner = DATA
[DUEL] Epoch ended. INSTR misses = 56, DATA misses = 12. Winner = DATA
[DUEL] Epoch ended. INSTR misses = 66, DATA misses = 42. Winner = DATA
[DUEL] Epoch ended. INSTR misses = 65, DATA misses = 45. Winner = DATA
[DUEL] Epoch ended. INSTR misses = 58, DATA misses = 35. Winner = DATA
[DUEL] Epoch ended. INSTR misses = 51, DATA misses = 15. Winner = DATA
[DUEL] Epoch ended. INSTR misses = 59, DATA misses = 30. Winner = DATA
[DUEL] Epoch ended. INSTR misses = 75, DATA misses = 65. Winner = DATA
[DUEL] Epoch ended. INSTR misses = 80, DATA misses = 86. Winner = INSTR
[DUEL] Epoch ended. INSTR misses = 110, DATA misses = 105. Winner = DATA
[DUEL] Epoch ended. INSTR misses = 150, DATA misses = 140. Winner = DATA
[DUEL] Epoch ended. INSTR misses = 97, DATA misses = 84. Winner = DATA
[DUEL] Epoch ended. INSTR misses = 145, DATA misses = 155. Winner = INSTR
[DUEL] Epoch ended. INSTR misses = 127, DATA misses = 123. Winner = DATA
[DUEL] Epoch ended. INSTR misses = 177, DATA misses = 171. Winner = DATA
[DUEL] Epoch ended. INSTR misses = 147, DATA misses = 145. Winner = DATA
[DUEL] Epoch ended. INSTR misses = 110, DATA misses = 115. Winner = INSTR
[DUEL] Epoch ended. INSTR misses = 137, DATA misses = 130. Winner = DATA
[DUEL] Epoch ended. INSTR misses = 125, DATA misses = 122. Winner = DATA
[DUEL] Epoch ended. INSTR misses = 135, DATA misses = 136. Winner = INSTR
[DUEL] Epoch ended. INSTR misses = 107, DATA misses = 103. Winner = DATA
[DUEL] Epoch ended. INSTR misses = 159, DATA misses = 161. Winner = INSTR
[DUEL] Epoch ended. INSTR misses = 178, DATA misses = 177. Winner = DATA
[DUEL] Epoch ended. INSTR misses = 140, DATA misses = 139. Winner = DATA
[DUEL] Epoch ended. INSTR misses = 140, DATA misses = 138. Winner = DATA
[DUEL] Epoch ended. INSTR misses = 163, DATA misses = 164. Winner = INSTR
[DUEL] Epoch ended. INSTR misses = 188, DATA misses = 185. Winner = DATA
[DUEL] Epoch ended. INSTR misses = 126, DATA misses = 123. Winner = DATA
[DUEL] Epoch ended. INSTR misses = 91, DATA misses = 83. Winner = DATA
[DUEL] Epoch ended. INSTR misses = 176, DATA misses = 174. Winner = DATA
[DUEL] Epoch ended. INSTR misses = 144, DATA misses = 128. Winner = DATA
[DUEL] Epoch ended. INSTR misses = 122, DATA misses = 139. Winner = INSTR
[DUEL] Epoch ended. INSTR misses = 151, DATA misses = 149. Winner = DATA
[DUEL] Epoch ended. INSTR misses = 144, DATA misses = 129. Winner = DATA
[DUEL] Epoch ended. INSTR misses = 125, DATA misses = 123. Winner = DATA
[DUEL] Epoch ended. INSTR misses = 122, DATA misses = 116. Winner = DATA
[DUEL] Epoch ended. INSTR misses = 139, DATA misses = 132. Winner = DATA
[DUEL] Epoch ended. INSTR misses = 147, DATA misses = 153. Winner = INSTR
[DUEL] Epoch ended. INSTR misses = 181, DATA misses = 170. Winner = DATA
Heartbeat CPU 0 instructions: 120000011 cycles: 138581126 heartbeat IPC: 0.4216 cumulative IPC: 0.674 (Simulation time: 00 hr 18 min 53 sec)
[DUEL] Epoch ended. INSTR misses = 110, DATA misses = 108. Winner = DATA
[DUEL] Epoch ended. INSTR misses = 135, DATA misses = 136. Winner = INSTR
[DUEL] Epoch ended. INSTR misses = 149, DATA misses = 150. Winner = INSTR
[DUEL] Epoch ended. INSTR misses = 123, DATA misses = 121. Winner = DATA
[DUEL] Epoch ended. INSTR misses = 150, DATA misses = 153. Winner = INSTR
[DUEL] Epoch ended. INSTR misses = 145, DATA misses = 143. Winner = DATA
[DUEL] Epoch ended. INSTR misses = 124, DATA misses = 122. Winner = DATA
[DUEL] Epoch ended. INSTR misses = 137, DATA misses = 141. Winner = INSTR
[DUEL] Epoch ended. INSTR misses = 151, DATA misses = 144. Winner = DATA
[DUEL] Epoch ended. INSTR misses = 106, DATA misses = 103. Winner = DATA
[DUEL] Epoch ended. INSTR misses = 161, DATA misses = 150. Winner = DATA
[DUEL] Epoch ended. INSTR misses = 152, DATA misses = 159. Winner = INSTR
[DUEL] Epoch ended. INSTR misses = 155, DATA misses = 156. Winner = INSTR
[DUEL] Epoch ended. INSTR misses = 64, DATA misses = 63. Winner = DATA
[DUEL] Epoch ended. INSTR misses = 37, DATA misses = 37. Winner = INSTR
[DUEL] Epoch ended. INSTR misses = 101, DATA misses = 99. Winner = DATA
[DUEL] Epoch ended. INSTR misses = 93, DATA misses = 93. Winner = INSTR
[DUEL] Epoch ended. INSTR misses = 60, DATA misses = 43. Winner = DATA
[DUEL] Epoch ended. INSTR misses = 37, DATA misses = 40. Winner = INSTR
[DUEL] Epoch ended. INSTR misses = 53, DATA misses = 49. Winner = DATA
[DUEL] Epoch ended. INSTR misses = 45, DATA misses = 36. Winner = DATA
[DUEL] Epoch ended. INSTR misses = 41, DATA misses = 39. Winner = DATA
[DUEL] Epoch ended. INSTR misses = 27, DATA misses = 24. Winner = DATA
[DUEL] Epoch ended. INSTR misses = 46, DATA misses = 46. Winner = INSTR
[DUEL] Epoch ended. INSTR misses = 42, DATA misses = 51. Winner = INSTR
[DUEL] Epoch ended. INSTR misses = 34, DATA misses = 39. Winner = INSTR
[DUEL] Epoch ended. INSTR misses = 53, DATA misses = 45. Winner = DATA
[DUEL] Epoch ended. INSTR misses = 38, DATA misses = 40. Winner = INSTR
[DUEL] Epoch ended. INSTR misses = 46, DATA misses = 42. Winner = DATA
[DUEL] Epoch ended. INSTR misses = 53, DATA misses = 45. Winner = DATA
[DUEL] Epoch ended. INSTR misses = 37, DATA misses = 41. Winner = INSTR
[DUEL] Epoch ended. INSTR misses = 24, DATA misses = 22. Winner = DATA
[DUEL] Epoch ended. INSTR misses = 50, DATA misses = 55. Winner = INSTR
[DUEL] Epoch ended. INSTR misses = 32, DATA misses = 32. Winner = INSTR
[DUEL] Epoch ended. INSTR misses = 51, DATA misses = 45. Winner = DATA
[DUEL] Epoch ended. INSTR misses = 52, DATA misses = 42. Winner = DATA
[DUEL] Epoch ended. INSTR misses = 41, DATA misses = 57. Winner = INSTR
[DUEL] Epoch ended. INSTR misses = 44, DATA misses = 40. Winner = DATA
[DUEL] Epoch ended. INSTR misses = 50, DATA misses = 47. Winner = DATA
Heartbeat CPU 0 instructions: 130000001 cycles: 156082653 heartbeat IPC: 0.5714 cumulative IPC: 0.6621 (Simulation time: 00 hr 21 min 11 sec)
Simulation finished CPU 0 instructions: 100000003 cycles: 151031392 cumulative IPC: 0.6621 (Simulation time: 00 hr 21 min 11 sec)
Simulation complete CPU 0 instructions: 100000003 cycles: 151031392 cumulative IPC: 0.6621 (Simulation time: 00 hr 21 min 11 sec)

ChampSim completed all CPUs

=== Simulation ===
CPU 0 runs ../traces/secret_traces/compute_fp/compute_fp_67.champsimtrace.xz
Region of Interest Statistics

CPU 0 cumulative IPC: 0.6621 instructions: 100000003 cycles: 151031392
CPU 0 Branch Prediction Accuracy: 99.11% MPKI: 0.1327 Average ROB Occupancy at Mispredict: 30.29
Branch type MPKI
BRANCH_DIRECT_JUMP: 0.00719
BRANCH_INDIRECT: 0.066
BRANCH_CONDITIONAL: 0.0261
BRANCH_DIRECT_CALL: 0.02
BRANCH_INDIRECT_CALL: 0.00218
BRANCH_RETURN: 0.0111

LLC TOTAL        ACCESS:    6568640 HIT:     286280 MISS:    6282360
LLC LOAD         ACCESS:    1517188 HIT:      13971 MISS:    1503217
LLC RFO          ACCESS:     617795 HIT:      25292 MISS:     592503
LLC PREFETCH     ACCESS:    2835649 HIT:      39278 MISS:    2796371
LLC WRITE        ACCESS:    1587255 HIT:     207405 MISS:    1379850
LLC TRANSLATION  ACCESS:      10753 HIT:        334 MISS:      10419
LLC PREFETCH REQUESTED:          0 ISSUED:          0 USEFUL:          0 USELESS:          0
LLC AVERAGE MISS LATENCY: 426.3 cycles
cpu0_DTLB TOTAL        ACCESS:   16827302 HIT:   15761448 MISS:    1065854
cpu0_DTLB LOAD         ACCESS:   16827302 HIT:   15761448 MISS:    1065854
cpu0_DTLB RFO          ACCESS:          0 HIT:          0 MISS:          0
cpu0_DTLB PREFETCH     ACCESS:          0 HIT:          0 MISS:          0
cpu0_DTLB WRITE        ACCESS:          0 HIT:          0 MISS:          0
cpu0_DTLB TRANSLATION  ACCESS:          0 HIT:          0 MISS:          0
cpu0_DTLB PREFETCH REQUESTED:          0 ISSUED:          0 USEFUL:          0 USELESS:          0
cpu0_DTLB AVERAGE MISS LATENCY: 12.69 cycles
cpu0_ITLB TOTAL        ACCESS:     120093 HIT:     118515 MISS:       1578
cpu0_ITLB LOAD         ACCESS:     120093 HIT:     118515 MISS:       1578
cpu0_ITLB RFO          ACCESS:          0 HIT:          0 MISS:          0
cpu0_ITLB PREFETCH     ACCESS:          0 HIT:          0 MISS:          0
cpu0_ITLB WRITE        ACCESS:          0 HIT:          0 MISS:          0
cpu0_ITLB TRANSLATION  ACCESS:          0 HIT:          0 MISS:          0
cpu0_ITLB PREFETCH REQUESTED:          0 ISSUED:          0 USEFUL:          0 USELESS:          0
cpu0_ITLB AVERAGE MISS LATENCY: 61.59 cycles
cpu0_L1D TOTAL        ACCESS:   30190370 HIT:   15106121 MISS:   15084249
cpu0_L1D LOAD         ACCESS:   14315717 HIT:    4438844 MISS:    9876873
cpu0_L1D RFO          ACCESS:          0 HIT:          0 MISS:          0
cpu0_L1D PREFETCH     ACCESS:    5929208 HIT:    2847152 MISS:    3082056
cpu0_L1D WRITE        ACCESS:    9698141 HIT:    7608467 MISS:    2089674
cpu0_L1D TRANSLATION  ACCESS:     247304 HIT:     211658 MISS:      35646
cpu0_L1D PREFETCH REQUESTED:   71487346 ISSUED:    5929192 USEFUL:     535406 USELESS:      20492
cpu0_L1D AVERAGE MISS LATENCY: 101.9 cycles
cpu0_L1I TOTAL        ACCESS:     173872 HIT:     136821 MISS:      37051
cpu0_L1I LOAD         ACCESS:      61121 HIT:      49665 MISS:      11456
cpu0_L1I RFO          ACCESS:          0 HIT:          0 MISS:          0
cpu0_L1I PREFETCH     ACCESS:     112751 HIT:      87156 MISS:      25595
cpu0_L1I WRITE        ACCESS:          0 HIT:          0 MISS:          0
cpu0_L1I TRANSLATION  ACCESS:          0 HIT:          0 MISS:          0
cpu0_L1I PREFETCH REQUESTED:     170633 ISSUED:     112751 USEFUL:      14069 USELESS:       9228
cpu0_L1I AVERAGE MISS LATENCY: 140.1 cycles
cpu0_L2C TOTAL        ACCESS:   13183507 HIT:    4315741 MISS:    8867766
cpu0_L2C LOAD         ACCESS:    2920342 HIT:     567341 MISS:    2353001
cpu0_L2C RFO          ACCESS:     621213 HIT:       3310 MISS:     617903
cpu0_L2C PREFETCH     ACCESS:    8022517 HIT:    2139516 MISS:    5883001
cpu0_L2C WRITE        ACCESS:    1585456 HIT:    1582351 MISS:       3105
cpu0_L2C TRANSLATION  ACCESS:      33979 HIT:      23223 MISS:      10756
cpu0_L2C PREFETCH REQUESTED:    5642543 ISSUED:    5477279 USEFUL:    1118273 USELESS:     886922
cpu0_L2C AVERAGE MISS LATENCY: 296.7 cycles
cpu0_STLB TOTAL        ACCESS:     292275 HIT:      45611 MISS:     246664
cpu0_STLB LOAD         ACCESS:     292275 HIT:      45611 MISS:     246664
cpu0_STLB RFO          ACCESS:          0 HIT:          0 MISS:          0
cpu0_STLB PREFETCH     ACCESS:          0 HIT:          0 MISS:          0
cpu0_STLB WRITE        ACCESS:          0 HIT:          0 MISS:          0
cpu0_STLB TRANSLATION  ACCESS:          0 HIT:          0 MISS:          0
cpu0_STLB PREFETCH REQUESTED:          0 ISSUED:          0 USEFUL:          0 USELESS:          0
cpu0_STLB AVERAGE MISS LATENCY: 77.03 cycles

DRAM Statistics

Channel 0 RQ ROW_BUFFER_HIT:    1046980
  ROW_BUFFER_MISS:    1370354
 AVG DBUS CONGESTED CYCLE: 3.941
WQ ROW_BUFFER_HIT: Channel 0 
  ROW_BUFFER_MISS:      41879
  FULL:     684883

Channel 1 RQ ROW_BUFFER_HIT:    1025529
  ROW_BUFFER_MISS:    1459636
 AVG DBUS CONGESTED CYCLE: 3.952
WQ ROW_BUFFER_HIT: Channel 1 
  ROW_BUFFER_MISS:      64049
  FULL:     753799
BERTI TO_L1: 9843385 TO_L2: 69728406 TO_L2_BC_MSHR: 43203675
BERTI AVG_LAT: 372.293 NUM_TRACK_LATENCY: 4382117 NUM_CANT_TRACK_LATENCY: 114
BERTI CROSS_PAGE 55527602 NO_CROSS_PAGE: 24044189
BERTI FOUND_BERTI: 40359758 NO_FOUND_BERTI: 13317361
BERTI AVERAGE_ISSUED: 5.28561
CPU 0 L1I Entangling prefetcher final stats
IP accesses: 38a6 e2980 1534 / 91700
IP misses: 38a6 e2980 1531 / 42035
IP hits: 0 0 0 / 0
IP late: 5a81 16a040 16 / 6095
IP wrong: e8e9 3a3a40 24 / 9170
miss rate: 0.458397
coverage: 0
coverage_late: 0.144999
accuracy: 0
accuracy_late: 0.39928
discarded: 0
evicts entangled j table: 0
evicts entangled k table: 1646
max bb size: 65
formats: 423 0 1365 739 320 741 0 
hist_lookups: 1134 1196 982 886 801 705 558 474 368 278 187 117 91 54 18 0 42 4096 
hist_lookups_evict: 0.35038 %
hist_lookups_shortlat: 34.1704 %
bb_found_hist: 0 14530 6654 2900 1099 647 241 72 61 18 11 30 20 1 9 0 17 0 0 0 0 0 0 5 0 0 0 0 0 0 0 0 0 0 0 0 0 0 0 0 0 0 0 0 0 0 0 0 0 0 0 0 0 0 0 0 0 0 0 0 0 0 0 0 
bb_found_summary: 47975 26315 1.82311
entangled_found_hist: 0 8371 5462 9822 1779 459 51 0 
entangled_found_summary: 58478 25944 2.25401
bb_ent_found_hist: 0 20421 9739 5418 2287 1539 721 172 119 19 21 79 32 1 0 0 0 0 0 0 0 0 0 9 0 0 0 0 0 0 0 0 0 0 0 0 0 0 0 0 0 0 0 0 0 0 0 0 0 0 0 0 0 0 0 0 0 0 0 0 0 0 0 0 
bb_ent_found_summary: 81332 40577 2.00439
