WARNING: physical memory size is smaller than virtual memory size.

*** ChampSim Multicore Out-of-Order Simulator ***
Warmup Instructions: 30000000
Simulation Instructions: 100000000
Number of CPUs: 1
Page size: 4096

BTB:
Basic BTB sets: 1024 ways: 8
Indirect:
history lengths: 0 0 10 16 27 44 60 96 109 219 449 487 714 1313 2146 3881 
ITTAGE tables: 64768 bytes;Region table: 240 bytes;IUM: 384 bytes;Total Storage= 65392 bytes;
RAS:
RAS size: 64
[LLC] INSTR Demand IPV: 1 2 2 1 4 Prefetch IPV: 1 2 1 1 4
[LLC] DATA  Demand IPV: 1 1 1 2 4 Prefetch IPV: 1 1 2 2 4
Berti Prefetcher
CPU 0 Entangling prefetcher
Off-chip DRAM Size: 8 GiB Channels: 2 Width: 64-bit Data Race: 6400 MT/s
[DUEL] Epoch ended. INSTR misses = 16, DATA misses = 5. Winner = DATA
[DUEL] Epoch ended. INSTR misses = 117, DATA misses = 118. Winner = INSTR
[DUEL] Epoch ended. INSTR misses = 44, DATA misses = 46. Winner = INSTR
[DUEL] Epoch ended. INSTR misses = 57, DATA misses = 32. Winner = DATA
[DUEL] Epoch ended. INSTR misses = 64, DATA misses = 45. Winner = DATA
[DUEL] Epoch ended. INSTR misses = 57, DATA misses = 31. Winner = DATA
[DUEL] Epoch ended. INSTR misses = 45, DATA misses = 14. Winner = DATA
[DUEL] Epoch ended. INSTR misses = 36, DATA misses = 16. Winner = DATA
[DUEL] Epoch ended. INSTR misses = 42, DATA misses = 19. Winner = DATA
[DUEL] Epoch ended. INSTR misses = 33, DATA misses = 20. Winner = DATA
[DUEL] Epoch ended. INSTR misses = 36, DATA misses = 20. Winner = DATA
[DUEL] Epoch ended. INSTR misses = 33, DATA misses = 32. Winner = DATA
[DUEL] Epoch ended. INSTR misses = 65, DATA misses = 40. Winner = DATA
[DUEL] Epoch ended. INSTR misses = 56, DATA misses = 6. Winner = DATA
[DUEL] Epoch ended. INSTR misses = 46, DATA misses = 58. Winner = INSTR
[DUEL] Epoch ended. INSTR misses = 42, DATA misses = 38. Winner = DATA
[DUEL] Epoch ended. INSTR misses = 28, DATA misses = 24. Winner = DATA
[DUEL] Epoch ended. INSTR misses = 36, DATA misses = 16. Winner = DATA
[DUEL] Epoch ended. INSTR misses = 52, DATA misses = 14. Winner = DATA
[DUEL] Epoch ended. INSTR misses = 61, DATA misses = 29. Winner = DATA
[DUEL] Epoch ended. INSTR misses = 56, DATA misses = 16. Winner = DATA
[DUEL] Epoch ended. INSTR misses = 52, DATA misses = 37. Winner = DATA
[DUEL] Epoch ended. INSTR misses = 69, DATA misses = 44. Winner = DATA
[DUEL] Epoch ended. INSTR misses = 47, DATA misses = 52. Winner = INSTR
[DUEL] Epoch ended. INSTR misses = 37, DATA misses = 32. Winner = DATA
[DUEL] Epoch ended. INSTR misses = 44, DATA misses = 8. Winner = DATA
[DUEL] Epoch ended. INSTR misses = 58, DATA misses = 43. Winner = DATA
[DUEL] Epoch ended. INSTR misses = 28, DATA misses = 30. Winner = INSTR
[DUEL] Epoch ended. INSTR misses = 27, DATA misses = 16. Winner = DATA
[DUEL] Epoch ended. INSTR misses = 66, DATA misses = 59. Winner = DATA
[DUEL] Epoch ended. INSTR misses = 64, DATA misses = 38. Winner = DATA
[DUEL] Epoch ended. INSTR misses = 37, DATA misses = 40. Winner = INSTR
[DUEL] Epoch ended. INSTR misses = 35, DATA misses = 38. Winner = INSTR
[DUEL] Epoch ended. INSTR misses = 37, DATA misses = 16. Winner = DATA
[DUEL] Epoch ended. INSTR misses = 44, DATA misses = 57. Winner = INSTR
[DUEL] Epoch ended. INSTR misses = 33, DATA misses = 33. Winner = INSTR
[DUEL] Epoch ended. INSTR misses = 26, DATA misses = 41. Winner = INSTR
[DUEL] Epoch ended. INSTR misses = 30, DATA misses = 8. Winner = DATA
[DUEL] Epoch ended. INSTR misses = 50, DATA misses = 16. Winner = DATA
Heartbeat CPU 0 instructions: 10000009 cycles: 1717193 heartbeat IPC: 5.823 cumulative IPC: 5.823 (Simulation time: 00 hr 00 min 23 sec)
[DUEL] Epoch ended. INSTR misses = 81, DATA misses = 39. Winner = DATA
[DUEL] Epoch ended. INSTR misses = 69, DATA misses = 47. Winner = DATA
[DUEL] Epoch ended. INSTR misses = 21, DATA misses = 36. Winner = INSTR
[DUEL] Epoch ended. INSTR misses = 86, DATA misses = 35. Winner = DATA
[DUEL] Epoch ended. INSTR misses = 32, DATA misses = 39. Winner = INSTR
[DUEL] Epoch ended. INSTR misses = 54, DATA misses = 52. Winner = DATA
[DUEL] Epoch ended. INSTR misses = 49, DATA misses = 9. Winner = DATA
[DUEL] Epoch ended. INSTR misses = 42, DATA misses = 16. Winner = DATA
[DUEL] Epoch ended. INSTR misses = 43, DATA misses = 54. Winner = INSTR
[DUEL] Epoch ended. INSTR misses = 84, DATA misses = 44. Winner = DATA
[DUEL] Epoch ended. INSTR misses = 56, DATA misses = 67. Winner = INSTR
[DUEL] Epoch ended. INSTR misses = 70, DATA misses = 29. Winner = DATA
[DUEL] Epoch ended. INSTR misses = 47, DATA misses = 42. Winner = DATA
[DUEL] Epoch ended. INSTR misses = 34, DATA misses = 38. Winner = INSTR
[DUEL] Epoch ended. INSTR misses = 38, DATA misses = 17. Winner = DATA
[DUEL] Epoch ended. INSTR misses = 46, DATA misses = 18. Winner = DATA
[DUEL] Epoch ended. INSTR misses = 46, DATA misses = 29. Winner = DATA
[DUEL] Epoch ended. INSTR misses = 46, DATA misses = 40. Winner = DATA
[DUEL] Epoch ended. INSTR misses = 54, DATA misses = 30. Winner = DATA
[DUEL] Epoch ended. INSTR misses = 68, DATA misses = 41. Winner = DATA
[DUEL] Epoch ended. INSTR misses = 40, DATA misses = 41. Winner = INSTR
[DUEL] Epoch ended. INSTR misses = 28, DATA misses = 29. Winner = INSTR
[DUEL] Epoch ended. INSTR misses = 25, DATA misses = 12. Winner = DATA
[DUEL] Epoch ended. INSTR misses = 45, DATA misses = 18. Winner = DATA
[DUEL] Epoch ended. INSTR misses = 61, DATA misses = 41. Winner = DATA
[DUEL] Epoch ended. INSTR misses = 55, DATA misses = 28. Winner = DATA
[DUEL] Epoch ended. INSTR misses = 59, DATA misses = 29. Winner = DATA
[DUEL] Epoch ended. INSTR misses = 47, DATA misses = 44. Winner = DATA
[DUEL] Epoch ended. INSTR misses = 35, DATA misses = 34. Winner = DATA
[DUEL] Epoch ended. INSTR misses = 52, DATA misses = 24. Winner = DATA
[DUEL] Epoch ended. INSTR misses = 20, DATA misses = 12. Winner = DATA
[DUEL] Epoch ended. INSTR misses = 36, DATA misses = 8. Winner = DATA
[DUEL] Epoch ended. INSTR misses = 35, DATA misses = 12. Winner = DATA
[DUEL] Epoch ended. INSTR misses = 55, DATA misses = 11. Winner = DATA
[DUEL] Epoch ended. INSTR misses = 56, DATA misses = 62. Winner = INSTR
[DUEL] Epoch ended. INSTR misses = 62, DATA misses = 37. Winner = DATA
[DUEL] Epoch ended. INSTR misses = 94, DATA misses = 20. Winner = DATA
[DUEL] Epoch ended. INSTR misses = 55, DATA misses = 34. Winner = DATA
[DUEL] Epoch ended. INSTR misses = 72, DATA misses = 57. Winner = DATA
Heartbeat CPU 0 instructions: 20000004 cycles: 3384988 heartbeat IPC: 5.996 cumulative IPC: 5.908 (Simulation time: 00 hr 00 min 45 sec)
[DUEL] Epoch ended. INSTR misses = 72, DATA misses = 6. Winner = DATA
[DUEL] Epoch ended. INSTR misses = 34, DATA misses = 32. Winner = DATA
[DUEL] Epoch ended. INSTR misses = 41, DATA misses = 25. Winner = DATA
[DUEL] Epoch ended. INSTR misses = 64, DATA misses = 34. Winner = DATA
[DUEL] Epoch ended. INSTR misses = 52, DATA misses = 29. Winner = DATA
[DUEL] Epoch ended. INSTR misses = 66, DATA misses = 23. Winner = DATA
[DUEL] Epoch ended. INSTR misses = 55, DATA misses = 34. Winner = DATA
[DUEL] Epoch ended. INSTR misses = 297, DATA misses = 277. Winner = DATA
[DUEL] Epoch ended. INSTR misses = 480, DATA misses = 479. Winner = DATA
[DUEL] Epoch ended. INSTR misses = 511, DATA misses = 511. Winner = INSTR
[DUEL] Epoch ended. INSTR misses = 511, DATA misses = 512. Winner = INSTR
[DUEL] Epoch ended. INSTR misses = 480, DATA misses = 480. Winner = INSTR
[DUEL] Epoch ended. INSTR misses = 511, DATA misses = 510. Winner = DATA
[DUEL] Epoch ended. INSTR misses = 107, DATA misses = 96. Winner = DATA
[DUEL] Epoch ended. INSTR misses = 101, DATA misses = 112. Winner = INSTR
[DUEL] Epoch ended. INSTR misses = 32, DATA misses = 12. Winner = DATA
[DUEL] Epoch ended. INSTR misses = 64, DATA misses = 40. Winner = DATA
[DUEL] Epoch ended. INSTR misses = 45, DATA misses = 28. Winner = DATA
[DUEL] Epoch ended. INSTR misses = 34, DATA misses = 12. Winner = DATA
[DUEL] Epoch ended. INSTR misses = 72, DATA misses = 52. Winner = DATA
[DUEL] Epoch ended. INSTR misses = 44, DATA misses = 20. Winner = DATA
[DUEL] Epoch ended. INSTR misses = 64, DATA misses = 47. Winner = DATA
[DUEL] Epoch ended. INSTR misses = 46, DATA misses = 24. Winner = DATA
[DUEL] Epoch ended. INSTR misses = 42, DATA misses = 24. Winner = DATA
[DUEL] Epoch ended. INSTR misses = 60, DATA misses = 28. Winner = DATA
[DUEL] Epoch ended. INSTR misses = 47, DATA misses = 28. Winner = DATA
[DUEL] Epoch ended. INSTR misses = 53, DATA misses = 36. Winner = DATA
[DUEL] Epoch ended. INSTR misses = 58, DATA misses = 36. Winner = DATA
[DUEL] Epoch ended. INSTR misses = 52, DATA misses = 40. Winner = DATA
[DUEL] Epoch ended. INSTR misses = 61, DATA misses = 39. Winner = DATA
[DUEL] Epoch ended. INSTR misses = 42, DATA misses = 28. Winner = DATA
[DUEL] Epoch ended. INSTR misses = 53, DATA misses = 32. Winner = DATA
[DUEL] Epoch ended. INSTR misses = 60, DATA misses = 24. Winner = DATA
[DUEL] Epoch ended. INSTR misses = 45, DATA misses = 20. Winner = DATA
[DUEL] Epoch ended. INSTR misses = 54, DATA misses = 39. Winner = DATA
[DUEL] Epoch ended. INSTR misses = 64, DATA misses = 33. Winner = DATA
[DUEL] Epoch ended. INSTR misses = 50, DATA misses = 34. Winner = DATA
[DUEL] Epoch ended. INSTR misses = 42, DATA misses = 24. Winner = DATA
[DUEL] Epoch ended. INSTR misses = 65, DATA misses = 36. Winner = DATA
Heartbeat CPU 0 instructions: 30000002 cycles: 5532458 heartbeat IPC: 4.657 cumulative IPC: 5.423 (Simulation time: 00 hr 01 min 11 sec)
Warmup finished CPU 0 instructions: 30000002 cycles: 5532459 cumulative IPC: 5.423 (Simulation time: 00 hr 01 min 11 sec)
Warmup complete CPU 0 instructions: 30000002 cycles: 5532459 cumulative IPC: 5.423 (Simulation time: 00 hr 01 min 11 sec)
[DUEL] Epoch ended. INSTR misses = 44, DATA misses = 30. Winner = DATA
[DUEL] Epoch ended. INSTR misses = 64, DATA misses = 26. Winner = DATA
[DUEL] Epoch ended. INSTR misses = 48, DATA misses = 24. Winner = DATA
[DUEL] Epoch ended. INSTR misses = 44, DATA misses = 22. Winner = DATA
[DUEL] Epoch ended. INSTR misses = 68, DATA misses = 25. Winner = DATA
[DUEL] Epoch ended. INSTR misses = 44, DATA misses = 24. Winner = DATA
[DUEL] Epoch ended. INSTR misses = 44, DATA misses = 18. Winner = DATA
[DUEL] Epoch ended. INSTR misses = 71, DATA misses = 30. Winner = DATA
[DUEL] Epoch ended. INSTR misses = 45, DATA misses = 26. Winner = DATA
[DUEL] Epoch ended. INSTR misses = 40, DATA misses = 12. Winner = DATA
[DUEL] Epoch ended. INSTR misses = 69, DATA misses = 34. Winner = DATA
[DUEL] Epoch ended. INSTR misses = 41, DATA misses = 23. Winner = DATA
[DUEL] Epoch ended. INSTR misses = 71, DATA misses = 40. Winner = DATA
[DUEL] Epoch ended. INSTR misses = 44, DATA misses = 8. Winner = DATA
[DUEL] Epoch ended. INSTR misses = 41, DATA misses = 24. Winner = DATA
[DUEL] Epoch ended. INSTR misses = 69, DATA misses = 36. Winner = DATA
[DUEL] Epoch ended. INSTR misses = 45, DATA misses = 20. Winner = DATA
[DUEL] Epoch ended. INSTR misses = 44, DATA misses = 24. Winner = DATA
[DUEL] Epoch ended. INSTR misses = 71, DATA misses = 32. Winner = DATA
[DUEL] Epoch ended. INSTR misses = 45, DATA misses = 23. Winner = DATA
[DUEL] Epoch ended. INSTR misses = 65, DATA misses = 49. Winner = DATA
[DUEL] Epoch ended. INSTR misses = 59, DATA misses = 16. Winner = DATA
[DUEL] Epoch ended. INSTR misses = 57, DATA misses = 36. Winner = DATA
[DUEL] Epoch ended. INSTR misses = 56, DATA misses = 32. Winner = DATA
[DUEL] Epoch ended. INSTR misses = 47, DATA misses = 4. Winner = DATA
[DUEL] Epoch ended. INSTR misses = 52, DATA misses = 36. Winner = DATA
[DUEL] Epoch ended. INSTR misses = 56, DATA misses = 28. Winner = DATA
[DUEL] Epoch ended. INSTR misses = 59, DATA misses = 24. Winner = DATA
[DUEL] Epoch ended. INSTR misses = 40, DATA misses = 20. Winner = DATA
[DUEL] Epoch ended. INSTR misses = 65, DATA misses = 28. Winner = DATA
[DUEL] Epoch ended. INSTR misses = 51, DATA misses = 28. Winner = DATA
[DUEL] Epoch ended. INSTR misses = 56, DATA misses = 36. Winner = DATA
[DUEL] Epoch ended. INSTR misses = 44, DATA misses = 8. Winner = DATA
[DUEL] Epoch ended. INSTR misses = 44, DATA misses = 16. Winner = DATA
[DUEL] Epoch ended. INSTR misses = 63, DATA misses = 48. Winner = DATA
[DUEL] Epoch ended. INSTR misses = 48, DATA misses = 32. Winner = DATA
[DUEL] Epoch ended. INSTR misses = 68, DATA misses = 40. Winner = DATA
[DUEL] Epoch ended. INSTR misses = 67, DATA misses = 32. Winner = DATA
[DUEL] Epoch ended. INSTR misses = 59, DATA misses = 32. Winner = DATA
Heartbeat CPU 0 instructions: 40000002 cycles: 14936804 heartbeat IPC: 1.063 cumulative IPC: 1.063 (Simulation time: 00 hr 02 min 30 sec)
[DUEL] Epoch ended. INSTR misses = 48, DATA misses = 16. Winner = DATA
[DUEL] Epoch ended. INSTR misses = 61, DATA misses = 24. Winner = DATA
[DUEL] Epoch ended. INSTR misses = 31, DATA misses = 19. Winner = DATA
[DUEL] Epoch ended. INSTR misses = 69, DATA misses = 28. Winner = DATA
[DUEL] Epoch ended. INSTR misses = 27, DATA misses = 24. Winner = DATA
[DUEL] Epoch ended. INSTR misses = 43, DATA misses = 32. Winner = DATA
[DUEL] Epoch ended. INSTR misses = 65, DATA misses = 32. Winner = DATA
[DUEL] Epoch ended. INSTR misses = 56, DATA misses = 28. Winner = DATA
[DUEL] Epoch ended. INSTR misses = 63, DATA misses = 28. Winner = DATA
[DUEL] Epoch ended. INSTR misses = 60, DATA misses = 20. Winner = DATA
[DUEL] Epoch ended. INSTR misses = 29, DATA misses = 24. Winner = DATA
[DUEL] Epoch ended. INSTR misses = 44, DATA misses = 36. Winner = DATA
[DUEL] Epoch ended. INSTR misses = 73, DATA misses = 44. Winner = DATA
[DUEL] Epoch ended. INSTR misses = 37, DATA misses = 16. Winner = DATA
[DUEL] Epoch ended. INSTR misses = 57, DATA misses = 28. Winner = DATA
[DUEL] Epoch ended. INSTR misses = 36, DATA misses = 4. Winner = DATA
[DUEL] Epoch ended. INSTR misses = 33, DATA misses = 28. Winner = DATA
[DUEL] Epoch ended. INSTR misses = 66, DATA misses = 60. Winner = DATA
[DUEL] Epoch ended. INSTR misses = 38, DATA misses = 11. Winner = DATA
[DUEL] Epoch ended. INSTR misses = 12, DATA misses = 13. Winner = INSTR
[DUEL] Epoch ended. INSTR misses = 70, DATA misses = 58. Winner = DATA
[DUEL] Epoch ended. INSTR misses = 24, DATA misses = 8. Winner = DATA
[DUEL] Epoch ended. INSTR misses = 48, DATA misses = 20. Winner = DATA
[DUEL] Epoch ended. INSTR misses = 92, DATA misses = 68. Winner = DATA
[DUEL] Epoch ended. INSTR misses = 28, DATA misses = 24. Winner = DATA
[DUEL] Epoch ended. INSTR misses = 78, DATA misses = 59. Winner = DATA
[DUEL] Epoch ended. INSTR misses = 36, DATA misses = 31. Winner = DATA
[DUEL] Epoch ended. INSTR misses = 69, DATA misses = 29. Winner = DATA
[DUEL] Epoch ended. INSTR misses = 63, DATA misses = 44. Winner = DATA
[DUEL] Epoch ended. INSTR misses = 29, DATA misses = 4. Winner = DATA
[DUEL] Epoch ended. INSTR misses = 51, DATA misses = 48. Winner = DATA
[DUEL] Epoch ended. INSTR misses = 49, DATA misses = 32. Winner = DATA
[DUEL] Epoch ended. INSTR misses = 59, DATA misses = 52. Winner = DATA
[DUEL] Epoch ended. INSTR misses = 63, DATA misses = 20. Winner = DATA
[DUEL] Epoch ended. INSTR misses = 65, DATA misses = 32. Winner = DATA
[DUEL] Epoch ended. INSTR misses = 36, DATA misses = 32. Winner = DATA
[DUEL] Epoch ended. INSTR misses = 64, DATA misses = 36. Winner = DATA
[DUEL] Epoch ended. INSTR misses = 28, DATA misses = 8. Winner = DATA
[DUEL] Epoch ended. INSTR misses = 60, DATA misses = 55. Winner = DATA
Heartbeat CPU 0 instructions: 50000000 cycles: 27153254 heartbeat IPC: 0.8186 cumulative IPC: 0.925 (Simulation time: 00 hr 04 min 05 sec)
[DUEL] Epoch ended. INSTR misses = 75, DATA misses = 40. Winner = DATA
[DUEL] Epoch ended. INSTR misses = 55, DATA misses = 20. Winner = DATA
[DUEL] Epoch ended. INSTR misses = 40, DATA misses = 24. Winner = DATA
[DUEL] Epoch ended. INSTR misses = 55, DATA misses = 28. Winner = DATA
[DUEL] Epoch ended. INSTR misses = 31, DATA misses = 16. Winner = DATA
[DUEL] Epoch ended. INSTR misses = 78, DATA misses = 68. Winner = DATA
[DUEL] Epoch ended. INSTR misses = 64, DATA misses = 35. Winner = DATA
[DUEL] Epoch ended. INSTR misses = 68, DATA misses = 37. Winner = DATA
[DUEL] Epoch ended. INSTR misses = 66, DATA misses = 24. Winner = DATA
[DUEL] Epoch ended. INSTR misses = 32, DATA misses = 12. Winner = DATA
[DUEL] Epoch ended. INSTR misses = 66, DATA misses = 40. Winner = DATA
[DUEL] Epoch ended. INSTR misses = 67, DATA misses = 48. Winner = DATA
[DUEL] Epoch ended. INSTR misses = 73, DATA misses = 48. Winner = DATA
[DUEL] Epoch ended. INSTR misses = 36, DATA misses = 8. Winner = DATA
[DUEL] Epoch ended. INSTR misses = 56, DATA misses = 28. Winner = DATA
[DUEL] Epoch ended. INSTR misses = 52, DATA misses = 32. Winner = DATA
[DUEL] Epoch ended. INSTR misses = 60, DATA misses = 36. Winner = DATA
[DUEL] Epoch ended. INSTR misses = 44, DATA misses = 20. Winner = DATA
[DUEL] Epoch ended. INSTR misses = 44, DATA misses = 36. Winner = DATA
[DUEL] Epoch ended. INSTR misses = 56, DATA misses = 36. Winner = DATA
[DUEL] Epoch ended. INSTR misses = 48, DATA misses = 24. Winner = DATA
[DUEL] Epoch ended. INSTR misses = 36, DATA misses = 20. Winner = DATA
[DUEL] Epoch ended. INSTR misses = 75, DATA misses = 52. Winner = DATA
[DUEL] Epoch ended. INSTR misses = 40, DATA misses = 24. Winner = DATA
[DUEL] Epoch ended. INSTR misses = 33, DATA misses = 16. Winner = DATA
[DUEL] Epoch ended. INSTR misses = 70, DATA misses = 44. Winner = DATA
[DUEL] Epoch ended. INSTR misses = 60, DATA misses = 32. Winner = DATA
[DUEL] Epoch ended. INSTR misses = 56, DATA misses = 44. Winner = DATA
[DUEL] Epoch ended. INSTR misses = 52, DATA misses = 32. Winner = DATA
[DUEL] Epoch ended. INSTR misses = 40, DATA misses = 20. Winner = DATA
[DUEL] Epoch ended. INSTR misses = 64, DATA misses = 52. Winner = DATA
[DUEL] Epoch ended. INSTR misses = 46, DATA misses = 22. Winner = DATA
[DUEL] Epoch ended. INSTR misses = 34, DATA misses = 14. Winner = DATA
[DUEL] Epoch ended. INSTR misses = 84, DATA misses = 52. Winner = DATA
[DUEL] Epoch ended. INSTR misses = 32, DATA misses = 20. Winner = DATA
[DUEL] Epoch ended. INSTR misses = 34, DATA misses = 26. Winner = DATA
[DUEL] Epoch ended. INSTR misses = 99, DATA misses = 64. Winner = DATA
[DUEL] Epoch ended. INSTR misses = 44, DATA misses = 20. Winner = DATA
[DUEL] Epoch ended. INSTR misses = 63, DATA misses = 44. Winner = DATA
Heartbeat CPU 0 instructions: 60000003 cycles: 39205035 heartbeat IPC: 0.8298 cumulative IPC: 0.8909 (Simulation time: 00 hr 05 min 39 sec)
[DUEL] Epoch ended. INSTR misses = 44, DATA misses = 24. Winner = DATA
[DUEL] Epoch ended. INSTR misses = 76, DATA misses = 38. Winner = DATA
[DUEL] Epoch ended. INSTR misses = 65, DATA misses = 54. Winner = DATA
[DUEL] Epoch ended. INSTR misses = 50, DATA misses = 40. Winner = DATA
[DUEL] Epoch ended. INSTR misses = 20, DATA misses = 20. Winner = INSTR
[DUEL] Epoch ended. INSTR misses = 68, DATA misses = 44. Winner = DATA
[DUEL] Epoch ended. INSTR misses = 64, DATA misses = 52. Winner = DATA
[DUEL] Epoch ended. INSTR misses = 43, DATA misses = 40. Winner = DATA
[DUEL] Epoch ended. INSTR misses = 53, DATA misses = 31. Winner = DATA
[DUEL] Epoch ended. INSTR misses = 64, DATA misses = 45. Winner = DATA
[DUEL] Epoch ended. INSTR misses = 48, DATA misses = 40. Winner = DATA
[DUEL] Epoch ended. INSTR misses = 56, DATA misses = 36. Winner = DATA
[DUEL] Epoch ended. INSTR misses = 52, DATA misses = 40. Winner = DATA
[DUEL] Epoch ended. INSTR misses = 48, DATA misses = 40. Winner = DATA
[DUEL] Epoch ended. INSTR misses = 60, DATA misses = 40. Winner = DATA
[DUEL] Epoch ended. INSTR misses = 36, DATA misses = 28. Winner = DATA
[DUEL] Epoch ended. INSTR misses = 64, DATA misses = 48. Winner = DATA
[DUEL] Epoch ended. INSTR misses = 68, DATA misses = 44. Winner = DATA
[DUEL] Epoch ended. INSTR misses = 44, DATA misses = 48. Winner = INSTR
[DUEL] Epoch ended. INSTR misses = 46, DATA misses = 26. Winner = DATA
[DUEL] Epoch ended. INSTR misses = 76, DATA misses = 52. Winner = DATA
[DUEL] Epoch ended. INSTR misses = 33, DATA misses = 32. Winner = DATA
[DUEL] Epoch ended. INSTR misses = 63, DATA misses = 40. Winner = DATA
[DUEL] Epoch ended. INSTR misses = 52, DATA misses = 36. Winner = DATA
[DUEL] Epoch ended. INSTR misses = 41, DATA misses = 32. Winner = DATA
[DUEL] Epoch ended. INSTR misses = 70, DATA misses = 48. Winner = DATA
[DUEL] Epoch ended. INSTR misses = 44, DATA misses = 32. Winner = DATA
[DUEL] Epoch ended. INSTR misses = 40, DATA misses = 32. Winner = DATA
[DUEL] Epoch ended. INSTR misses = 71, DATA misses = 52. Winner = DATA
[DUEL] Epoch ended. INSTR misses = 57, DATA misses = 44. Winner = DATA
[DUEL] Epoch ended. INSTR misses = 35, DATA misses = 28. Winner = DATA
[DUEL] Epoch ended. INSTR misses = 57, DATA misses = 36. Winner = DATA
[DUEL] Epoch ended. INSTR misses = 66, DATA misses = 56. Winner = DATA
[DUEL] Epoch ended. INSTR misses = 34, DATA misses = 24. Winner = DATA
[DUEL] Epoch ended. INSTR misses = 49, DATA misses = 28. Winner = DATA
[DUEL] Epoch ended. INSTR misses = 63, DATA misses = 56. Winner = DATA
[DUEL] Epoch ended. INSTR misses = 37, DATA misses = 24. Winner = DATA
[DUEL] Epoch ended. INSTR misses = 60, DATA misses = 40. Winner = DATA
[DUEL] Epoch ended. INSTR misses = 71, DATA misses = 44. Winner = DATA
Heartbeat CPU 0 instructions: 70000007 cycles: 51205228 heartbeat IPC: 0.8333 cumulative IPC: 0.8758 (Simulation time: 00 hr 07 min 13 sec)
[DUEL] Epoch ended. INSTR misses = 37, DATA misses = 12. Winner = DATA
[DUEL] Epoch ended. INSTR misses = 79, DATA misses = 64. Winner = DATA
[DUEL] Epoch ended. INSTR misses = 52, DATA misses = 36. Winner = DATA
[DUEL] Epoch ended. INSTR misses = 45, DATA misses = 28. Winner = DATA
[DUEL] Epoch ended. INSTR misses = 75, DATA misses = 63. Winner = DATA
[DUEL] Epoch ended. INSTR misses = 26, DATA misses = 24. Winner = DATA
[DUEL] Epoch ended. INSTR misses = 53, DATA misses = 36. Winner = DATA
[DUEL] Epoch ended. INSTR misses = 67, DATA misses = 48. Winner = DATA
[DUEL] Epoch ended. INSTR misses = 33, DATA misses = 12. Winner = DATA
[DUEL] Epoch ended. INSTR misses = 68, DATA misses = 52. Winner = DATA
[DUEL] Epoch ended. INSTR misses = 60, DATA misses = 36. Winner = DATA
[DUEL] Epoch ended. INSTR misses = 44, DATA misses = 28. Winner = DATA
[DUEL] Epoch ended. INSTR misses = 60, DATA misses = 56. Winner = DATA
[DUEL] Epoch ended. INSTR misses = 52, DATA misses = 32. Winner = DATA
[DUEL] Epoch ended. INSTR misses = 40, DATA misses = 4. Winner = DATA
[DUEL] Epoch ended. INSTR misses = 74, DATA misses = 59. Winner = DATA
[DUEL] Epoch ended. INSTR misses = 40, DATA misses = 29. Winner = DATA
[DUEL] Epoch ended. INSTR misses = 17, DATA misses = 16. Winner = DATA
[DUEL] Epoch ended. INSTR misses = 59, DATA misses = 54. Winner = DATA
[DUEL] Epoch ended. INSTR misses = 56, DATA misses = 37. Winner = DATA
[DUEL] Epoch ended. INSTR misses = 53, DATA misses = 20. Winner = DATA
[DUEL] Epoch ended. INSTR misses = 36, DATA misses = 28. Winner = DATA
[DUEL] Epoch ended. INSTR misses = 35, DATA misses = 20. Winner = DATA
[DUEL] Epoch ended. INSTR misses = 53, DATA misses = 19. Winner = DATA
[DUEL] Epoch ended. INSTR misses = 35, DATA misses = 17. Winner = DATA
[DUEL] Epoch ended. INSTR misses = 47, DATA misses = 41. Winner = DATA
[DUEL] Epoch ended. INSTR misses = 85, DATA misses = 46. Winner = DATA
[DUEL] Epoch ended. INSTR misses = 48, DATA misses = 32. Winner = DATA
[DUEL] Epoch ended. INSTR misses = 52, DATA misses = 20. Winner = DATA
[DUEL] Epoch ended. INSTR misses = 61, DATA misses = 24. Winner = DATA
[DUEL] Epoch ended. INSTR misses = 53, DATA misses = 20. Winner = DATA
[DUEL] Epoch ended. INSTR misses = 64, DATA misses = 52. Winner = DATA
[DUEL] Epoch ended. INSTR misses = 34, DATA misses = 28. Winner = DATA
[DUEL] Epoch ended. INSTR misses = 48, DATA misses = 16. Winner = DATA
[DUEL] Epoch ended. INSTR misses = 67, DATA misses = 48. Winner = DATA
[DUEL] Epoch ended. INSTR misses = 56, DATA misses = 23. Winner = DATA
[DUEL] Epoch ended. INSTR misses = 28, DATA misses = 8. Winner = DATA
[DUEL] Epoch ended. INSTR misses = 72, DATA misses = 55. Winner = DATA
[DUEL] Epoch ended. INSTR misses = 52, DATA misses = 37. Winner = DATA
Heartbeat CPU 0 instructions: 80000006 cycles: 62816460 heartbeat IPC: 0.8612 cumulative IPC: 0.8728 (Simulation time: 00 hr 08 min 44 sec)
[DUEL] Epoch ended. INSTR misses = 40, DATA misses = 20. Winner = DATA
[DUEL] Epoch ended. INSTR misses = 45, DATA misses = 36. Winner = DATA
[DUEL] Epoch ended. INSTR misses = 67, DATA misses = 28. Winner = DATA
[DUEL] Epoch ended. INSTR misses = 45, DATA misses = 24. Winner = DATA
[DUEL] Epoch ended. INSTR misses = 56, DATA misses = 48. Winner = DATA
[DUEL] Epoch ended. INSTR misses = 51, DATA misses = 32. Winner = DATA
[DUEL] Epoch ended. INSTR misses = 60, DATA misses = 48. Winner = DATA
[DUEL] Epoch ended. INSTR misses = 28, DATA misses = 28. Winner = INSTR
[DUEL] Epoch ended. INSTR misses = 52, DATA misses = 16. Winner = DATA
[DUEL] Epoch ended. INSTR misses = 79, DATA misses = 28. Winner = DATA
[DUEL] Epoch ended. INSTR misses = 49, DATA misses = 44. Winner = DATA
[DUEL] Epoch ended. INSTR misses = 68, DATA misses = 60. Winner = DATA
[DUEL] Epoch ended. INSTR misses = 56, DATA misses = 44. Winner = DATA
[DUEL] Epoch ended. INSTR misses = 36, DATA misses = 12. Winner = DATA
[DUEL] Epoch ended. INSTR misses = 91, DATA misses = 60. Winner = DATA
[DUEL] Epoch ended. INSTR misses = 48, DATA misses = 20. Winner = DATA
[DUEL] Epoch ended. INSTR misses = 36, DATA misses = 28. Winner = DATA
[DUEL] Epoch ended. INSTR misses = 60, DATA misses = 48. Winner = DATA
[DUEL] Epoch ended. INSTR misses = 41, DATA misses = 24. Winner = DATA
[DUEL] Epoch ended. INSTR misses = 44, DATA misses = 28. Winner = DATA
[DUEL] Epoch ended. INSTR misses = 83, DATA misses = 64. Winner = DATA
[DUEL] Epoch ended. INSTR misses = 37, DATA misses = 16. Winner = DATA
[DUEL] Epoch ended. INSTR misses = 111, DATA misses = 112. Winner = INSTR
[DUEL] Epoch ended. INSTR misses = 84, DATA misses = 82. Winner = DATA
[DUEL] Epoch ended. INSTR misses = 132, DATA misses = 132. Winner = INSTR
[DUEL] Epoch ended. INSTR misses = 153, DATA misses = 152. Winner = DATA
[DUEL] Epoch ended. INSTR misses = 128, DATA misses = 126. Winner = DATA
[DUEL] Epoch ended. INSTR misses = 142, DATA misses = 139. Winner = DATA
[DUEL] Epoch ended. INSTR misses = 132, DATA misses = 133. Winner = INSTR
[DUEL] Epoch ended. INSTR misses = 131, DATA misses = 129. Winner = DATA
[DUEL] Epoch ended. INSTR misses = 160, DATA misses = 163. Winner = INSTR
[DUEL] Epoch ended. INSTR misses = 153, DATA misses = 149. Winner = DATA
[DUEL] Epoch ended. INSTR misses = 128, DATA misses = 129. Winner = INSTR
[DUEL] Epoch ended. INSTR misses = 139, DATA misses = 139. Winner = INSTR
[DUEL] Epoch ended. INSTR misses = 133, DATA misses = 134. Winner = INSTR
[DUEL] Epoch ended. INSTR misses = 132, DATA misses = 129. Winner = DATA
[DUEL] Epoch ended. INSTR misses = 127, DATA misses = 131. Winner = INSTR
[DUEL] Epoch ended. INSTR misses = 147, DATA misses = 147. Winner = INSTR
[DUEL] Epoch ended. INSTR misses = 135, DATA misses = 132. Winner = DATA
Heartbeat CPU 0 instructions: 90000003 cycles: 82208224 heartbeat IPC: 0.5157 cumulative IPC: 0.7825 (Simulation time: 00 hr 11 min 14 sec)
[DUEL] Epoch ended. INSTR misses = 137, DATA misses = 136. Winner = DATA
[DUEL] Epoch ended. INSTR misses = 139, DATA misses = 137. Winner = DATA
[DUEL] Epoch ended. INSTR misses = 128, DATA misses = 133. Winner = INSTR
[DUEL] Epoch ended. INSTR misses = 131, DATA misses = 132. Winner = INSTR
[DUEL] Epoch ended. INSTR misses = 154, DATA misses = 151. Winner = DATA
[DUEL] Epoch ended. INSTR misses = 156, DATA misses = 153. Winner = DATA
[DUEL] Epoch ended. INSTR misses = 130, DATA misses = 135. Winner = INSTR
[DUEL] Epoch ended. INSTR misses = 140, DATA misses = 137. Winner = DATA
[DUEL] Epoch ended. INSTR misses = 134, DATA misses = 134. Winner = INSTR
[DUEL] Epoch ended. INSTR misses = 132, DATA misses = 130. Winner = DATA
[DUEL] Epoch ended. INSTR misses = 147, DATA misses = 151. Winner = INSTR
[DUEL] Epoch ended. INSTR misses = 130, DATA misses = 130. Winner = INSTR
[DUEL] Epoch ended. INSTR misses = 141, DATA misses = 138. Winner = DATA
[DUEL] Epoch ended. INSTR misses = 138, DATA misses = 141. Winner = INSTR
[DUEL] Epoch ended. INSTR misses = 133, DATA misses = 130. Winner = DATA
[DUEL] Epoch ended. INSTR misses = 135, DATA misses = 137. Winner = INSTR
[DUEL] Epoch ended. INSTR misses = 186, DATA misses = 181. Winner = DATA
[DUEL] Epoch ended. INSTR misses = 98, DATA misses = 88. Winner = DATA
[DUEL] Epoch ended. INSTR misses = 153, DATA misses = 161. Winner = INSTR
[DUEL] Epoch ended. INSTR misses = 130, DATA misses = 127. Winner = DATA
[DUEL] Epoch ended. INSTR misses = 206, DATA misses = 210. Winner = INSTR
[DUEL] Epoch ended. INSTR misses = 137, DATA misses = 135. Winner = DATA
[DUEL] Epoch ended. INSTR misses = 209, DATA misses = 207. Winner = DATA
[DUEL] Epoch ended. INSTR misses = 155, DATA misses = 158. Winner = INSTR
[DUEL] Epoch ended. INSTR misses = 142, DATA misses = 143. Winner = INSTR
[DUEL] Epoch ended. INSTR misses = 80, DATA misses = 78. Winner = DATA
[DUEL] Epoch ended. INSTR misses = 140, DATA misses = 137. Winner = DATA
[DUEL] Epoch ended. INSTR misses = 104, DATA misses = 104. Winner = INSTR
[DUEL] Epoch ended. INSTR misses = 87, DATA misses = 93. Winner = INSTR
[DUEL] Epoch ended. INSTR misses = 48, DATA misses = 48. Winner = INSTR
[DUEL] Epoch ended. INSTR misses = 79, DATA misses = 71. Winner = DATA
[DUEL] Epoch ended. INSTR misses = 151, DATA misses = 149. Winner = DATA
[DUEL] Epoch ended. INSTR misses = 58, DATA misses = 42. Winner = DATA
[DUEL] Epoch ended. INSTR misses = 50, DATA misses = 29. Winner = DATA
[DUEL] Epoch ended. INSTR misses = 53, DATA misses = 51. Winner = DATA
[DUEL] Epoch ended. INSTR misses = 36, DATA misses = 36. Winner = INSTR
[DUEL] Epoch ended. INSTR misses = 47, DATA misses = 48. Winner = INSTR
[DUEL] Epoch ended. INSTR misses = 30, DATA misses = 25. Winner = DATA
[DUEL] Epoch ended. INSTR misses = 47, DATA misses = 50. Winner = INSTR
Heartbeat CPU 0 instructions: 100000010 cycles: 106620573 heartbeat IPC: 0.4096 cumulative IPC: 0.6925 (Simulation time: 00 hr 14 min 24 sec)
*** Reached end of trace: (0, "../traces/secret_traces/compute_fp/compute_fp_95.champsimtrace.xz")
[DUEL] Epoch ended. INSTR misses = 30, DATA misses = 30. Winner = INSTR
[DUEL] Epoch ended. INSTR misses = 44, DATA misses = 43. Winner = DATA
[DUEL] Epoch ended. INSTR misses = 34, DATA misses = 62. Winner = INSTR
[DUEL] Epoch ended. INSTR misses = 50, DATA misses = 33. Winner = DATA
[DUEL] Epoch ended. INSTR misses = 53, DATA misses = 35. Winner = DATA
[DUEL] Epoch ended. INSTR misses = 68, DATA misses = 46. Winner = DATA
[DUEL] Epoch ended. INSTR misses = 41, DATA misses = 31. Winner = DATA
[DUEL] Epoch ended. INSTR misses = 44, DATA misses = 9. Winner = DATA
[DUEL] Epoch ended. INSTR misses = 36, DATA misses = 16. Winner = DATA
[DUEL] Epoch ended. INSTR misses = 40, DATA misses = 19. Winner = DATA
[DUEL] Epoch ended. INSTR misses = 33, DATA misses = 20. Winner = DATA
[DUEL] Epoch ended. INSTR misses = 52, DATA misses = 22. Winner = DATA
[DUEL] Epoch ended. INSTR misses = 37, DATA misses = 34. Winner = DATA
[DUEL] Epoch ended. INSTR misses = 58, DATA misses = 25. Winner = DATA
[DUEL] Epoch ended. INSTR misses = 51, DATA misses = 16. Winner = DATA
[DUEL] Epoch ended. INSTR misses = 36, DATA misses = 48. Winner = INSTR
[DUEL] Epoch ended. INSTR misses = 39, DATA misses = 45. Winner = INSTR
[DUEL] Epoch ended. INSTR misses = 36, DATA misses = 16. Winner = DATA
[DUEL] Epoch ended. INSTR misses = 43, DATA misses = 18. Winner = DATA
[DUEL] Epoch ended. INSTR misses = 61, DATA misses = 21. Winner = DATA
[DUEL] Epoch ended. INSTR misses = 66, DATA misses = 30. Winner = DATA
[DUEL] Epoch ended. INSTR misses = 48, DATA misses = 27. Winner = DATA
[DUEL] Epoch ended. INSTR misses = 60, DATA misses = 13. Winner = DATA
[DUEL] Epoch ended. INSTR misses = 53, DATA misses = 55. Winner = INSTR
[DUEL] Epoch ended. INSTR misses = 47, DATA misses = 58. Winner = INSTR
[DUEL] Epoch ended. INSTR misses = 39, DATA misses = 17. Winner = DATA
[DUEL] Epoch ended. INSTR misses = 38, DATA misses = 25. Winner = DATA
[DUEL] Epoch ended. INSTR misses = 63, DATA misses = 51. Winner = DATA
[DUEL] Epoch ended. INSTR misses = 17, DATA misses = 31. Winner = INSTR
[DUEL] Epoch ended. INSTR misses = 54, DATA misses = 29. Winner = DATA
[DUEL] Epoch ended. INSTR misses = 57, DATA misses = 28. Winner = DATA
[DUEL] Epoch ended. INSTR misses = 51, DATA misses = 53. Winner = INSTR
[DUEL] Epoch ended. INSTR misses = 41, DATA misses = 44. Winner = INSTR
[DUEL] Epoch ended. INSTR misses = 34, DATA misses = 23. Winner = DATA
[DUEL] Epoch ended. INSTR misses = 50, DATA misses = 39. Winner = DATA
[DUEL] Epoch ended. INSTR misses = 20, DATA misses = 47. Winner = INSTR
[DUEL] Epoch ended. INSTR misses = 41, DATA misses = 47. Winner = INSTR
[DUEL] Epoch ended. INSTR misses = 23, DATA misses = 37. Winner = INSTR
[DUEL] Epoch ended. INSTR misses = 29, DATA misses = 14. Winner = DATA
Heartbeat CPU 0 instructions: 110000008 cycles: 116563891 heartbeat IPC: 1.006 cumulative IPC: 0.7205 (Simulation time: 00 hr 15 min 44 sec)
[DUEL] Epoch ended. INSTR misses = 66, DATA misses = 10. Winner = DATA
[DUEL] Epoch ended. INSTR misses = 93, DATA misses = 48. Winner = DATA
[DUEL] Epoch ended. INSTR misses = 37, DATA misses = 50. Winner = INSTR
[DUEL] Epoch ended. INSTR misses = 41, DATA misses = 33. Winner = DATA
[DUEL] Epoch ended. INSTR misses = 67, DATA misses = 32. Winner = DATA
[DUEL] Epoch ended. INSTR misses = 32, DATA misses = 42. Winner = INSTR
[DUEL] Epoch ended. INSTR misses = 54, DATA misses = 53. Winner = DATA
[DUEL] Epoch ended. INSTR misses = 60, DATA misses = 0. Winner = DATA
[DUEL] Epoch ended. INSTR misses = 41, DATA misses = 36. Winner = DATA
[DUEL] Epoch ended. INSTR misses = 56, DATA misses = 56. Winner = INSTR
[DUEL] Epoch ended. INSTR misses = 69, DATA misses = 37. Winner = DATA
[DUEL] Epoch ended. INSTR misses = 61, DATA misses = 60. Winner = DATA
[DUEL] Epoch ended. INSTR misses = 75, DATA misses = 32. Winner = DATA
[DUEL] Epoch ended. INSTR misses = 25, DATA misses = 47. Winner = INSTR
[DUEL] Epoch ended. INSTR misses = 34, DATA misses = 45. Winner = INSTR
[DUEL] Epoch ended. INSTR misses = 63, DATA misses = 14. Winner = DATA
[DUEL] Epoch ended. INSTR misses = 35, DATA misses = 9. Winner = DATA
[DUEL] Epoch ended. INSTR misses = 45, DATA misses = 46. Winner = INSTR
[DUEL] Epoch ended. INSTR misses = 48, DATA misses = 19. Winner = DATA
[DUEL] Epoch ended. INSTR misses = 47, DATA misses = 42. Winner = DATA
[DUEL] Epoch ended. INSTR misses = 78, DATA misses = 44. Winner = DATA
[DUEL] Epoch ended. INSTR misses = 33, DATA misses = 36. Winner = INSTR
[DUEL] Epoch ended. INSTR misses = 18, DATA misses = 38. Winner = INSTR
[DUEL] Epoch ended. INSTR misses = 51, DATA misses = 8. Winner = DATA
[DUEL] Epoch ended. INSTR misses = 36, DATA misses = 8. Winner = DATA
[DUEL] Epoch ended. INSTR misses = 74, DATA misses = 53. Winner = DATA
[DUEL] Epoch ended. INSTR misses = 36, DATA misses = 18. Winner = DATA
[DUEL] Epoch ended. INSTR misses = 49, DATA misses = 38. Winner = DATA
[DUEL] Epoch ended. INSTR misses = 60, DATA misses = 42. Winner = DATA
[DUEL] Epoch ended. INSTR misses = 40, DATA misses = 42. Winner = INSTR
[DUEL] Epoch ended. INSTR misses = 28, DATA misses = 35. Winner = INSTR
[DUEL] Epoch ended. INSTR misses = 34, DATA misses = 0. Winner = DATA
[DUEL] Epoch ended. INSTR misses = 36, DATA misses = 8. Winner = DATA
[DUEL] Epoch ended. INSTR misses = 38, DATA misses = 15. Winner = DATA
[DUEL] Epoch ended. INSTR misses = 55, DATA misses = 16. Winner = DATA
[DUEL] Epoch ended. INSTR misses = 55, DATA misses = 48. Winner = DATA
[DUEL] Epoch ended. INSTR misses = 42, DATA misses = 30. Winner = DATA
[DUEL] Epoch ended. INSTR misses = 67, DATA misses = 19. Winner = DATA
[DUEL] Epoch ended. INSTR misses = 59, DATA misses = 37. Winner = DATA
Heartbeat CPU 0 instructions: 120000003 cycles: 126401723 heartbeat IPC: 1.016 cumulative IPC: 0.7446 (Simulation time: 00 hr 17 min 06 sec)
[DUEL] Epoch ended. INSTR misses = 56, DATA misses = 45. Winner = DATA
[DUEL] Epoch ended. INSTR misses = 45, DATA misses = 18. Winner = DATA
[DUEL] Epoch ended. INSTR misses = 22, DATA misses = 28. Winner = INSTR
[DUEL] Epoch ended. INSTR misses = 35, DATA misses = 32. Winner = DATA
[DUEL] Epoch ended. INSTR misses = 54, DATA misses = 16. Winner = DATA
[DUEL] Epoch ended. INSTR misses = 34, DATA misses = 26. Winner = DATA
[DUEL] Epoch ended. INSTR misses = 49, DATA misses = 24. Winner = DATA
[DUEL] Epoch ended. INSTR misses = 45, DATA misses = 30. Winner = DATA
[DUEL] Epoch ended. INSTR misses = 434, DATA misses = 433. Winner = DATA
[DUEL] Epoch ended. INSTR misses = 505, DATA misses = 507. Winner = INSTR
[DUEL] Epoch ended. INSTR misses = 478, DATA misses = 478. Winner = INSTR
[DUEL] Epoch ended. INSTR misses = 509, DATA misses = 512. Winner = INSTR
[DUEL] Epoch ended. INSTR misses = 510, DATA misses = 509. Winner = DATA
[DUEL] Epoch ended. INSTR misses = 349, DATA misses = 351. Winner = INSTR
[DUEL] Epoch ended. INSTR misses = 127, DATA misses = 128. Winner = INSTR
[DUEL] Epoch ended. INSTR misses = 52, DATA misses = 48. Winner = DATA
[DUEL] Epoch ended. INSTR misses = 52, DATA misses = 32. Winner = DATA
[DUEL] Epoch ended. INSTR misses = 52, DATA misses = 32. Winner = DATA
[DUEL] Epoch ended. INSTR misses = 45, DATA misses = 20. Winner = DATA
[DUEL] Epoch ended. INSTR misses = 63, DATA misses = 44. Winner = DATA
[DUEL] Epoch ended. INSTR misses = 40, DATA misses = 16. Winner = DATA
[DUEL] Epoch ended. INSTR misses = 41, DATA misses = 24. Winner = DATA
[DUEL] Epoch ended. INSTR misses = 74, DATA misses = 55. Winner = DATA
[DUEL] Epoch ended. INSTR misses = 46, DATA misses = 21. Winner = DATA
[DUEL] Epoch ended. INSTR misses = 41, DATA misses = 25. Winner = DATA
[DUEL] Epoch ended. INSTR misses = 60, DATA misses = 25. Winner = DATA
[DUEL] Epoch ended. INSTR misses = 56, DATA misses = 42. Winner = DATA
[DUEL] Epoch ended. INSTR misses = 60, DATA misses = 40. Winner = DATA
[DUEL] Epoch ended. INSTR misses = 43, DATA misses = 24. Winner = DATA
[DUEL] Epoch ended. INSTR misses = 51, DATA misses = 40. Winner = DATA
[DUEL] Epoch ended. INSTR misses = 57, DATA misses = 31. Winner = DATA
[DUEL] Epoch ended. INSTR misses = 55, DATA misses = 36. Winner = DATA
[DUEL] Epoch ended. INSTR misses = 48, DATA misses = 24. Winner = DATA
[DUEL] Epoch ended. INSTR misses = 61, DATA misses = 24. Winner = DATA
[DUEL] Epoch ended. INSTR misses = 51, DATA misses = 35. Winner = DATA
[DUEL] Epoch ended. INSTR misses = 44, DATA misses = 24. Winner = DATA
[DUEL] Epoch ended. INSTR misses = 67, DATA misses = 44. Winner = DATA
[DUEL] Epoch ended. INSTR misses = 46, DATA misses = 27. Winner = DATA
[DUEL] Epoch ended. INSTR misses = 60, DATA misses = 36. Winner = DATA
Heartbeat CPU 0 instructions: 130000002 cycles: 146246687 heartbeat IPC: 0.5039 cumulative IPC: 0.7107 (Simulation time: 00 hr 19 min 08 sec)
Simulation finished CPU 0 instructions: 100000000 cycles: 140714229 cumulative IPC: 0.7107 (Simulation time: 00 hr 19 min 08 sec)
Simulation complete CPU 0 instructions: 100000000 cycles: 140714229 cumulative IPC: 0.7107 (Simulation time: 00 hr 19 min 08 sec)

ChampSim completed all CPUs

=== Simulation ===
CPU 0 runs ../traces/secret_traces/compute_fp/compute_fp_95.champsimtrace.xz
Region of Interest Statistics

CPU 0 cumulative IPC: 0.7107 instructions: 100000000 cycles: 140714229
CPU 0 Branch Prediction Accuracy: 99.08% MPKI: 0.1323 Average ROB Occupancy at Mispredict: 29.93
Branch type MPKI
BRANCH_DIRECT_JUMP: 0.0072
BRANCH_INDIRECT: 0.0658
BRANCH_CONDITIONAL: 0.0259
BRANCH_DIRECT_CALL: 0.0201
BRANCH_INDIRECT_CALL: 0.0022
BRANCH_RETURN: 0.0112

LLC TOTAL        ACCESS:    6079613 HIT:     234477 MISS:    5845136
LLC LOAD         ACCESS:    1831734 HIT:      17601 MISS:    1814133
LLC RFO          ACCESS:     839866 HIT:      36452 MISS:     803414
LLC PREFETCH     ACCESS:    1954563 HIT:      29478 MISS:    1925085
LLC WRITE        ACCESS:    1446336 HIT:     150901 MISS:    1295435
LLC TRANSLATION  ACCESS:       7114 HIT:         45 MISS:       7069
LLC PREFETCH REQUESTED:          0 ISSUED:          0 USEFUL:          0 USELESS:          0
LLC AVERAGE MISS LATENCY: 373.3 cycles
cpu0_DTLB TOTAL        ACCESS:   14942100 HIT:   13576657 MISS:    1365443
cpu0_DTLB LOAD         ACCESS:   14942100 HIT:   13576657 MISS:    1365443
cpu0_DTLB RFO          ACCESS:          0 HIT:          0 MISS:          0
cpu0_DTLB PREFETCH     ACCESS:          0 HIT:          0 MISS:          0
cpu0_DTLB WRITE        ACCESS:          0 HIT:          0 MISS:          0
cpu0_DTLB TRANSLATION  ACCESS:          0 HIT:          0 MISS:          0
cpu0_DTLB PREFETCH REQUESTED:          0 ISSUED:          0 USEFUL:          0 USELESS:          0
cpu0_DTLB AVERAGE MISS LATENCY: 9.354 cycles
cpu0_ITLB TOTAL        ACCESS:     116650 HIT:     115090 MISS:       1560
cpu0_ITLB LOAD         ACCESS:     116650 HIT:     115090 MISS:       1560
cpu0_ITLB RFO          ACCESS:          0 HIT:          0 MISS:          0
cpu0_ITLB PREFETCH     ACCESS:          0 HIT:          0 MISS:          0
cpu0_ITLB WRITE        ACCESS:          0 HIT:          0 MISS:          0
cpu0_ITLB TRANSLATION  ACCESS:          0 HIT:          0 MISS:          0
cpu0_ITLB PREFETCH REQUESTED:          0 ISSUED:          0 USEFUL:          0 USELESS:          0
cpu0_ITLB AVERAGE MISS LATENCY: 70.19 cycles
cpu0_L1D TOTAL        ACCESS:   25232281 HIT:   10315059 MISS:   14917222
cpu0_L1D LOAD         ACCESS:   14505380 HIT:    3096918 MISS:   11408462
cpu0_L1D RFO          ACCESS:          0 HIT:          0 MISS:          0
cpu0_L1D PREFETCH     ACCESS:    2109935 HIT:     744976 MISS:    1364959
cpu0_L1D WRITE        ACCESS:    8338435 HIT:    6220737 MISS:    2117698
cpu0_L1D TRANSLATION  ACCESS:     278531 HIT:     252428 MISS:      26103
cpu0_L1D PREFETCH REQUESTED:   40943945 ISSUED:    2109930 USEFUL:     248900 USELESS:       7783
cpu0_L1D AVERAGE MISS LATENCY: 90.2 cycles
cpu0_L1I TOTAL        ACCESS:     168926 HIT:     133534 MISS:      35392
cpu0_L1I LOAD         ACCESS:      58915 HIT:      48338 MISS:      10577
cpu0_L1I RFO          ACCESS:          0 HIT:          0 MISS:          0
cpu0_L1I PREFETCH     ACCESS:     110011 HIT:      85196 MISS:      24815
cpu0_L1I WRITE        ACCESS:          0 HIT:          0 MISS:          0
cpu0_L1I TRANSLATION  ACCESS:          0 HIT:          0 MISS:          0
cpu0_L1I PREFETCH REQUESTED:     168801 ISSUED:     110011 USEFUL:      13426 USELESS:       9282
cpu0_L1I AVERAGE MISS LATENCY: 126.5 cycles
cpu0_L2C TOTAL        ACCESS:    9887216 HIT:    2678605 MISS:    7208611
cpu0_L2C LOAD         ACCESS:    2681841 HIT:     301184 MISS:    2380657
cpu0_L2C RFO          ACCESS:     844082 HIT:       4200 MISS:     839882
cpu0_L2C PREFETCH     ACCESS:    4885366 HIT:     912091 MISS:    3973275
cpu0_L2C WRITE        ACCESS:    1450133 HIT:    1442450 MISS:       7683
cpu0_L2C TRANSLATION  ACCESS:      25794 HIT:      18680 MISS:       7114
cpu0_L2C PREFETCH REQUESTED:    3894838 ISSUED:    3786953 USEFUL:     670773 USELESS:     841343
cpu0_L2C AVERAGE MISS LATENCY: 304 cycles
cpu0_STLB TOTAL        ACCESS:     279802 HIT:       2060 MISS:     277742
cpu0_STLB LOAD         ACCESS:     279802 HIT:       2060 MISS:     277742
cpu0_STLB RFO          ACCESS:          0 HIT:          0 MISS:          0
cpu0_STLB PREFETCH     ACCESS:          0 HIT:          0 MISS:          0
cpu0_STLB WRITE        ACCESS:          0 HIT:          0 MISS:          0
cpu0_STLB TRANSLATION  ACCESS:          0 HIT:          0 MISS:          0
cpu0_STLB PREFETCH REQUESTED:          0 ISSUED:          0 USEFUL:          0 USELESS:          0
cpu0_STLB AVERAGE MISS LATENCY: 59.85 cycles

DRAM Statistics

Channel 0 RQ ROW_BUFFER_HIT:     725679
  ROW_BUFFER_MISS:    1546241
 AVG DBUS CONGESTED CYCLE: 3.924
WQ ROW_BUFFER_HIT: Channel 0 
  ROW_BUFFER_MISS:      99035
  FULL:     591547

Channel 1 RQ ROW_BUFFER_HIT:     809200
  ROW_BUFFER_MISS:    1468542
 AVG DBUS CONGESTED CYCLE: 3.959
WQ ROW_BUFFER_HIT: Channel 1 
  ROW_BUFFER_MISS:      92592
  FULL:     601720
BERTI TO_L1: 3422289 TO_L2: 40901142 TO_L2_BC_MSHR: 25150461
BERTI AVG_LAT: 361.337 NUM_TRACK_LATENCY: 3627901 NUM_CANT_TRACK_LATENCY: 92
BERTI CROSS_PAGE 27841864 NO_CROSS_PAGE: 16481567
BERTI FOUND_BERTI: 24848826 NO_FOUND_BERTI: 16717223
BERTI AVERAGE_ISSUED: 3.97865
CPU 0 L1I Entangling prefetcher final stats
IP accesses: 44f6 113d80 592 / 76958
IP misses: 44f6 113d80 586 / 28620
IP hits: 0 0 0 / 0
IP late: 5a81 16a040 12 / 5534
IP wrong: 2172 85c80 22 / 9224
miss rate: 0.371892
coverage: 0
coverage_late: 0.193362
accuracy: 0
accuracy_late: 0.374984
discarded: 0
evicts entangled j table: 0
evicts entangled k table: 1562
max bb size: 65
formats: 437 0 1352 699 277 675 0 
hist_lookups: 1119 1158 924 831 729 646 539 463 363 271 192 138 89 47 24 0 15 3760 
hist_lookups_evict: 0.13265 %
hist_lookups_shortlat: 33.2508 %
bb_found_hist: 0 14057 6413 2733 1040 685 229 76 50 11 11 29 12 0 3 0 22 0 8 0 7 0 0 0 5 2 0 0 0 0 0 0 0 0 0 0 0 0 0 0 0 0 0 0 0 0 0 0 0 0 0 0 0 0 0 0 0 0 0 0 0 0 0 0 
bb_found_summary: 46493 25393 1.83094
entangled_found_hist: 0 8174 4833 9800 2075 375 51 0 
entangled_found_summary: 57721 25308 2.28075
bb_ent_found_hist: 0 19201 9981 5475 2078 1885 740 236 101 5 27 120 0 0 0 0 0 0 13 0 0 0 0 0 0 1 0 0 0 0 0 0 0 0 0 0 0 0 0 0 0 0 0 0 0 0 0 0 0 0 0 0 0 0 0 0 0 0 0 0 0 0 0 0 
bb_ent_found_summary: 82119 39863 2.06004
